MODEL 1
REMARK VINA RESULT:      -8.2      0.000      0.000
REMARK  Name = *****
REMARK                            x       y       z     vdW  Elec       q    Type
REMARK                         _______ _______ _______ _____ _____    ______ ____
ROOT
ATOM      1  N   LIG    1       25.877 -21.032   6.015  0.00  0.00    -0.297 N 
ATOM      2  C   LIG    1       27.136 -20.372   6.117  0.00  0.00    +0.050 A 
ATOM      3  C   LIG    1       27.499 -19.341   5.213  0.00  0.00    +0.034 A 
ATOM      4  C   LIG    1       28.728 -18.664   5.314  0.00  0.00    +0.019 A 
ATOM      5  C   LIG    1       29.638 -19.004   6.302  0.00  0.00    +0.030 A 
ATOM      6  C   LIG    1       29.304 -20.012   7.202  0.00  0.00    +0.107 A 
ATOM      7  S   LIG    1       26.471 -18.850   3.847  0.00  0.00    -0.086 S 
ATOM      8  C   LIG    1       24.886 -19.426   4.407  0.00  0.00    +0.034 A 
ATOM      9  C   LIG    1       23.768 -18.834   3.785  0.00  0.00    +0.017 A 
ATOM     10  C   LIG    1       22.480 -19.224   4.122  0.00  0.00    +0.001 A 
ATOM     11  C   LIG    1       22.304 -20.175   5.113  0.00  0.00    +0.002 A 
ATOM     12  C   LIG    1       23.413 -20.747   5.750  0.00  0.00    +0.024 A 
ATOM     13  C   LIG    1       28.063 -20.667   7.132  0.00  0.00    +0.053 A 
ATOM     14  C   LIG    1       24.740 -20.429   5.391  0.00  0.00    +0.048 A 
ENDROOT
BRANCH   6  15
ATOM     15  S   LIG    1       30.534 -20.547   8.373  0.00  0.00    +0.060 S 
ATOM     16  O   LIG    1       31.753 -20.756   7.638  0.00  0.00    -0.153 OA
ATOM     17  O   LIG    1       29.937 -21.627   9.154  0.00  0.00    -0.153 OA
BRANCH  15  18
ATOM     18  N   LIG    1       30.740 -19.197   9.382  0.00  0.00    -0.183 NA
ATOM     19  C   LIG    1       29.542 -18.414   9.700  0.00  0.00    +0.131 C 
ATOM     20  C   LIG    1       31.927 -18.356   9.137  0.00  0.00    +0.131 C 
ENDBRANCH  15  18
ENDBRANCH   6  15
BRANCH   1  21
ATOM     21  C   LIG    1       25.677 -22.328   6.745  0.00  0.00    +0.129 C 
BRANCH  21  23
ATOM     22  C   LIG    1       23.663 -23.877   6.816  0.00  0.00    +0.026 C 
ATOM     23  C   LIG    1       24.894 -23.467   5.982  0.00  0.00    +0.071 C 
BRANCH  23  24
ATOM     24  N   LIG    1       25.754 -24.683   5.737  0.00  0.00    -0.304 NA
ATOM     25  C   LIG    1       25.254 -25.547   4.661  0.00  0.00    +0.105 C 
ATOM     26  C   LIG    1       25.919 -25.517   6.939  0.00  0.00    +0.105 C 
ENDBRANCH  23  24
ENDBRANCH  21  23
ENDBRANCH   1  21
TORSDOF 5
ENDMDL
MODEL 2
REMARK VINA RESULT:      -7.8      3.042      6.372
REMARK  Name = *****
REMARK                            x       y       z     vdW  Elec       q    Type
REMARK                         _______ _______ _______ _____ _____    ______ ____
ROOT
ATOM      1  N   LIG    1       25.578 -21.505   5.714  0.00  0.00    -0.297 N 
ATOM      2  C   LIG    1       24.970 -22.762   5.992  0.00  0.00    +0.050 A 
ATOM      3  C   LIG    1       23.564 -22.880   6.144  0.00  0.00    +0.034 A 
ATOM      4  C   LIG    1       22.947 -24.119   6.396  0.00  0.00    +0.019 A 
ATOM      5  C   LIG    1       23.707 -25.271   6.524  0.00  0.00    +0.030 A 
ATOM      6  C   LIG    1       25.088 -25.180   6.378  0.00  0.00    +0.107 A 
ATOM      7  S   LIG    1       22.467 -21.481   6.085  0.00  0.00    -0.086 S 
ATOM      8  C   LIG    1       23.464 -20.321   5.183  0.00  0.00    +0.034 A 
ATOM      9  C   LIG    1       22.765 -19.259   4.576  0.00  0.00    +0.017 A 
ATOM     10  C   LIG    1       23.442 -18.277   3.867  0.00  0.00    +0.001 A 
ATOM     11  C   LIG    1       24.816 -18.377   3.724  0.00  0.00    +0.002 A 
ATOM     12  C   LIG    1       25.510 -19.446   4.307  0.00  0.00    +0.024 A 
ATOM     13  C   LIG    1       25.710 -23.955   6.088  0.00  0.00    +0.053 A 
ATOM     14  C   LIG    1       24.871 -20.429   5.091  0.00  0.00    +0.048 A 
ENDROOT
BRANCH   6  15
ATOM     15  S   LIG    1       26.072 -26.631   6.692  0.00  0.00    +0.060 S 
ATOM     16  O   LIG    1       26.372 -26.640   8.099  0.00  0.00    -0.153 OA
ATOM     17  O   LIG    1       27.142 -26.643   5.698  0.00  0.00    -0.153 OA
BRANCH  15  18
ATOM     18  N   LIG    1       25.009 -27.913   6.361  0.00  0.00    -0.183 NA
ATOM     19  C   LIG    1       24.926 -28.984   7.359  0.00  0.00    +0.131 C 
ATOM     20  C   LIG    1       24.983 -28.418   4.975  0.00  0.00    +0.131 C 
ENDBRANCH  15  18
ENDBRANCH   6  15
BRANCH   1  21
ATOM     21  C   LIG    1       27.058 -21.355   5.910  0.00  0.00    +0.129 C 
BRANCH  21  23
ATOM     22  C   LIG    1       26.367 -20.508   8.204  0.00  0.00    +0.026 C 
ATOM     23  C   LIG    1       27.559 -21.018   7.369  0.00  0.00    +0.071 C 
BRANCH  23  24
ATOM     24  N   LIG    1       28.647 -19.972   7.369  0.00  0.00    -0.304 NA
ATOM     25  C   LIG    1       28.897 -19.386   6.048  0.00  0.00    +0.105 C 
ATOM     26  C   LIG    1       29.930 -20.483   7.881  0.00  0.00    +0.105 C 
ENDBRANCH  23  24
ENDBRANCH  21  23
ENDBRANCH   1  21
TORSDOF 5
ENDMDL
MODEL 3
REMARK VINA RESULT:      -6.4      6.532     10.389
REMARK  Name = *****
REMARK                            x       y       z     vdW  Elec       q    Type
REMARK                         _______ _______ _______ _____ _____    ______ ____
ROOT
ATOM      1  N   LIG    1       24.817 -29.998   9.083  0.00  0.00    -0.297 N 
ATOM      2  C   LIG    1       24.783 -29.529   7.738  0.00  0.00    +0.050 A 
ATOM      3  C   LIG    1       24.266 -30.336   6.693  0.00  0.00    +0.034 A 
ATOM      4  C   LIG    1       24.206 -29.878   5.363  0.00  0.00    +0.019 A 
ATOM      5  C   LIG    1       24.672 -28.616   5.032  0.00  0.00    +0.030 A 
ATOM      6  C   LIG    1       25.183 -27.806   6.042  0.00  0.00    +0.107 A 
ATOM      7  S   LIG    1       23.704 -32.004   6.949  0.00  0.00    -0.086 S 
ATOM      8  C   LIG    1       23.364 -31.970   8.692  0.00  0.00    +0.034 A 
ATOM      9  C   LIG    1       22.501 -32.978   9.165  0.00  0.00    +0.017 A 
ATOM     10  C   LIG    1       22.185 -33.068  10.513  0.00  0.00    +0.001 A 
ATOM     11  C   LIG    1       22.695 -32.122  11.387  0.00  0.00    +0.002 A 
ATOM     12  C   LIG    1       23.534 -31.104  10.915  0.00  0.00    +0.024 A 
ATOM     13  C   LIG    1       25.213 -28.239   7.377  0.00  0.00    +0.053 A 
ATOM     14  C   LIG    1       23.935 -31.016   9.565  0.00  0.00    +0.048 A 
ENDROOT
BRANCH   6  15
ATOM     15  S   LIG    1       25.920 -26.249   5.589  0.00  0.00    +0.060 S 
ATOM     16  O   LIG    1       25.486 -25.950   4.250  0.00  0.00    -0.153 OA
ATOM     17  O   LIG    1       27.341 -26.340   5.913  0.00  0.00    -0.153 OA
BRANCH  15  18
ATOM     18  N   LIG    1       25.192 -25.139   6.649  0.00  0.00    -0.183 NA
ATOM     19  C   LIG    1       23.766 -24.861   6.447  0.00  0.00    +0.131 C 
ATOM     20  C   LIG    1       25.969 -23.932   6.989  0.00  0.00    +0.131 C 
ENDBRANCH  15  18
ENDBRANCH   6  15
BRANCH   1  21
ATOM     21  C   LIG    1       25.676 -29.278  10.081  0.00  0.00    +0.129 C 
BRANCH  21  23
ATOM     22  C   LIG    1       27.332 -31.105   9.466  0.00  0.00    +0.026 C 
ATOM     23  C   LIG    1       27.161 -29.787  10.248  0.00  0.00    +0.071 C 
BRANCH  23  24
ATOM     24  N   LIG    1       27.523 -30.019  11.695  0.00  0.00    -0.304 NA
ATOM     25  C   LIG    1       26.540 -29.477  12.639  0.00  0.00    +0.105 C 
ATOM     26  C   LIG    1       28.839 -29.461  12.051  0.00  0.00    +0.105 C 
ENDBRANCH  23  24
ENDBRANCH  21  23
ENDBRANCH   1  21
TORSDOF 5
ENDMDL
MODEL 4
REMARK VINA RESULT:      -5.9      1.490      1.889
REMARK  Name = *****
REMARK                            x       y       z     vdW  Elec       q    Type
REMARK                         _______ _______ _______ _____ _____    ______ ____
ROOT
ATOM      1  N   LIG    1       26.002 -20.683   5.605  0.00  0.00    -0.297 N 
ATOM      2  C   LIG    1       27.176 -19.880   5.690  0.00  0.00    +0.050 A 
ATOM      3  C   LIG    1       27.376 -18.777   4.819  0.00  0.00    +0.034 A 
ATOM      4  C   LIG    1       28.519 -17.962   4.906  0.00  0.00    +0.019 A 
ATOM      5  C   LIG    1       29.503 -18.227   5.845  0.00  0.00    +0.030 A 
ATOM      6  C   LIG    1       29.328 -19.303   6.711  0.00  0.00    +0.107 A 
ATOM      7  S   LIG    1       26.241 -18.361   3.514  0.00  0.00    -0.086 S 
ATOM      8  C   LIG    1       24.762 -19.145   4.105  0.00  0.00    +0.034 A 
ATOM      9  C   LIG    1       23.556 -18.670   3.551  0.00  0.00    +0.017 A 
ATOM     10  C   LIG    1       22.338 -19.225   3.916  0.00  0.00    +0.001 A 
ATOM     11  C   LIG    1       22.318 -20.229   4.871  0.00  0.00    +0.002 A 
ATOM     12  C   LIG    1       23.513 -20.687   5.441  0.00  0.00    +0.024 A 
ATOM     13  C   LIG    1       28.173 -20.100   6.657  0.00  0.00    +0.053 A 
ATOM     14  C   LIG    1       24.777 -20.197   5.049  0.00  0.00    +0.048 A 
ENDROOT
BRANCH   6  15
ATOM     15  S   LIG    1       30.661 -19.731   7.812  0.00  0.00    +0.060 S 
ATOM     16  O   LIG    1       30.479 -18.962   9.014  0.00  0.00    -0.153 OA
ATOM     17  O   LIG    1       31.898 -19.635   7.041  0.00  0.00    -0.153 OA
BRANCH  15  18
ATOM     18  N   LIG    1       30.372 -21.366   8.172  0.00  0.00    -0.183 NA
ATOM     19  C   LIG    1       28.993 -21.743   8.495  0.00  0.00    +0.131 C 
ATOM     20  C   LIG    1       31.368 -22.048   9.020  0.00  0.00    +0.131 C 
ENDBRANCH  15  18
ENDBRANCH   6  15
BRANCH   1  21
ATOM     21  C   LIG    1       25.988 -22.021   6.283  0.00  0.00    +0.129 C 
BRANCH  21  23
ATOM     22  C   LIG    1       25.321 -22.012   8.735  0.00  0.00    +0.026 C 
ATOM     23  C   LIG    1       24.817 -22.294   7.306  0.00  0.00    +0.071 C 
BRANCH  23  24
ATOM     24  N   LIG    1       24.314 -23.715   7.229  0.00  0.00    -0.304 NA
ATOM     25  C   LIG    1       25.128 -24.578   6.365  0.00  0.00    +0.105 C 
ATOM     26  C   LIG    1       22.920 -23.804   6.762  0.00  0.00    +0.105 C 
ENDBRANCH  23  24
ENDBRANCH  21  23
ENDBRANCH   1  21
TORSDOF 5
ENDMDL
MODEL 5
REMARK VINA RESULT:      -5.8     10.219     12.065
REMARK  Name = *****
REMARK                            x       y       z     vdW  Elec       q    Type
REMARK                         _______ _______ _______ _____ _____    ______ ____
ROOT
ATOM      1  N   LIG    1       24.083 -29.218  11.986  0.00  0.00    -0.297 N 
ATOM      2  C   LIG    1       23.787 -30.169  10.968  0.00  0.00    +0.050 A 
ATOM      3  C   LIG    1       22.497 -30.748  10.857  0.00  0.00    +0.034 A 
ATOM      4  C   LIG    1       22.183 -31.672   9.843  0.00  0.00    +0.019 A 
ATOM      5  C   LIG    1       23.144 -32.061   8.924  0.00  0.00    +0.030 A 
ATOM      6  C   LIG    1       24.418 -31.505   9.012  0.00  0.00    +0.107 A 
ATOM      7  S   LIG    1       21.185 -30.407  12.009  0.00  0.00    -0.086 S 
ATOM      8  C   LIG    1       21.728 -28.852  12.673  0.00  0.00    +0.034 A 
ATOM      9  C   LIG    1       20.732 -28.074  13.295  0.00  0.00    +0.017 A 
ATOM     10  C   LIG    1       21.044 -26.852  13.874  0.00  0.00    +0.001 A 
ATOM     11  C   LIG    1       22.345 -26.384  13.794  0.00  0.00    +0.002 A 
ATOM     12  C   LIG    1       23.332 -27.145  13.154  0.00  0.00    +0.024 A 
ATOM     13  C   LIG    1       24.729 -30.554   9.997  0.00  0.00    +0.053 A 
ATOM     14  C   LIG    1       23.073 -28.422  12.612  0.00  0.00    +0.048 A 
ENDROOT
BRANCH   6  15
ATOM     15  S   LIG    1       25.688 -32.120   7.926  0.00  0.00    +0.060 S 
ATOM     16  O   LIG    1       25.526 -33.548   7.853  0.00  0.00    -0.153 OA
ATOM     17  O   LIG    1       26.949 -31.531   8.371  0.00  0.00    -0.153 OA
BRANCH  15  18
ATOM     18  N   LIG    1       25.281 -31.455   6.418  0.00  0.00    -0.183 NA
ATOM     19  C   LIG    1       26.031 -31.935   5.253  0.00  0.00    +0.131 C 
ATOM     20  C   LIG    1       25.024 -30.002   6.376  0.00  0.00    +0.131 C 
ENDBRANCH  15  18
ENDBRANCH   6  15
BRANCH   1  21
ATOM     21  C   LIG    1       25.518 -28.902  12.289  0.00  0.00    +0.129 C 
BRANCH  21  23
ATOM     22  C   LIG    1       26.267 -29.323  14.681  0.00  0.00    +0.026 C 
ATOM     23  C   LIG    1       26.284 -29.895  13.249  0.00  0.00    +0.071 C 
BRANCH  23  24
ATOM     24  N   LIG    1       27.715 -30.111  12.819  0.00  0.00    -0.304 NA
ATOM     25  C   LIG    1       28.698 -29.710  13.832  0.00  0.00    +0.105 C 
ATOM     26  C   LIG    1       28.049 -29.407  11.569  0.00  0.00    +0.105 C 
ENDBRANCH  23  24
ENDBRANCH  21  23
ENDBRANCH   1  21
TORSDOF 5
ENDMDL
MODEL 6
REMARK VINA RESULT:      -5.6      7.851     11.771
REMARK  Name = *****
REMARK                            x       y       z     vdW  Elec       q    Type
REMARK                         _______ _______ _______ _____ _____    ______ ____
ROOT
ATOM      1  N   LIG    1       24.308 -31.099  10.897  0.00  0.00    -0.297 N 
ATOM      2  C   LIG    1       24.968 -30.160  10.053  0.00  0.00    +0.050 A 
ATOM      3  C   LIG    1       25.937 -29.262  10.571  0.00  0.00    +0.034 A 
ATOM      4  C   LIG    1       26.613 -28.344   9.747  0.00  0.00    +0.019 A 
ATOM      5  C   LIG    1       26.336 -28.279   8.391  0.00  0.00    +0.030 A 
ATOM      6  C   LIG    1       25.390 -29.152   7.859  0.00  0.00    +0.107 A 
ATOM      7  S   LIG    1       26.342 -29.173  12.301  0.00  0.00    -0.086 S 
ATOM      8  C   LIG    1       25.810 -30.778  12.844  0.00  0.00    +0.034 A 
ATOM      9  C   LIG    1       26.364 -31.224  14.061  0.00  0.00    +0.017 A 
ATOM     10  C   LIG    1       26.003 -32.451  14.598  0.00  0.00    +0.001 A 
ATOM     11  C   LIG    1       25.119 -33.256  13.898  0.00  0.00    +0.002 A 
ATOM     12  C   LIG    1       24.586 -32.825  12.677  0.00  0.00    +0.024 A 
ATOM     13  C   LIG    1       24.737 -30.097   8.667  0.00  0.00    +0.053 A 
ATOM     14  C   LIG    1       24.874 -31.558  12.128  0.00  0.00    +0.048 A 
ENDROOT
BRANCH   6  15
ATOM     15  S   LIG    1       24.927 -28.963   6.150  0.00  0.00    +0.060 S 
ATOM     16  O   LIG    1       23.499 -29.126   6.079  0.00  0.00    -0.153 OA
ATOM     17  O   LIG    1       25.817 -29.819   5.371  0.00  0.00    -0.153 OA
BRANCH  15  18
ATOM     18  N   LIG    1       25.299 -27.341   5.812  0.00  0.00    -0.183 NA
ATOM     19  C   LIG    1       24.200 -26.374   5.890  0.00  0.00    +0.131 C 
ATOM     20  C   LIG    1       26.207 -27.087   4.677  0.00  0.00    +0.131 C 
ENDBRANCH  15  18
ENDBRANCH   6  15
BRANCH   1  21
ATOM     21  C   LIG    1       23.063 -31.772  10.399  0.00  0.00    +0.129 C 
BRANCH  21  23
ATOM     22  C   LIG    1       21.527 -30.210  11.685  0.00  0.00    +0.026 C 
ATOM     23  C   LIG    1       21.754 -30.894  10.322  0.00  0.00    +0.071 C 
BRANCH  23  24
ATOM     24  N   LIG    1       20.537 -31.716   9.971  0.00  0.00    -0.304 NA
ATOM     25  C   LIG    1       19.288 -31.177  10.520  0.00  0.00    +0.105 C 
ATOM     26  C   LIG    1       20.649 -33.118  10.410  0.00  0.00    +0.105 C 
ENDBRANCH  23  24
ENDBRANCH  21  23
ENDBRANCH   1  21
TORSDOF 5
ENDMDL
MODEL 7
REMARK VINA RESULT:      -5.6      6.915     10.748
REMARK  Name = *****
REMARK                            x       y       z     vdW  Elec       q    Type
REMARK                         _______ _______ _______ _____ _____    ______ ____
ROOT
ATOM      1  N   LIG    1       25.054 -30.163   7.683  0.00  0.00    -0.297 N 
ATOM      2  C   LIG    1       24.867 -30.217   9.095  0.00  0.00    +0.050 A 
ATOM      3  C   LIG    1       24.048 -31.211   9.689  0.00  0.00    +0.034 A 
ATOM      4  C   LIG    1       23.872 -31.291  11.083  0.00  0.00    +0.019 A 
ATOM      5  C   LIG    1       24.487 -30.377  11.923  0.00  0.00    +0.030 A 
ATOM      6  C   LIG    1       25.297 -29.393  11.363  0.00  0.00    +0.107 A 
ATOM      7  S   LIG    1       23.132 -32.402   8.737  0.00  0.00    -0.086 S 
ATOM      8  C   LIG    1       24.052 -32.384   7.219  0.00  0.00    +0.034 A 
ATOM      9  C   LIG    1       23.880 -33.509   6.388  0.00  0.00    +0.017 A 
ATOM     10  C   LIG    1       24.527 -33.594   5.163  0.00  0.00    +0.001 A 
ATOM     11  C   LIG    1       25.384 -32.574   4.785  0.00  0.00    +0.002 A 
ATOM     12  C   LIG    1       25.576 -31.465   5.621  0.00  0.00    +0.024 A 
ATOM     13  C   LIG    1       25.510 -29.329   9.976  0.00  0.00    +0.053 A 
ATOM     14  C   LIG    1       24.887 -31.307   6.841  0.00  0.00    +0.048 A 
ENDROOT
BRANCH   6  15
ATOM     15  S   LIG    1       25.963 -28.132  12.430  0.00  0.00    +0.060 S 
ATOM     16  O   LIG    1       24.844 -27.451  13.027  0.00  0.00    -0.153 OA
ATOM     17  O   LIG    1       26.957 -27.397  11.652  0.00  0.00    -0.153 OA
BRANCH  15  18
ATOM     18  N   LIG    1       26.763 -29.014  13.640  0.00  0.00    -0.183 NA
ATOM     19  C   LIG    1       26.499 -28.630  15.030  0.00  0.00    +0.131 C 
ATOM     20  C   LIG    1       28.179 -29.348  13.396  0.00  0.00    +0.131 C 
ENDBRANCH  15  18
ENDBRANCH   6  15
BRANCH   1  21
ATOM     21  C   LIG    1       25.623 -28.916   7.074  0.00  0.00    +0.129 C 
BRANCH  21  23
ATOM     22  C   LIG    1       24.409 -28.183   4.965  0.00  0.00    +0.026 C 
ATOM     23  C   LIG    1       24.597 -27.882   6.465  0.00  0.00    +0.071 C 
BRANCH  23  24
ATOM     24  N   LIG    1       25.061 -26.455   6.630  0.00  0.00    -0.304 NA
ATOM     25  C   LIG    1       24.116 -25.467   6.100  0.00  0.00    +0.105 C 
ATOM     26  C   LIG    1       26.369 -26.204   6.002  0.00  0.00    +0.105 C 
ENDBRANCH  23  24
ENDBRANCH  21  23
ENDBRANCH   1  21
TORSDOF 5
ENDMDL
MODEL 8
REMARK VINA RESULT:      -5.4      9.591     11.950
REMARK  Name = *****
REMARK                            x       y       z     vdW  Elec       q    Type
REMARK                         _______ _______ _______ _____ _____    ______ ____
ROOT
ATOM      1  N   LIG    1       23.404 -28.628  12.703  0.00  0.00    -0.297 N 
ATOM      2  C   LIG    1       23.705 -29.777  11.916  0.00  0.00    +0.050 A 
ATOM      3  C   LIG    1       22.871 -30.924  11.943  0.00  0.00    +0.034 A 
ATOM      4  C   LIG    1       23.144 -32.058  11.154  0.00  0.00    +0.019 A 
ATOM      5  C   LIG    1       24.260 -32.092  10.333  0.00  0.00    +0.030 A 
ATOM      6  C   LIG    1       25.092 -30.977  10.290  0.00  0.00    +0.107 A 
ATOM      7  S   LIG    1       21.450 -31.060  13.004  0.00  0.00    -0.086 S 
ATOM      8  C   LIG    1       21.109 -29.345  13.313  0.00  0.00    +0.034 A 
ATOM      9  C   LIG    1       19.804 -29.054  13.760  0.00  0.00    +0.017 A 
ATOM     10  C   LIG    1       19.430 -27.752  14.060  0.00  0.00    +0.001 A 
ATOM     11  C   LIG    1       20.345 -26.730  13.871  0.00  0.00    +0.002 A 
ATOM     12  C   LIG    1       21.635 -27.014  13.403  0.00  0.00    +0.024 A 
ATOM     13  C   LIG    1       24.808 -29.827  11.044  0.00  0.00    +0.053 A 
ATOM     14  C   LIG    1       22.078 -28.329  13.151  0.00  0.00    +0.048 A 
ENDROOT
BRANCH   6  15
ATOM     15  S   LIG    1       26.603 -31.081   9.353  0.00  0.00    +0.060 S 
ATOM     16  O   LIG    1       27.150 -32.393   9.580  0.00  0.00    -0.153 OA
ATOM     17  O   LIG    1       27.379 -29.883   9.660  0.00  0.00    -0.153 OA
BRANCH  15  18
ATOM     18  N   LIG    1       26.079 -30.990   7.740  0.00  0.00    -0.183 NA
ATOM     19  C   LIG    1       25.047 -29.996   7.429  0.00  0.00    +0.131 C 
ATOM     20  C   LIG    1       25.877 -32.268   7.030  0.00  0.00    +0.131 C 
ENDBRANCH  15  18
ENDBRANCH   6  15
BRANCH   1  21
ATOM     21  C   LIG    1       24.471 -27.597  12.920  0.00  0.00    +0.129 C 
BRANCH  21  23
ATOM     22  C   LIG    1       25.370 -26.911  15.196  0.00  0.00    +0.026 C 
ATOM     23  C   LIG    1       25.550 -27.904  14.031  0.00  0.00    +0.071 C 
BRANCH  23  24
ATOM     24  N   LIG    1       26.959 -27.794  13.500  0.00  0.00    -0.304 NA
ATOM     25  C   LIG    1       27.038 -27.182  12.169  0.00  0.00    +0.105 C 
ATOM     26  C   LIG    1       27.648 -29.094  13.435  0.00  0.00    +0.105 C 
ENDBRANCH  23  24
ENDBRANCH  21  23
ENDBRANCH   1  21
TORSDOF 5
ENDMDL
MODEL 9
REMARK VINA RESULT:      -5.4     10.056     12.559
REMARK  Name = *****
REMARK                            x       y       z     vdW  Elec       q    Type
REMARK                         _______ _______ _______ _____ _____    ______ ____
ROOT
ATOM      1  N   LIG    1       24.976 -28.119  12.838  0.00  0.00    -0.297 N 
ATOM      2  C   LIG    1       23.595 -28.446  12.716  0.00  0.00    +0.050 A 
ATOM      3  C   LIG    1       22.617 -27.820  13.531  0.00  0.00    +0.034 A 
ATOM      4  C   LIG    1       21.247 -28.116  13.407  0.00  0.00    +0.019 A 
ATOM      5  C   LIG    1       20.811 -29.053  12.484  0.00  0.00    +0.030 A 
ATOM      6  C   LIG    1       21.752 -29.680  11.672  0.00  0.00    +0.107 A 
ATOM      7  S   LIG    1       23.031 -26.657  14.812  0.00  0.00    -0.086 S 
ATOM      8  C   LIG    1       24.629 -26.115  14.258  0.00  0.00    +0.034 A 
ATOM      9  C   LIG    1       25.073 -24.886  14.785  0.00  0.00    +0.017 A 
ATOM     10  C   LIG    1       26.317 -24.375  14.445  0.00  0.00    +0.001 A 
ATOM     11  C   LIG    1       27.104 -25.070  13.541  0.00  0.00    +0.002 A 
ATOM     12  C   LIG    1       26.654 -26.280  12.997  0.00  0.00    +0.024 A 
ATOM     13  C   LIG    1       23.117 -29.363  11.762  0.00  0.00    +0.053 A 
ATOM     14  C   LIG    1       25.427 -26.868  13.366  0.00  0.00    +0.048 A 
ENDROOT
BRANCH   6  15
ATOM     15  S   LIG    1       21.207 -30.990  10.596  0.00  0.00    +0.060 S 
ATOM     16  O   LIG    1       22.246 -31.198   9.623  0.00  0.00    -0.153 OA
ATOM     17  O   LIG    1       19.846 -30.661  10.180  0.00  0.00    -0.153 OA
BRANCH  15  18
ATOM     18  N   LIG    1       21.148 -32.347  11.616  0.00  0.00    -0.183 NA
ATOM     19  C   LIG    1       22.202 -33.352  11.449  0.00  0.00    +0.131 C 
ATOM     20  C   LIG    1       19.820 -32.942  11.860  0.00  0.00    +0.131 C 
ENDBRANCH  15  18
ENDBRANCH   6  15
BRANCH   1  21
ATOM     21  C   LIG    1       25.995 -29.034  12.227  0.00  0.00    +0.129 C 
BRANCH  21  23
ATOM     22  C   LIG    1       26.293 -29.773  14.640  0.00  0.00    +0.026 C 
ATOM     23  C   LIG    1       26.669 -30.097  13.180  0.00  0.00    +0.071 C 
BRANCH  23  24
ATOM     24  N   LIG    1       28.173 -30.108  13.047  0.00  0.00    -0.304 NA
ATOM     25  C   LIG    1       28.867 -29.532  14.204  0.00  0.00    +0.105 C 
ATOM     26  C   LIG    1       28.645 -29.400  11.845  0.00  0.00    +0.105 C 
ENDBRANCH  23  24
ENDBRANCH  21  23
ENDBRANCH   1  21
TORSDOF 5
ENDMDL
