MODEL 1
REMARK VINA RESULT:       8.4      0.000      0.000
REMARK  Name = *****
REMARK                            x       y       z     vdW  Elec       q    Type
REMARK                         _______ _______ _______ _____ _____    ______ ____
ROOT
ATOM      1  C   LIG    1       27.114 -15.422   2.915  0.00  0.00    +0.183 C 
ATOM      2  C   LIG    1       25.954 -16.345   3.374  0.00  0.00    +0.008 C 
ATOM      3  C   LIG    1       24.818 -15.494   4.014  0.00  0.00    +0.015 C 
ATOM      4  C   LIG    1       26.612 -17.226   4.478  0.00  0.00    +0.002 C 
ATOM      5  C   LIG    1       27.057 -18.649   4.063  0.00  0.00    -0.003 C 
ATOM      6  C   LIG    1       26.088 -19.378   3.113  0.00  0.00    +0.002 C 
ATOM      7  C   LIG    1       25.881 -18.480   1.883  0.00  0.00    +0.005 C 
ATOM      8  C   LIG    1       24.814 -20.050   3.766  0.00  0.00    -0.007 C 
ATOM      9  C   LIG    1       24.249 -21.063   2.728  0.00  0.00    +0.016 C 
ATOM     10  C   LIG    1       25.187 -20.755   5.082  0.00  0.00    -0.060 C 
ATOM     11  C   LIG    1       24.291 -21.572   5.680  0.00  0.00    +0.046 C 
ATOM     12  C   LIG    1       23.065 -20.758   6.035  0.00  0.00    +0.156 C 
ATOM     13  O   LIG    1       22.443 -21.017   7.062  0.00  0.00    -0.293 OA
ATOM     14  C   LIG    1       22.559 -19.754   5.008  0.00  0.00    +0.080 C 
ATOM     15  C   LIG    1       26.138 -20.016   6.001  0.00  0.00    +0.032 C 
ATOM     16  C   LIG    1       23.670 -19.091   4.174  0.00  0.00    +0.019 C 
ATOM     17  C   LIG    1       27.386 -19.542   5.271  0.00  0.00    +0.008 C 
ATOM     18  C   LIG    1       27.835 -16.412   4.983  0.00  0.00    +0.008 C 
ATOM     19  C   LIG    1       25.330 -17.092   2.175  0.00  0.00    +0.011 C 
ATOM     20  C   LIG    1       27.847 -15.101   4.213  0.00  0.00    +0.045 C 
ENDROOT
BRANCH   1  21
ATOM     21  O   LIG    1       26.600 -14.232   2.299  0.00  0.00    -0.461 OA
BRANCH  21  22
ATOM     22  C   LIG    1       26.874 -13.056   2.920  0.00  0.00    +0.307 C 
ATOM     23  O   LIG    1       27.997 -12.594   3.081  0.00  0.00    -0.251 OA
BRANCH  22  25
ATOM     24  C   LIG    1       24.648 -12.153   2.192  0.00  0.00    +0.015 C 
ATOM     25  C   LIG    1       25.607 -12.366   3.351  0.00  0.00    +0.117 C 
ENDBRANCH  22  25
ENDBRANCH  21  22
ENDBRANCH   1  21
TORSDOF 3
ENDMDL
MODEL 2
REMARK VINA RESULT:       8.7      1.737      2.560
REMARK  Name = *****
REMARK                            x       y       z     vdW  Elec       q    Type
REMARK                         _______ _______ _______ _____ _____    ______ ____
ROOT
ATOM      1  C   LIG    1       25.628 -13.896   3.729  0.00  0.00    +0.183 C 
ATOM      2  C   LIG    1       24.937 -15.045   4.513  0.00  0.00    +0.008 C 
ATOM      3  C   LIG    1       25.137 -14.841   6.043  0.00  0.00    +0.015 C 
ATOM      4  C   LIG    1       25.726 -16.311   4.061  0.00  0.00    +0.002 C 
ATOM      5  C   LIG    1       25.070 -17.190   2.969  0.00  0.00    -0.003 C 
ATOM      6  C   LIG    1       23.546 -17.363   3.108  0.00  0.00    +0.002 C 
ATOM      7  C   LIG    1       22.920 -15.960   3.141  0.00  0.00    +0.005 C 
ATOM      8  C   LIG    1       23.038 -18.429   4.161  0.00  0.00    -0.007 C 
ATOM      9  C   LIG    1       21.553 -18.739   3.818  0.00  0.00    +0.016 C 
ATOM     10  C   LIG    1       23.899 -19.704   4.099  0.00  0.00    -0.060 C 
ATOM     11  C   LIG    1       23.498 -20.813   4.760  0.00  0.00    +0.046 C 
ATOM     12  C   LIG    1       23.427 -20.489   6.237  0.00  0.00    +0.156 C 
ATOM     13  O   LIG    1       23.721 -21.352   7.060  0.00  0.00    -0.293 OA
ATOM     14  C   LIG    1       22.829 -19.148   6.641  0.00  0.00    +0.080 C 
ATOM     15  C   LIG    1       25.395 -19.506   3.967  0.00  0.00    +0.032 C 
ATOM     16  C   LIG    1       23.112 -18.008   5.648  0.00  0.00    +0.019 C 
ATOM     17  C   LIG    1       25.748 -18.562   2.827  0.00  0.00    +0.008 C 
ATOM     18  C   LIG    1       27.102 -15.788   3.568  0.00  0.00    +0.008 C 
ATOM     19  C   LIG    1       23.414 -15.053   4.258  0.00  0.00    +0.011 C 
ATOM     20  C   LIG    1       27.103 -14.280   3.765  0.00  0.00    +0.045 C 
ENDROOT
BRANCH   1  21
ATOM     21  O   LIG    1       25.402 -12.636   4.376  0.00  0.00    -0.461 OA
BRANCH  21  22
ATOM     22  C   LIG    1       24.166 -12.092   4.238  0.00  0.00    +0.307 C 
ATOM     23  O   LIG    1       23.428 -11.783   5.166  0.00  0.00    -0.251 OA
BRANCH  22  25
ATOM     24  C   LIG    1       25.072 -11.857   1.909  0.00  0.00    +0.015 C 
ATOM     25  C   LIG    1       23.831 -11.876   2.785  0.00  0.00    +0.117 C 
ENDBRANCH  22  25
ENDBRANCH  21  22
ENDBRANCH   1  21
TORSDOF 3
ENDMDL
MODEL 3
REMARK VINA RESULT:      10.9      1.923      6.888
REMARK  Name = *****
REMARK                            x       y       z     vdW  Elec       q    Type
REMARK                         _______ _______ _______ _____ _____    ______ ____
ROOT
ATOM      1  C   LIG    1       23.449 -19.040   3.595  0.00  0.00    +0.183 C 
ATOM      2  C   LIG    1       24.625 -18.130   4.039  0.00  0.00    +0.008 C 
ATOM      3  C   LIG    1       25.354 -18.760   5.262  0.00  0.00    +0.015 C 
ATOM      4  C   LIG    1       23.913 -16.820   4.491  0.00  0.00    +0.002 C 
ATOM      5  C   LIG    1       23.902 -15.646   3.482  0.00  0.00    -0.003 C 
ATOM      6  C   LIG    1       25.212 -15.460   2.694  0.00  0.00    +0.002 C 
ATOM      7  C   LIG    1       25.526 -16.791   1.993  0.00  0.00    +0.005 C 
ATOM      8  C   LIG    1       26.393 -14.711   3.432  0.00  0.00    -0.007 C 
ATOM      9  C   LIG    1       27.404 -14.261   2.338  0.00  0.00    +0.016 C 
ATOM     10  C   LIG    1       25.859 -13.504   4.224  0.00  0.00    -0.060 C 
ATOM     11  C   LIG    1       26.728 -12.609   4.744  0.00  0.00    +0.046 C 
ATOM     12  C   LIG    1       27.621 -13.328   5.731  0.00  0.00    +0.156 C 
ATOM     13  O   LIG    1       28.005 -12.741   6.740  0.00  0.00    -0.293 OA
ATOM     14  C   LIG    1       28.144 -14.704   5.341  0.00  0.00    +0.080 C 
ATOM     15  C   LIG    1       24.571 -13.715   4.994  0.00  0.00    +0.032 C 
ATOM     16  C   LIG    1       27.165 -15.533   4.492  0.00  0.00    +0.019 C 
ATOM     17  C   LIG    1       23.477 -14.316   4.125  0.00  0.00    +0.008 C 
ATOM     18  C   LIG    1       22.458 -17.237   4.838  0.00  0.00    +0.008 C 
ATOM     19  C   LIG    1       25.675 -17.992   2.915  0.00  0.00    +0.011 C 
ATOM     20  C   LIG    1       22.361 -18.739   4.620  0.00  0.00    +0.045 C 
ENDROOT
BRANCH   1  21
ATOM     21  O   LIG    1       23.835 -20.421   3.636  0.00  0.00    -0.461 OA
BRANCH  21  22
ATOM     22  C   LIG    1       23.257 -21.189   4.595  0.00  0.00    +0.307 C 
ATOM     23  O   LIG    1       22.088 -21.556   4.589  0.00  0.00    -0.251 OA
BRANCH  22  25
ATOM     24  C   LIG    1       23.728 -21.316   7.057  0.00  0.00    +0.015 C 
ATOM     25  C   LIG    1       24.256 -21.571   5.656  0.00  0.00    +0.117 C 
ENDBRANCH  22  25
ENDBRANCH  21  22
ENDBRANCH   1  21
TORSDOF 3
ENDMDL
