MODEL 1
REMARK VINA RESULT:      -8.3      0.000      0.000
REMARK  Name = *****
REMARK                            x       y       z     vdW  Elec       q    Type
REMARK                         _______ _______ _______ _____ _____    ______ ____
ROOT
ATOM      1  C   LIG    1       25.897 -21.417   6.309  0.00  0.00    +0.084 C 
ATOM      2  N   LIG    1       27.059 -22.144   6.843  0.00  0.00    -0.339 N 
ATOM      3  H   LIG    1       26.778 -22.698   7.656  0.00  0.00    +0.146 HD
ATOM      4  C   LIG    1       28.178 -21.354   7.156  0.00  0.00    +0.037 A 
ATOM      5  C   LIG    1       28.396 -20.096   6.570  0.00  0.00    -0.026 A 
ATOM      6  C   LIG    1       29.517 -19.330   6.941  0.00  0.00    +0.018 A 
ATOM      7  C   LIG    1       30.481 -19.817   7.842  0.00  0.00    +0.055 A 
ATOM      8  C   LIG    1       30.272 -21.111   8.348  0.00  0.00    +0.280 A 
ATOM      9  C   LIG    1       27.391 -19.503   5.612  0.00  0.00    +0.039 C 
ATOM     10  C   LIG    1       29.154 -21.879   8.002  0.00  0.00    +0.107 A 
ATOM     11  C   LIG    1       26.345 -20.517   5.157  0.00  0.00    +0.028 C 
ENDROOT
BRANCH   8  12
ATOM     12  N   LIG    1       31.214 -21.722   9.269  0.00  0.00    +0.080 N 
ATOM     13  O   LIG    1       30.852 -21.860  10.442  0.00  0.00    -0.576 OA
ATOM     14  O   LIG    1       32.308 -22.079   8.806  0.00  0.00    +0.042 OA
ENDBRANCH   8  12
BRANCH   1  15
ATOM     15  C   LIG    1       25.148 -20.647   7.434  0.00  0.00    +0.103 C 
BRANCH  15  16
ATOM     16  N   LIG    1       23.699 -20.932   7.450  0.00  0.00    -0.312 NA
ATOM     17  H   LIG    1       23.465 -21.411   8.321  0.00  0.00    +0.122 HD
BRANCH  16  19
ATOM     18  C   LIG    1       22.577 -23.016   6.857  0.00  0.00    +0.024 C 
ATOM     19  C   LIG    1       23.280 -21.770   6.312  0.00  0.00    +0.048 C 
ATOM     20  C   LIG    1       22.339 -21.039   5.349  0.00  0.00    +0.024 C 
ENDBRANCH  16  19
ENDBRANCH  15  16
ENDBRANCH   1  15
BRANCH   7  21
ATOM     21  C   LIG    1       31.611 -18.924   8.291  0.00  0.00    +0.197 C 
BRANCH  21  22
ATOM     22  O   LIG    1       31.852 -19.069   9.687  0.00  0.00    -0.390 OA
ATOM     23  H   LIG    1       32.797 -18.882   9.823  0.00  0.00    +0.210 HD
ENDBRANCH  21  22
ENDBRANCH   7  21
TORSDOF 6
ENDMDL
MODEL 2
REMARK VINA RESULT:      -7.7      4.249      7.211
REMARK  Name = *****
REMARK                            x       y       z     vdW  Elec       q    Type
REMARK                         _______ _______ _______ _____ _____    ______ ____
ROOT
ATOM      1  C   LIG    1       29.472 -20.180   7.029  0.00  0.00    +0.084 C 
ATOM      2  N   LIG    1       28.716 -20.195   5.767  0.00  0.00    -0.339 N 
ATOM      3  H   LIG    1       28.931 -19.355   5.224  0.00  0.00    +0.146 HD
ATOM      4  C   LIG    1       27.324 -20.348   5.895  0.00  0.00    +0.037 A 
ATOM      5  C   LIG    1       26.735 -20.934   7.027  0.00  0.00    -0.026 A 
ATOM      6  C   LIG    1       25.334 -21.035   7.119  0.00  0.00    +0.018 A 
ATOM      7  C   LIG    1       24.491 -20.627   6.070  0.00  0.00    +0.055 A 
ATOM      8  C   LIG    1       25.119 -20.119   4.920  0.00  0.00    +0.280 A 
ATOM      9  C   LIG    1       27.578 -21.373   8.199  0.00  0.00    +0.039 C 
ATOM     10  C   LIG    1       26.510 -19.996   4.819  0.00  0.00    +0.107 A 
ATOM     11  C   LIG    1       29.069 -21.386   7.878  0.00  0.00    +0.028 C 
ENDROOT
BRANCH   8  12
ATOM     12  N   LIG    1       24.349 -19.687   3.768  0.00  0.00    +0.080 N 
ATOM     13  O   LIG    1       24.124 -18.477   3.656  0.00  0.00    -0.576 OA
ATOM     14  O   LIG    1       23.988 -20.563   2.968  0.00  0.00    +0.042 OA
ENDBRANCH   8  12
BRANCH   1  15
ATOM     15  C   LIG    1       29.302 -18.824   7.772  0.00  0.00    +0.103 C 
BRANCH  15  16
ATOM     16  N   LIG    1       29.971 -18.811   9.089  0.00  0.00    -0.312 NA
ATOM     17  H   LIG    1       29.293 -19.070   9.808  0.00  0.00    +0.122 HD
BRANCH  16  19
ATOM     18  C   LIG    1       30.386 -17.254  10.921  0.00  0.00    +0.024 C 
ATOM     19  C   LIG    1       30.539 -17.491   9.417  0.00  0.00    +0.048 C 
ATOM     20  C   LIG    1       32.016 -17.366   9.032  0.00  0.00    +0.024 C 
ENDBRANCH  16  19
ENDBRANCH  15  16
ENDBRANCH   1  15
BRANCH   7  21
ATOM     21  C   LIG    1       22.994 -20.657   6.250  0.00  0.00    +0.197 C 
BRANCH  21  22
ATOM     22  O   LIG    1       22.406 -21.688   5.464  0.00  0.00    -0.390 OA
ATOM     23  H   LIG    1       22.368 -21.351   4.552  0.00  0.00    +0.210 HD
ENDBRANCH  21  22
ENDBRANCH   7  21
TORSDOF 6
ENDMDL
MODEL 3
REMARK VINA RESULT:      -7.7      2.536      3.468
REMARK  Name = *****
REMARK                            x       y       z     vdW  Elec       q    Type
REMARK                         _______ _______ _______ _____ _____    ______ ____
ROOT
ATOM      1  C   LIG    1       24.349 -21.346   5.729  0.00  0.00    +0.084 C 
ATOM      2  N   LIG    1       25.371 -20.359   5.347  0.00  0.00    -0.339 N 
ATOM      3  H   LIG    1       25.656 -20.514   4.377  0.00  0.00    +0.146 HD
ATOM      4  C   LIG    1       26.500 -20.300   6.182  0.00  0.00    +0.037 A 
ATOM      5  C   LIG    1       26.471 -20.741   7.515  0.00  0.00    -0.026 A 
ATOM      6  C   LIG    1       27.638 -20.689   8.301  0.00  0.00    +0.018 A 
ATOM      7  C   LIG    1       28.835 -20.138   7.811  0.00  0.00    +0.055 A 
ATOM      8  C   LIG    1       28.807 -19.634   6.501  0.00  0.00    +0.280 A 
ATOM      9  C   LIG    1       25.226 -21.365   8.098  0.00  0.00    +0.039 C 
ATOM     10  C   LIG    1       27.659 -19.693   5.700  0.00  0.00    +0.107 A 
ATOM     11  C   LIG    1       24.001 -21.172   7.207  0.00  0.00    +0.028 C 
ENDROOT
BRANCH   8  12
ATOM     12  N   LIG    1       29.980 -19.024   5.900  0.00  0.00    +0.080 N 
ATOM     13  O   LIG    1       29.796 -18.072   5.134  0.00  0.00    -0.576 OA
ATOM     14  O   LIG    1       31.084 -19.491   6.215  0.00  0.00    +0.042 OA
ENDBRANCH   8  12
BRANCH   1  15
ATOM     15  C   LIG    1       24.798 -22.791   5.371  0.00  0.00    +0.103 C 
BRANCH  15  16
ATOM     16  N   LIG    1       23.800 -23.809   5.758  0.00  0.00    -0.312 NA
ATOM     17  H   LIG    1       23.097 -23.373   6.356  0.00  0.00    +0.122 HD
BRANCH  16  19
ATOM     18  C   LIG    1       24.212 -26.210   5.639  0.00  0.00    +0.024 C 
ATOM     19  C   LIG    1       24.406 -24.944   6.476  0.00  0.00    +0.048 C 
ATOM     20  C   LIG    1       25.899 -24.744   6.755  0.00  0.00    +0.024 C 
ENDBRANCH  16  19
ENDBRANCH  15  16
ENDBRANCH   1  15
BRANCH   7  21
ATOM     21  C   LIG    1       30.089 -20.196   8.649  0.00  0.00    +0.197 C 
BRANCH  21  22
ATOM     22  O   LIG    1       30.848 -21.363   8.353  0.00  0.00    -0.390 OA
ATOM     23  H   LIG    1       30.521 -21.695   7.499  0.00  0.00    +0.210 HD
ENDBRANCH  21  22
ENDBRANCH   7  21
TORSDOF 6
ENDMDL
MODEL 4
REMARK VINA RESULT:      -7.1      6.113      7.932
REMARK  Name = *****
REMARK                            x       y       z     vdW  Elec       q    Type
REMARK                         _______ _______ _______ _____ _____    ______ ____
ROOT
ATOM      1  C   LIG    1       24.357 -24.200   5.554  0.00  0.00    +0.084 C 
ATOM      2  N   LIG    1       24.368 -25.538   4.942  0.00  0.00    -0.339 N 
ATOM      3  H   LIG    1       23.446 -25.749   4.553  0.00  0.00    +0.146 HD
ATOM      4  C   LIG    1       24.795 -26.584   5.778  0.00  0.00    +0.037 A 
ATOM      5  C   LIG    1       25.608 -26.363   6.901  0.00  0.00    -0.026 A 
ATOM      6  C   LIG    1       25.983 -27.442   7.724  0.00  0.00    +0.018 A 
ATOM      7  C   LIG    1       25.622 -28.766   7.418  0.00  0.00    +0.055 A 
ATOM      8  C   LIG    1       24.875 -28.960   6.243  0.00  0.00    +0.280 A 
ATOM      9  C   LIG    1       26.013 -24.965   7.301  0.00  0.00    +0.039 C 
ATOM     10  C   LIG    1       24.481 -27.896   5.423  0.00  0.00    +0.107 A 
ATOM     11  C   LIG    1       25.707 -23.933   6.219  0.00  0.00    +0.028 C 
ENDROOT
BRANCH   8  12
ATOM     12  N   LIG    1       24.466 -30.286   5.819  0.00  0.00    +0.080 N 
ATOM     13  O   LIG    1       23.330 -30.658   6.132  0.00  0.00    -0.576 OA
ATOM     14  O   LIG    1       25.281 -30.944   5.154  0.00  0.00    +0.042 OA
ENDBRANCH   8  12
BRANCH   1  15
ATOM     15  C   LIG    1       23.152 -24.034   6.524  0.00  0.00    +0.103 C 
BRANCH  15  16
ATOM     16  N   LIG    1       22.316 -22.861   6.195  0.00  0.00    -0.312 NA
ATOM     17  H   LIG    1       21.771 -23.067   5.357  0.00  0.00    +0.122 HD
BRANCH  16  19
ATOM     18  C   LIG    1       22.315 -20.696   5.072  0.00  0.00    +0.024 C 
ATOM     19  C   LIG    1       23.118 -21.648   5.961  0.00  0.00    +0.048 C 
ATOM     20  C   LIG    1       23.501 -20.927   7.258  0.00  0.00    +0.024 C 
ENDBRANCH  16  19
ENDBRANCH  15  16
ENDBRANCH   1  15
BRANCH   7  21
ATOM     21  C   LIG    1       25.955 -29.880   8.379  0.00  0.00    +0.197 C 
BRANCH  21  22
ATOM     22  O   LIG    1       27.132 -29.578   9.122  0.00  0.00    -0.390 OA
ATOM     23  H   LIG    1       27.708 -30.359   9.053  0.00  0.00    +0.210 HD
ENDBRANCH  21  22
ENDBRANCH   7  21
TORSDOF 6
ENDMDL
MODEL 5
REMARK VINA RESULT:      -7.1      3.678      6.999
REMARK  Name = *****
REMARK                            x       y       z     vdW  Elec       q    Type
REMARK                         _______ _______ _______ _____ _____    ______ ____
ROOT
ATOM      1  C   LIG    1       31.105 -19.192   7.331  0.00  0.00    +0.084 C 
ATOM      2  N   LIG    1       30.236 -19.362   6.156  0.00  0.00    -0.339 N 
ATOM      3  H   LIG    1       30.119 -18.465   5.680  0.00  0.00    +0.146 HD
ATOM      4  C   LIG    1       28.983 -19.947   6.408  0.00  0.00    +0.037 A 
ATOM      5  C   LIG    1       28.745 -20.756   7.531  0.00  0.00    -0.026 A 
ATOM      6  C   LIG    1       27.462 -21.294   7.753  0.00  0.00    +0.018 A 
ATOM      7  C   LIG    1       26.411 -21.103   6.839  0.00  0.00    +0.055 A 
ATOM      8  C   LIG    1       26.707 -20.355   5.687  0.00  0.00    +0.280 A 
ATOM      9  C   LIG    1       29.821 -20.984   8.564  0.00  0.00    +0.039 C 
ATOM     10  C   LIG    1       27.972 -19.799   5.459  0.00  0.00    +0.107 A 
ATOM     11  C   LIG    1       31.195 -20.514   8.094  0.00  0.00    +0.028 C 
ENDROOT
BRANCH   8  12
ATOM     12  N   LIG    1       25.703 -20.112   4.666  0.00  0.00    +0.080 N 
ATOM     13  O   LIG    1       24.897 -21.019   4.435  0.00  0.00    -0.576 OA
ATOM     14  O   LIG    1       25.717 -19.003   4.112  0.00  0.00    +0.042 OA
ENDBRANCH   8  12
BRANCH   1  15
ATOM     15  C   LIG    1       30.630 -18.004   8.217  0.00  0.00    +0.103 C 
BRANCH  15  16
ATOM     16  N   LIG    1       31.754 -17.211   8.754  0.00  0.00    -0.312 NA
ATOM     17  H   LIG    1       32.615 -17.498   8.287  0.00  0.00    +0.122 HD
BRANCH  16  19
ATOM     18  C   LIG    1       32.701 -16.187  10.756  0.00  0.00    +0.024 C 
ATOM     19  C   LIG    1       31.916 -17.382  10.209  0.00  0.00    +0.048 C 
ATOM     20  C   LIG    1       30.579 -17.492  10.949  0.00  0.00    +0.024 C 
ENDBRANCH  16  19
ENDBRANCH  15  16
ENDBRANCH   1  15
BRANCH   7  21
ATOM     21  C   LIG    1       25.028 -21.608   7.165  0.00  0.00    +0.197 C 
BRANCH  21  22
ATOM     22  O   LIG    1       24.691 -21.336   8.522  0.00  0.00    -0.390 OA
ATOM     23  H   LIG    1       25.250 -21.919   9.065  0.00  0.00    +0.210 HD
ENDBRANCH  21  22
ENDBRANCH   7  21
TORSDOF 6
ENDMDL
MODEL 6
REMARK VINA RESULT:      -7.0      6.301      8.144
REMARK  Name = *****
REMARK                            x       y       z     vdW  Elec       q    Type
REMARK                         _______ _______ _______ _____ _____    ______ ____
ROOT
ATOM      1  C   LIG    1       24.092 -24.917   5.438  0.00  0.00    +0.084 C 
ATOM      2  N   LIG    1       23.891 -26.360   5.232  0.00  0.00    -0.339 N 
ATOM      3  H   LIG    1       22.890 -26.565   5.171  0.00  0.00    +0.146 HD
ATOM      4  C   LIG    1       24.504 -27.200   6.178  0.00  0.00    +0.037 A 
ATOM      5  C   LIG    1       25.606 -26.787   6.944  0.00  0.00    -0.026 A 
ATOM      6  C   LIG    1       26.164 -27.657   7.901  0.00  0.00    +0.018 A 
ATOM      7  C   LIG    1       25.693 -28.970   8.071  0.00  0.00    +0.055 A 
ATOM      8  C   LIG    1       24.641 -29.376   7.232  0.00  0.00    +0.280 A 
ATOM      9  C   LIG    1       26.148 -25.384   6.828  0.00  0.00    +0.039 C 
ATOM     10  C   LIG    1       24.064 -28.519   6.287  0.00  0.00    +0.107 A 
ATOM     11  C   LIG    1       25.582 -24.633   5.627  0.00  0.00    +0.028 C 
ENDROOT
BRANCH   8  12
ATOM     12  N   LIG    1       24.089 -30.717   7.307  0.00  0.00    +0.080 N 
ATOM     13  O   LIG    1       24.526 -31.556   6.511  0.00  0.00    -0.576 OA
ATOM     14  O   LIG    1       23.232 -30.929   8.178  0.00  0.00    +0.042 OA
ENDBRANCH   8  12
BRANCH   1  15
ATOM     15  C   LIG    1       23.213 -24.387   6.607  0.00  0.00    +0.103 C 
BRANCH  15  16
ATOM     16  N   LIG    1       22.495 -23.145   6.260  0.00  0.00    -0.312 NA
ATOM     17  H   LIG    1       22.015 -23.277   5.368  0.00  0.00    +0.122 HD
BRANCH  16  19
ATOM     18  C   LIG    1       22.601 -20.795   5.613  0.00  0.00    +0.024 C 
ATOM     19  C   LIG    1       23.398 -21.986   6.153  0.00  0.00    +0.048 C 
ATOM     20  C   LIG    1       24.037 -21.603   7.492  0.00  0.00    +0.024 C 
ENDBRANCH  16  19
ENDBRANCH  15  16
ENDBRANCH   1  15
BRANCH   7  21
ATOM     21  C   LIG    1       26.249 -29.834   9.176  0.00  0.00    +0.197 C 
BRANCH  21  22
ATOM     22  O   LIG    1       27.558 -29.411   9.545  0.00  0.00    -0.390 OA
ATOM     23  H   LIG    1       27.592 -29.438  10.517  0.00  0.00    +0.210 HD
ENDBRANCH  21  22
ENDBRANCH   7  21
TORSDOF 6
ENDMDL
MODEL 7
REMARK VINA RESULT:      -7.0      3.992      6.598
REMARK  Name = *****
REMARK                            x       y       z     vdW  Elec       q    Type
REMARK                         _______ _______ _______ _____ _____    ______ ____
ROOT
ATOM      1  C   LIG    1       25.243 -20.733   7.384  0.00  0.00    +0.084 C 
ATOM      2  N   LIG    1       25.882 -21.999   7.778  0.00  0.00    -0.339 N 
ATOM      3  H   LIG    1       26.890 -21.944   7.615  0.00  0.00    +0.146 HD
ATOM      4  C   LIG    1       25.355 -23.157   7.179  0.00  0.00    +0.037 A 
ATOM      5  C   LIG    1       24.051 -23.206   6.660  0.00  0.00    -0.026 A 
ATOM      6  C   LIG    1       23.582 -24.381   6.042  0.00  0.00    +0.018 A 
ATOM      7  C   LIG    1       24.362 -25.549   5.986  0.00  0.00    +0.055 A 
ATOM      8  C   LIG    1       25.631 -25.488   6.585  0.00  0.00    +0.280 A 
ATOM      9  C   LIG    1       23.168 -21.982   6.667  0.00  0.00    +0.039 C 
ATOM     10  C   LIG    1       26.119 -24.323   7.189  0.00  0.00    +0.107 A 
ATOM     11  C   LIG    1       23.728 -20.859   7.536  0.00  0.00    +0.028 C 
ENDROOT
BRANCH   8  12
ATOM     12  N   LIG    1       26.514 -26.642   6.605  0.00  0.00    +0.080 N 
ATOM     13  O   LIG    1       26.360 -27.460   7.518  0.00  0.00    -0.576 OA
ATOM     14  O   LIG    1       27.347 -26.732   5.690  0.00  0.00    +0.042 OA
ENDBRANCH   8  12
BRANCH   1  15
ATOM     15  C   LIG    1       25.683 -20.301   5.956  0.00  0.00    +0.103 C 
BRANCH  15  16
ATOM     16  N   LIG    1       27.076 -20.682   5.651  0.00  0.00    -0.312 NA
ATOM     17  H   LIG    1       27.208 -21.668   5.880  0.00  0.00    +0.122 HD
BRANCH  16  19
ATOM     18  C   LIG    1       29.072 -20.825   7.046  0.00  0.00    +0.024 C 
ATOM     19  C   LIG    1       28.055 -19.878   6.403  0.00  0.00    +0.048 C 
ATOM     20  C   LIG    1       28.794 -18.863   5.525  0.00  0.00    +0.024 C 
ENDBRANCH  16  19
ENDBRANCH  15  16
ENDBRANCH   1  15
BRANCH   7  21
ATOM     21  C   LIG    1       23.863 -26.753   5.225  0.00  0.00    +0.197 C 
BRANCH  21  22
ATOM     22  O   LIG    1       23.740 -27.883   6.082  0.00  0.00    -0.390 OA
ATOM     23  H   LIG    1       24.495 -27.848   6.694  0.00  0.00    +0.210 HD
ENDBRANCH  21  22
ENDBRANCH   7  21
TORSDOF 6
ENDMDL
MODEL 8
REMARK VINA RESULT:      -6.9      4.749      6.418
REMARK  Name = *****
REMARK                            x       y       z     vdW  Elec       q    Type
REMARK                         _______ _______ _______ _____ _____    ______ ____
ROOT
ATOM      1  C   LIG    1       24.752 -20.902   6.913  0.00  0.00    +0.084 C 
ATOM      2  N   LIG    1       25.620 -22.024   7.305  0.00  0.00    -0.339 N 
ATOM      3  H   LIG    1       26.575 -21.852   6.981  0.00  0.00    +0.146 HD
ATOM      4  C   LIG    1       25.188 -23.298   6.895  0.00  0.00    +0.037 A 
ATOM      5  C   LIG    1       23.844 -23.573   6.595  0.00  0.00    -0.026 A 
ATOM      6  C   LIG    1       23.469 -24.858   6.159  0.00  0.00    +0.018 A 
ATOM      7  C   LIG    1       24.396 -25.912   6.077  0.00  0.00    +0.055 A 
ATOM      8  C   LIG    1       25.716 -25.621   6.461  0.00  0.00    +0.280 A 
ATOM      9  C   LIG    1       22.801 -22.484   6.639  0.00  0.00    +0.039 C 
ATOM     10  C   LIG    1       26.109 -24.344   6.881  0.00  0.00    +0.107 A 
ATOM     11  C   LIG    1       23.309 -21.212   7.313  0.00  0.00    +0.028 C 
ENDROOT
BRANCH   8  12
ATOM     12  N   LIG    1       26.752 -26.638   6.436  0.00  0.00    +0.080 N 
ATOM     13  O   LIG    1       26.799 -27.424   7.389  0.00  0.00    -0.576 OA
ATOM     14  O   LIG    1       27.503 -26.657   5.450  0.00  0.00    +0.042 OA
ENDBRANCH   8  12
BRANCH   1  15
ATOM     15  C   LIG    1       24.911 -20.567   5.403  0.00  0.00    +0.103 C 
BRANCH  15  16
ATOM     16  N   LIG    1       23.619 -20.541   4.688  0.00  0.00    -0.312 NA
ATOM     17  H   LIG    1       23.548 -21.373   4.101  0.00  0.00    +0.122 HD
BRANCH  16  19
ATOM     18  C   LIG    1       22.442 -18.413   4.493  0.00  0.00    +0.024 C 
ATOM     19  C   LIG    1       23.469 -19.343   3.843  0.00  0.00    +0.048 C 
ATOM     20  C   LIG    1       24.786 -18.585   3.645  0.00  0.00    +0.024 C 
ENDBRANCH  16  19
ENDBRANCH  15  16
ENDBRANCH   1  15
BRANCH   7  21
ATOM     21  C   LIG    1       23.975 -27.244   5.507  0.00  0.00    +0.197 C 
BRANCH  21  22
ATOM     22  O   LIG    1       23.905 -28.236   6.526  0.00  0.00    -0.390 OA
ATOM     23  H   LIG    1       24.087 -27.781   7.366  0.00  0.00    +0.210 HD
ENDBRANCH  21  22
ENDBRANCH   7  21
TORSDOF 6
ENDMDL
MODEL 9
REMARK VINA RESULT:      -6.9      5.015      6.948
REMARK  Name = *****
REMARK                            x       y       z     vdW  Elec       q    Type
REMARK                         _______ _______ _______ _____ _____    ______ ____
ROOT
ATOM      1  C   LIG    1       24.089 -23.810   6.918  0.00  0.00    +0.084 C 
ATOM      2  N   LIG    1       23.187 -22.649   6.843  0.00  0.00    -0.339 N 
ATOM      3  H   LIG    1       22.260 -22.950   6.534  0.00  0.00    +0.146 HD
ATOM      4  C   LIG    1       23.640 -21.578   6.054  0.00  0.00    +0.037 A 
ATOM      5  C   LIG    1       25.001 -21.380   5.769  0.00  0.00    -0.026 A 
ATOM      6  C   LIG    1       25.400 -20.308   4.947  0.00  0.00    +0.018 A 
ATOM      7  C   LIG    1       24.475 -19.374   4.448  0.00  0.00    +0.055 A 
ATOM      8  C   LIG    1       23.132 -19.558   4.818  0.00  0.00    +0.280 A 
ATOM      9  C   LIG    1       26.044 -22.356   6.253  0.00  0.00    +0.039 C 
ATOM     10  C   LIG    1       22.716 -20.627   5.621  0.00  0.00    +0.107 A 
ATOM     11  C   LIG    1       25.496 -23.338   7.285  0.00  0.00    +0.028 C 
ENDROOT
BRANCH   8  12
ATOM     12  N   LIG    1       22.095 -18.642   4.378  0.00  0.00    +0.080 N 
ATOM     13  O   LIG    1       21.189 -19.105   3.676  0.00  0.00    -0.576 OA
ATOM     14  O   LIG    1       22.183 -17.464   4.755  0.00  0.00    +0.042 OA
ENDBRANCH   8  12
BRANCH   1  15
ATOM     15  C   LIG    1       24.044 -24.644   5.605  0.00  0.00    +0.103 C 
BRANCH  15  16
ATOM     16  N   LIG    1       23.650 -26.048   5.838  0.00  0.00    -0.312 NA
ATOM     17  H   LIG    1       23.020 -26.088   6.640  0.00  0.00    +0.122 HD
BRANCH  16  19
ATOM     18  C   LIG    1       24.350 -28.378   6.018  0.00  0.00    +0.024 C 
ATOM     19  C   LIG    1       24.810 -26.920   6.094  0.00  0.00    +0.048 C 
ATOM     20  C   LIG    1       25.954 -26.698   5.100  0.00  0.00    +0.024 C 
ENDBRANCH  16  19
ENDBRANCH  15  16
ENDBRANCH   1  15
BRANCH   7  21
ATOM     21  C   LIG    1       24.929 -18.303   3.488  0.00  0.00    +0.197 C 
BRANCH  21  22
ATOM     22  O   LIG    1       26.350 -18.218   3.452  0.00  0.00    -0.390 OA
ATOM     23  H   LIG    1       26.678 -18.813   4.148  0.00  0.00    +0.210 HD
ENDBRANCH  21  22
ENDBRANCH   7  21
TORSDOF 6
ENDMDL
