MODEL 1
REMARK VINA RESULT:      -5.6      0.000      0.000
REMARK  Name = *****
REMARK                            x       y       z     vdW  Elec       q    Type
REMARK                         _______ _______ _______ _____ _____    ______ ____
ROOT
ATOM      1  C   LIG    1       26.162 -14.669   3.134  0.00  0.00    +0.190 C 
ENDROOT
BRANCH   1   2
ATOM      2  C   LIG    1       24.628 -14.335   3.070  0.00  0.00    +0.036 C 
ATOM      3  C   LIG    1       24.039 -13.853   4.420  0.00  0.00    +0.007 C 
ATOM      4  C   LIG    1       24.347 -12.399   4.769  0.00  0.00    +0.000 C 
ATOM      5  C   LIG    1       23.907 -11.450   3.662  0.00  0.00    +0.000 C 
ATOM      6  C   LIG    1       24.480 -11.845   2.307  0.00  0.00    +0.000 C 
ATOM      7  C   LIG    1       24.232 -13.317   1.968  0.00  0.00    +0.007 C 
ENDBRANCH   1   2
BRANCH   1   8
ATOM      8  C   LIG    1       26.944 -13.788   4.127  0.00  0.00    -0.005 A 
ATOM      9  C   LIG    1       27.907 -12.869   3.676  0.00  0.00    +0.007 A 
ATOM     10  C   LIG    1       28.747 -12.206   4.574  0.00  0.00    +0.000 A 
ATOM     11  C   LIG    1       28.626 -12.429   5.942  0.00  0.00    +0.000 A 
ATOM     12  C   LIG    1       27.643 -13.291   6.416  0.00  0.00    +0.000 A 
ATOM     13  C   LIG    1       26.805 -13.958   5.519  0.00  0.00    +0.007 A 
ENDBRANCH   1   8
BRANCH   1  14
ATOM     14  C   LIG    1       26.442 -16.164   3.512  0.00  0.00    +0.345 C 
ATOM     15  O   LIG    1       27.544 -16.546   3.924  0.00  0.00    -0.247 OA
BRANCH  14  16
ATOM     16  O   LIG    1       25.369 -16.971   3.319  0.00  0.00    -0.450 OA
BRANCH  16  17
ATOM     17  C   LIG    1       25.652 -18.367   3.309  0.00  0.00    +0.359 C 
BRANCH  17  20
ATOM     18  C   LIG    1       26.827 -20.093   5.416  0.00  0.00    +0.276 C 
ATOM     19  N   LIG    1       25.390 -20.048   5.209  0.00  0.00    -0.224 N 
ATOM     20  C   LIG    1       24.781 -19.286   4.216  0.00  0.00    +0.321 C 
ATOM     21  N   LIG    1       23.519 -19.320   3.935  0.00  0.00    -0.084 NA
ATOM     22  C   LIG    1       22.652 -20.211   4.707  0.00  0.00    +0.294 C 
ATOM     23  C   LIG    1       23.175 -20.457   6.109  0.00  0.00    +0.093 C 
ATOM     24  C   LIG    1       24.595 -20.973   6.004  0.00  0.00    +0.229 C 
ENDBRANCH  17  20
ENDBRANCH  16  17
ENDBRANCH  14  16
ENDBRANCH   1  14
BRANCH   1  25
ATOM     25  O   LIG    1       26.705 -14.466   1.812  0.00  0.00    -0.373 OA
ATOM     26  H   LIG    1       27.000 -13.534   1.779  0.00  0.00    +0.211 HD
ENDBRANCH   1  25
TORSDOF 7
ENDMDL
MODEL 2
REMARK VINA RESULT:      -3.9      2.280      7.529
REMARK  Name = *****
REMARK                            x       y       z     vdW  Elec       q    Type
REMARK                         _______ _______ _______ _____ _____    ______ ____
ROOT
ATOM      1  C   LIG    1       25.721 -19.872   4.539  0.00  0.00    +0.190 C 
ENDROOT
BRANCH   1   2
ATOM      2  C   LIG    1       26.457 -19.376   5.835  0.00  0.00    +0.036 C 
ATOM      3  C   LIG    1       26.256 -20.305   7.060  0.00  0.00    +0.007 C 
ATOM      4  C   LIG    1       27.112 -21.569   7.051  0.00  0.00    +0.000 C 
ATOM      5  C   LIG    1       28.593 -21.244   6.906  0.00  0.00    +0.000 C 
ATOM      6  C   LIG    1       28.870 -20.359   5.697  0.00  0.00    +0.000 C 
ATOM      7  C   LIG    1       27.977 -19.116   5.659  0.00  0.00    +0.007 C 
ENDBRANCH   1   2
BRANCH   1   8
ATOM      8  C   LIG    1       24.195 -19.996   4.705  0.00  0.00    -0.005 A 
ATOM      9  C   LIG    1       23.607 -21.205   5.117  0.00  0.00    +0.007 A 
ATOM     10  C   LIG    1       22.222 -21.379   5.091  0.00  0.00    +0.000 A 
ATOM     11  C   LIG    1       21.393 -20.341   4.675  0.00  0.00    +0.000 A 
ATOM     12  C   LIG    1       21.947 -19.117   4.317  0.00  0.00    +0.000 A 
ATOM     13  C   LIG    1       23.333 -18.943   4.339  0.00  0.00    +0.007 A 
ENDBRANCH   1   8
BRANCH   1  14
ATOM     14  C   LIG    1       25.984 -18.948   3.301  0.00  0.00    +0.345 C 
ATOM     15  O   LIG    1       25.731 -19.305   2.143  0.00  0.00    -0.247 OA
BRANCH  14  16
ATOM     16  O   LIG    1       26.527 -17.751   3.637  0.00  0.00    -0.450 OA
BRANCH  16  17
ATOM     17  C   LIG    1       25.833 -16.609   3.144  0.00  0.00    +0.359 C 
BRANCH  17  20
ATOM     18  C   LIG    1       23.890 -14.591   4.117  0.00  0.00    +0.276 C 
ATOM     19  N   LIG    1       25.317 -14.322   4.147  0.00  0.00    -0.224 N 
ATOM     20  C   LIG    1       26.276 -15.212   3.673  0.00  0.00    +0.321 C 
ATOM     21  N   LIG    1       27.539 -14.949   3.579  0.00  0.00    -0.084 NA
ATOM     22  C   LIG    1       28.014 -13.632   4.000  0.00  0.00    +0.294 C 
ATOM     23  C   LIG    1       27.138 -13.015   5.073  0.00  0.00    +0.093 C 
ATOM     24  C   LIG    1       25.712 -12.984   4.564  0.00  0.00    +0.229 C 
ENDBRANCH  17  20
ENDBRANCH  16  17
ENDBRANCH  14  16
ENDBRANCH   1  14
BRANCH   1  25
ATOM     25  O   LIG    1       26.255 -21.172   4.208  0.00  0.00    -0.373 OA
ATOM     26  H   LIG    1       27.120 -21.011   3.779  0.00  0.00    +0.211 HD
ENDBRANCH   1  25
TORSDOF 7
ENDMDL
MODEL 3
REMARK VINA RESULT:      -2.7      2.224      6.735
REMARK  Name = *****
REMARK                            x       y       z     vdW  Elec       q    Type
REMARK                         _______ _______ _______ _____ _____    ______ ____
ROOT
ATOM      1  C   LIG    1       25.625 -19.766   4.697  0.00  0.00    +0.190 C 
ENDROOT
BRANCH   1   2
ATOM      2  C   LIG    1       24.987 -21.190   4.878  0.00  0.00    +0.036 C 
ATOM      3  C   LIG    1       24.725 -21.572   6.358  0.00  0.00    +0.007 C 
ATOM      4  C   LIG    1       23.483 -20.930   6.973  0.00  0.00    +0.000 C 
ATOM      5  C   LIG    1       22.235 -21.222   6.151  0.00  0.00    +0.000 C 
ATOM      6  C   LIG    1       22.409 -20.838   4.687  0.00  0.00    +0.000 C 
ATOM      7  C   LIG    1       23.683 -21.424   4.072  0.00  0.00    +0.007 C 
ENDBRANCH   1   2
BRANCH   1   8
ATOM      8  C   LIG    1       27.036 -19.640   5.305  0.00  0.00    -0.005 A 
ATOM      9  C   LIG    1       27.430 -20.441   6.390  0.00  0.00    +0.007 A 
ATOM     10  C   LIG    1       28.632 -20.205   7.062  0.00  0.00    +0.000 A 
ATOM     11  C   LIG    1       29.475 -19.178   6.648  0.00  0.00    +0.000 A 
ATOM     12  C   LIG    1       29.134 -18.408   5.542  0.00  0.00    +0.000 A 
ATOM     13  C   LIG    1       27.930 -18.641   4.871  0.00  0.00    +0.007 A 
ENDBRANCH   1   8
BRANCH   1  14
ATOM     14  C   LIG    1       25.723 -19.332   3.194  0.00  0.00    +0.345 C 
ATOM     15  O   LIG    1       25.415 -20.090   2.265  0.00  0.00    -0.247 OA
BRANCH  14  16
ATOM     16  O   LIG    1       26.194 -18.069   3.036  0.00  0.00    -0.450 OA
BRANCH  16  17
ATOM     17  C   LIG    1       25.241 -17.034   3.260  0.00  0.00    +0.359 C 
BRANCH  17  20
ATOM     18  C   LIG    1       23.507 -14.861   4.293  0.00  0.00    +0.276 C 
ATOM     19  N   LIG    1       24.927 -14.641   4.086  0.00  0.00    -0.224 N 
ATOM     20  C   LIG    1       25.787 -15.608   3.572  0.00  0.00    +0.321 C 
ATOM     21  N   LIG    1       27.026 -15.401   3.267  0.00  0.00    -0.084 NA
ATOM     22  C   LIG    1       27.586 -14.066   3.475  0.00  0.00    +0.294 C 
ATOM     23  C   LIG    1       26.892 -13.314   4.595  0.00  0.00    +0.093 C 
ATOM     24  C   LIG    1       25.407 -13.284   4.300  0.00  0.00    +0.229 C 
ENDBRANCH  17  20
ENDBRANCH  16  17
ENDBRANCH  14  16
ENDBRANCH   1  14
BRANCH   1  25
ATOM     25  O   LIG    1       24.756 -18.816   5.349  0.00  0.00    -0.373 OA
ATOM     26  H   LIG    1       24.592 -18.104   4.697  0.00  0.00    +0.211 HD
ENDBRANCH   1  25
TORSDOF 7
ENDMDL
