MODEL 1
REMARK VINA RESULT:      16.6      0.000      0.000
REMARK  Name = *****
REMARK                            x       y       z     vdW  Elec       q    Type
REMARK                         _______ _______ _______ _____ _____    ______ ____
ROOT
ATOM      1  C   LIG    1       27.442 -19.066   4.301  0.00  0.00    +0.239 A 
ATOM      2  C   LIG    1       27.966 -19.909   5.262  0.00  0.00    +0.100 A 
ATOM      3  C   LIG    1       28.957 -19.394   6.095  0.00  0.00    +0.087 A 
ATOM      4  C   LIG    1       29.383 -20.351   7.062  0.00  0.00    +0.036 A 
ATOM      5  C   LIG    1       28.749 -21.565   6.914  0.00  0.00    +0.048 A 
ATOM      6  N   LIG    1       29.428 -18.124   5.999  0.00  0.00    -0.213 NA
ATOM      7  C   LIG    1       28.921 -17.399   5.003  0.00  0.00    +0.223 A 
ATOM      8  S   LIG    1       27.598 -21.537   5.651  0.00  0.00    -0.090 S 
ATOM      9  N   LIG    1       28.005 -17.857   4.148  0.00  0.00    -0.178 NA
ENDROOT
BRANCH   7  10
ATOM     10  N   LIG    1       29.300 -16.057   4.913  0.00  0.00    -0.283 N 
ATOM     11  H   LIG    1       30.282 -15.927   5.098  0.00  0.00    +0.155 HD
BRANCH  10  12
ATOM     12  C   LIG    1       28.520 -14.924   4.645  0.00  0.00    +0.034 A 
ATOM     13  C   LIG    1       28.692 -14.139   3.505  0.00  0.00    +0.025 A 
ATOM     14  C   LIG    1       27.820 -13.092   3.176  0.00  0.00    +0.025 A 
ATOM     15  C   LIG    1       26.740 -12.745   3.991  0.00  0.00    +0.030 A 
ATOM     16  C   LIG    1       26.564 -13.558   5.126  0.00  0.00    +0.025 A 
ATOM     17  C   LIG    1       27.427 -14.621   5.449  0.00  0.00    +0.025 A 
BRANCH  15  18
ATOM     18  N   LIG    1       25.850 -11.715   3.646  0.00  0.00    -0.328 N 
ATOM     19  C   LIG    1       25.499 -11.543   2.220  0.00  0.00    +0.120 C 
ATOM     20  C   LIG    1       24.439 -12.594   1.813  0.00  0.00    +0.103 C 
ATOM     21  N   LIG    1       23.188 -12.556   2.609  0.00  0.00    -0.302 NA
ATOM     22  C   LIG    1       22.331 -11.449   2.197  0.00  0.00    +0.105 C 
ATOM     23  C   LIG    1       23.503 -12.497   4.060  0.00  0.00    +0.103 C 
ATOM     24  C   LIG    1       24.632 -11.514   4.479  0.00  0.00    +0.120 C 
ENDBRANCH  15  18
ENDBRANCH  10  12
ENDBRANCH   7  10
BRANCH   1  25
ATOM     25  O   LIG    1       26.377 -19.433   3.484  0.00  0.00    -0.437 OA
BRANCH  25  28
ATOM     26  C   LIG    1       22.958 -18.981   4.956  0.00  0.00    +0.037 A 
ATOM     27  C   LIG    1       24.214 -18.669   4.425  0.00  0.00    +0.069 A 
ATOM     28  C   LIG    1       25.131 -19.657   4.045  0.00  0.00    +0.132 A 
ATOM     29  C   LIG    1       24.800 -20.990   4.292  0.00  0.00    +0.046 A 
ATOM     30  C   LIG    1       23.573 -21.315   4.882  0.00  0.00    +0.005 A 
ATOM     31  C   LIG    1       22.649 -20.312   5.201  0.00  0.00    +0.023 A 
BRANCH  26  33
ATOM     32  C   LIG    1       22.379 -16.552   5.112  0.00  0.00    +0.240 C 
ATOM     33  N   LIG    1       22.088 -17.895   5.183  0.00  0.00    -0.282 N 
ATOM     34  H   LIG    1       21.136 -18.136   5.437  0.00  0.00    +0.155 HD
ATOM     35  O   LIG    1       23.442 -16.028   4.800  0.00  0.00    -0.271 OA
BRANCH  32  37
ATOM     36  C   LIG    1       21.141 -14.967   6.485  0.00  0.00    +0.013 C 
ATOM     37  C   LIG    1       21.183 -15.732   5.388  0.00  0.00    +0.060 C 
ENDBRANCH  32  37
ENDBRANCH  26  33
ENDBRANCH  25  28
ENDBRANCH   1  25
TORSDOF 7
ENDMDL
MODEL 2
REMARK VINA RESULT:      16.7      2.631      8.360
REMARK  Name = *****
REMARK                            x       y       z     vdW  Elec       q    Type
REMARK                         _______ _______ _______ _____ _____    ______ ____
ROOT
ATOM      1  C   LIG    1       23.144 -13.937   3.838  0.00  0.00    +0.239 A 
ATOM      2  C   LIG    1       22.783 -13.142   4.909  0.00  0.00    +0.100 A 
ATOM      3  C   LIG    1       22.052 -13.741   5.933  0.00  0.00    +0.087 A 
ATOM      4  C   LIG    1       21.778 -12.824   6.991  0.00  0.00    +0.036 A 
ATOM      5  C   LIG    1       22.261 -11.561   6.729  0.00  0.00    +0.048 A 
ATOM      6  N   LIG    1       21.676 -15.046   5.919  0.00  0.00    -0.213 NA
ATOM      7  C   LIG    1       22.002 -15.723   4.820  0.00  0.00    +0.223 A 
ATOM      8  S   LIG    1       23.096 -11.490   5.240  0.00  0.00    -0.090 S 
ATOM      9  N   LIG    1       22.661 -15.189   3.790  0.00  0.00    -0.178 NA
ENDROOT
BRANCH   7  10
ATOM     10  N   LIG    1       21.724 -17.092   4.789  0.00  0.00    -0.283 N 
ATOM     11  H   LIG    1       20.734 -17.277   4.729  0.00  0.00    +0.155 HD
BRANCH  10  12
ATOM     12  C   LIG    1       22.598 -18.184   4.861  0.00  0.00    +0.034 A 
ATOM     13  C   LIG    1       23.784 -18.256   4.130  0.00  0.00    +0.025 A 
ATOM     14  C   LIG    1       24.718 -19.284   4.313  0.00  0.00    +0.025 A 
ATOM     15  C   LIG    1       24.505 -20.326   5.216  0.00  0.00    +0.030 A 
ATOM     16  C   LIG    1       23.316 -20.232   5.964  0.00  0.00    +0.025 A 
ATOM     17  C   LIG    1       22.385 -19.191   5.796  0.00  0.00    +0.025 A 
BRANCH  15  18
ATOM     18  N   LIG    1       25.454 -21.341   5.419  0.00  0.00    -0.328 N 
ATOM     19  C   LIG    1       26.536 -21.494   4.423  0.00  0.00    +0.120 C 
ATOM     20  C   LIG    1       27.627 -20.425   4.669  0.00  0.00    +0.103 C 
ATOM     21  N   LIG    1       28.232 -20.454   6.022  0.00  0.00    -0.302 NA
ATOM     22  C   LIG    1       29.193 -21.545   6.152  0.00  0.00    +0.105 C 
ATOM     23  C   LIG    1       27.170 -20.530   7.060  0.00  0.00    +0.103 C 
ATOM     24  C   LIG    1       26.014 -21.532   6.786  0.00  0.00    +0.120 C 
ENDBRANCH  15  18
ENDBRANCH  10  12
ENDBRANCH   7  10
BRANCH   1  25
ATOM     25  O   LIG    1       23.963 -13.479   2.810  0.00  0.00    -0.437 OA
BRANCH  25  28
ATOM     26  C   LIG    1       27.442 -14.581   3.674  0.00  0.00    +0.037 A 
ATOM     27  C   LIG    1       26.044 -14.567   3.606  0.00  0.00    +0.069 A 
ATOM     28  C   LIG    1       25.339 -13.550   2.950  0.00  0.00    +0.132 A 
ATOM     29  C   LIG    1       26.064 -12.478   2.429  0.00  0.00    +0.046 A 
ATOM     30  C   LIG    1       27.459 -12.446   2.547  0.00  0.00    +0.005 A 
ATOM     31  C   LIG    1       28.146 -13.503   3.157  0.00  0.00    +0.023 A 
BRANCH  26  33
ATOM     32  C   LIG    1       27.738 -17.044   4.003  0.00  0.00    +0.240 C 
ATOM     33  N   LIG    1       28.027 -15.723   4.258  0.00  0.00    -0.282 N 
ATOM     34  H   LIG    1       28.741 -15.546   4.956  0.00  0.00    +0.155 HD
ATOM     35  O   LIG    1       26.941 -17.495   3.189  0.00  0.00    -0.271 OA
BRANCH  32  37
ATOM     36  C   LIG    1       28.808 -17.682   6.095  0.00  0.00    +0.013 C 
ATOM     37  C   LIG    1       28.597 -17.942   4.800  0.00  0.00    +0.060 C 
ENDBRANCH  32  37
ENDBRANCH  26  33
ENDBRANCH  25  28
ENDBRANCH   1  25
TORSDOF 7
ENDMDL
MODEL 3
REMARK VINA RESULT:      17.1      2.468      5.800
REMARK  Name = *****
REMARK                            x       y       z     vdW  Elec       q    Type
REMARK                         _______ _______ _______ _____ _____    ______ ____
ROOT
ATOM      1  C   LIG    1       21.967 -19.778   4.998  0.00  0.00    +0.239 A 
ATOM      2  C   LIG    1       21.009 -19.865   4.005  0.00  0.00    +0.100 A 
ATOM      3  C   LIG    1       20.407 -18.679   3.590  0.00  0.00    +0.087 A 
ATOM      4  C   LIG    1       19.471 -18.904   2.539  0.00  0.00    +0.036 A 
ATOM      5  C   LIG    1       19.351 -20.237   2.217  0.00  0.00    +0.048 A 
ATOM      6  N   LIG    1       20.708 -17.464   4.117  0.00  0.00    -0.213 NA
ATOM      7  C   LIG    1       21.588 -17.475   5.116  0.00  0.00    +0.223 A 
ATOM      8  S   LIG    1       20.410 -21.215   3.136  0.00  0.00    -0.090 S 
ATOM      9  N   LIG    1       22.161 -18.586   5.584  0.00  0.00    -0.178 NA
ENDROOT
BRANCH   7  10
ATOM     10  N   LIG    1       22.005 -16.247   5.634  0.00  0.00    -0.283 N 
ATOM     11  H   LIG    1       21.604 -16.061   6.540  0.00  0.00    +0.155 HD
BRANCH  10  12
ATOM     12  C   LIG    1       22.840 -15.275   5.068  0.00  0.00    +0.034 A 
ATOM     13  C   LIG    1       23.031 -14.015   5.636  0.00  0.00    +0.025 A 
ATOM     14  C   LIG    1       23.972 -13.102   5.141  0.00  0.00    +0.025 A 
ATOM     15  C   LIG    1       24.756 -13.382   4.021  0.00  0.00    +0.030 A 
ATOM     16  C   LIG    1       24.571 -14.664   3.469  0.00  0.00    +0.025 A 
ATOM     17  C   LIG    1       23.640 -15.589   3.976  0.00  0.00    +0.025 A 
BRANCH  15  18
ATOM     18  N   LIG    1       25.719 -12.479   3.543  0.00  0.00    -0.328 N 
ATOM     19  C   LIG    1       26.377 -11.579   4.515  0.00  0.00    +0.120 C 
ATOM     20  C   LIG    1       27.480 -12.351   5.277  0.00  0.00    +0.103 C 
ATOM     21  N   LIG    1       28.527 -12.951   4.414  0.00  0.00    -0.302 NA
ATOM     22  C   LIG    1       29.474 -11.943   3.950  0.00  0.00    +0.105 C 
ATOM     23  C   LIG    1       27.904 -13.683   3.281  0.00  0.00    +0.103 C 
ATOM     24  C   LIG    1       26.729 -12.964   2.561  0.00  0.00    +0.120 C 
ENDBRANCH  15  18
ENDBRANCH  10  12
ENDBRANCH   7  10
BRANCH   1  25
ATOM     25  O   LIG    1       22.710 -20.877   5.418  0.00  0.00    -0.437 OA
BRANCH  25  28
ATOM     26  C   LIG    1       26.272 -19.706   5.464  0.00  0.00    +0.037 A 
ATOM     27  C   LIG    1       24.931 -19.827   5.083  0.00  0.00    +0.069 A 
ATOM     28  C   LIG    1       24.054 -20.720   5.711  0.00  0.00    +0.132 A 
ATOM     29  C   LIG    1       24.572 -21.572   6.688  0.00  0.00    +0.046 A 
ATOM     30  C   LIG    1       25.927 -21.507   7.034  0.00  0.00    +0.005 A 
ATOM     31  C   LIG    1       26.771 -20.566   6.431  0.00  0.00    +0.023 A 
BRANCH  26  33
ATOM     32  C   LIG    1       26.597 -17.844   3.824  0.00  0.00    +0.240 C 
ATOM     33  N   LIG    1       27.011 -18.685   4.830  0.00  0.00    -0.282 N 
ATOM     34  H   LIG    1       27.965 -18.565   5.153  0.00  0.00    +0.155 HD
ATOM     35  O   LIG    1       25.491 -17.786   3.299  0.00  0.00    -0.271 OA
BRANCH  32  37
ATOM     36  C   LIG    1       28.551 -16.500   4.375  0.00  0.00    +0.013 C 
ATOM     37  C   LIG    1       27.660 -16.888   3.455  0.00  0.00    +0.060 C 
ENDBRANCH  32  37
ENDBRANCH  26  33
ENDBRANCH  25  28
ENDBRANCH   1  25
TORSDOF 7
ENDMDL
