MODEL 1
REMARK VINA RESULT:      -7.2      0.000      0.000
REMARK  Name = *****
REMARK                            x       y       z     vdW  Elec       q    Type
REMARK                         _______ _______ _______ _____ _____    ______ ____
ROOT
ATOM      1  C   LIG    1       28.504 -20.364   6.338  0.00  0.00    +0.189 A 
ATOM      2  S   LIG    1       29.595 -19.068   6.554  0.00  0.00    -0.011 S 
ATOM      3  C   LIG    1       30.172 -19.924   7.914  0.00  0.00    +0.256 A 
ATOM      4  N   LIG    1       29.600 -21.089   8.140  0.00  0.00    -0.119 NA
ATOM      5  N   LIG    1       28.621 -21.339   7.208  0.00  0.00    -0.124 NA
ENDROOT
BRANCH   1   8
ATOM      6  C   LIG    1       25.647 -20.558   6.783  0.00  0.00    +0.109 C 
ATOM      7  C   LIG    1       26.267 -20.346   5.423  0.00  0.00    +0.216 C 
ATOM      8  N   LIG    1       27.624 -20.247   5.303  0.00  0.00    -0.264 N 
ATOM      9  H   LIG    1       27.976 -20.045   4.376  0.00  0.00    +0.157 HD
ATOM     10  O   LIG    1       25.565 -20.237   4.417  0.00  0.00    -0.276 OA
ENDBRANCH   1   8
BRANCH   3  11
ATOM     11  S   LIG    1       31.445 -19.244   8.915  0.00  0.00    +0.082 S 
ATOM     12  O   LIG    1       31.957 -18.112   8.186  0.00  0.00    -0.151 OA
ATOM     13  O   LIG    1       32.263 -20.366   9.320  0.00  0.00    -0.151 OA
BRANCH  11  14
ATOM     14  N   LIG    1       30.709 -18.642  10.314  0.00  0.00    -0.202 NA
ATOM     15  H   LIG    1       29.702 -18.809  10.307  0.00  0.00    +0.144 HD
ATOM     16  H   LIG    1       31.167 -18.989  11.157  0.00  0.00    +0.144 HD
ENDBRANCH  11  14
ENDBRANCH   3  11
TORSDOF 3
ENDMDL
MODEL 2
REMARK VINA RESULT:      -7.0      1.264      1.397
REMARK  Name = *****
REMARK                            x       y       z     vdW  Elec       q    Type
REMARK                         _______ _______ _______ _____ _____    ______ ____
ROOT
ATOM      1  C   LIG    1       27.879 -20.762   6.688  0.00  0.00    +0.189 A 
ATOM      2  S   LIG    1       29.102 -19.570   6.644  0.00  0.00    -0.011 S 
ATOM      3  C   LIG    1       29.760 -20.353   8.012  0.00  0.00    +0.256 A 
ATOM      4  N   LIG    1       29.116 -21.427   8.420  0.00  0.00    -0.119 NA
ATOM      5  N   LIG    1       28.013 -21.659   7.636  0.00  0.00    -0.124 NA
ENDROOT
BRANCH   1   8
ATOM      6  C   LIG    1       25.086 -20.730   7.462  0.00  0.00    +0.109 C 
ATOM      7  C   LIG    1       25.556 -20.648   6.030  0.00  0.00    +0.216 C 
ATOM      8  N   LIG    1       26.893 -20.650   5.752  0.00  0.00    -0.264 N 
ATOM      9  H   LIG    1       27.147 -20.532   4.780  0.00  0.00    +0.157 HD
ATOM     10  O   LIG    1       24.750 -20.555   5.103  0.00  0.00    -0.276 OA
ENDBRANCH   1   8
BRANCH   3  11
ATOM     11  S   LIG    1       31.202 -19.717   8.788  0.00  0.00    +0.082 S 
ATOM     12  O   LIG    1       30.745 -19.032   9.969  0.00  0.00    -0.151 OA
ATOM     13  O   LIG    1       31.958 -19.072   7.736  0.00  0.00    -0.151 OA
BRANCH  11  14
ATOM     14  N   LIG    1       32.114 -21.045   9.305  0.00  0.00    -0.202 NA
ATOM     15  H   LIG    1       31.531 -21.873   9.426  0.00  0.00    +0.144 HD
ATOM     16  H   LIG    1       32.918 -21.207   8.697  0.00  0.00    +0.144 HD
ENDBRANCH  11  14
ENDBRANCH   3  11
TORSDOF 3
ENDMDL
MODEL 3
REMARK VINA RESULT:      -6.7      1.425      1.546
REMARK  Name = *****
REMARK                            x       y       z     vdW  Elec       q    Type
REMARK                         _______ _______ _______ _____ _____    ______ ____
ROOT
ATOM      1  C   LIG    1       28.500 -19.960   6.347  0.00  0.00    +0.189 A 
ATOM      2  S   LIG    1       29.241 -20.520   7.781  0.00  0.00    -0.011 S 
ATOM      3  C   LIG    1       30.228 -19.129   7.683  0.00  0.00    +0.256 A 
ATOM      4  N   LIG    1       29.978 -18.322   6.673  0.00  0.00    -0.119 NA
ATOM      5  N   LIG    1       28.961 -18.818   5.894  0.00  0.00    -0.124 NA
ENDROOT
BRANCH   1   8
ATOM      6  C   LIG    1       26.017 -20.421   7.769  0.00  0.00    +0.109 C 
ATOM      7  C   LIG    1       26.340 -21.042   6.432  0.00  0.00    +0.216 C 
ATOM      8  N   LIG    1       27.527 -20.757   5.819  0.00  0.00    -0.264 N 
ATOM      9  H   LIG    1       27.661 -21.154   4.899  0.00  0.00    +0.157 HD
ATOM     10  O   LIG    1       25.538 -21.787   5.870  0.00  0.00    -0.276 OA
ENDBRANCH   1   8
BRANCH   3  11
ATOM     11  S   LIG    1       31.484 -18.849   8.878  0.00  0.00    +0.082 S 
ATOM     12  O   LIG    1       32.175 -17.659   8.452  0.00  0.00    -0.151 OA
ATOM     13  O   LIG    1       32.139 -20.126   9.062  0.00  0.00    -0.151 OA
BRANCH  11  14
ATOM     14  N   LIG    1       30.710 -18.479  10.336  0.00  0.00    -0.202 NA
ATOM     15  H   LIG    1       30.038 -17.719  10.219  0.00  0.00    +0.144 HD
ATOM     16  H   LIG    1       30.303 -19.310  10.765  0.00  0.00    +0.144 HD
ENDBRANCH  11  14
ENDBRANCH   3  11
TORSDOF 3
ENDMDL
MODEL 4
REMARK VINA RESULT:      -6.4      2.196      5.640
REMARK  Name = *****
REMARK                            x       y       z     vdW  Elec       q    Type
REMARK                         _______ _______ _______ _____ _____    ______ ____
ROOT
ATOM      1  C   LIG    1       29.438 -20.401   7.053  0.00  0.00    +0.189 A 
ATOM      2  S   LIG    1       28.094 -21.309   7.590  0.00  0.00    -0.011 S 
ATOM      3  C   LIG    1       27.220 -20.547   6.336  0.00  0.00    +0.256 A 
ATOM      4  N   LIG    1       27.910 -19.717   5.581  0.00  0.00    -0.119 NA
ATOM      5  N   LIG    1       29.212 -19.638   6.010  0.00  0.00    -0.124 NA
ENDROOT
BRANCH   1   8
ATOM      6  C   LIG    1       30.276 -18.393   8.969  0.00  0.00    +0.109 C 
ATOM      7  C   LIG    1       31.067 -19.644   8.672  0.00  0.00    +0.216 C 
ATOM      8  N   LIG    1       30.591 -20.550   7.767  0.00  0.00    -0.264 N 
ATOM      9  H   LIG    1       31.135 -21.396   7.655  0.00  0.00    +0.157 HD
ATOM     10  O   LIG    1       32.129 -19.874   9.251  0.00  0.00    -0.276 OA
ENDBRANCH   1   8
BRANCH   3  11
ATOM     11  S   LIG    1       25.509 -20.883   6.119  0.00  0.00    +0.082 S 
ATOM     12  O   LIG    1       25.097 -20.108   4.977  0.00  0.00    -0.151 OA
ATOM     13  O   LIG    1       24.915 -20.744   7.431  0.00  0.00    -0.151 OA
BRANCH  11  14
ATOM     14  N   LIG    1       25.374 -22.513   5.687  0.00  0.00    -0.202 NA
ATOM     15  H   LIG    1       25.122 -22.619   4.704  0.00  0.00    +0.144 HD
ATOM     16  H   LIG    1       26.209 -23.039   5.945  0.00  0.00    +0.144 HD
ENDBRANCH  11  14
ENDBRANCH   3  11
TORSDOF 3
ENDMDL
MODEL 5
REMARK VINA RESULT:      -6.4      2.173      5.463
REMARK  Name = *****
REMARK                            x       y       z     vdW  Elec       q    Type
REMARK                         _______ _______ _______ _____ _____    ______ ____
ROOT
ATOM      1  C   LIG    1       29.347 -20.444   7.403  0.00  0.00    +0.189 A 
ATOM      2  S   LIG    1       28.300 -19.994   6.130  0.00  0.00    -0.011 S 
ATOM      3  C   LIG    1       27.110 -20.921   6.931  0.00  0.00    +0.256 A 
ATOM      4  N   LIG    1       27.486 -21.478   8.063  0.00  0.00    -0.119 NA
ATOM      5  N   LIG    1       28.802 -21.192   8.332  0.00  0.00    -0.124 NA
ENDROOT
BRANCH   1   8
ATOM      6  C   LIG    1       30.174 -18.008   8.738  0.00  0.00    +0.109 C 
ATOM      7  C   LIG    1       31.097 -18.850   7.893  0.00  0.00    +0.216 C 
ATOM      8  N   LIG    1       30.633 -19.996   7.313  0.00  0.00    -0.264 N 
ATOM      9  H   LIG    1       31.314 -20.550   6.809  0.00  0.00    +0.157 HD
ATOM     10  O   LIG    1       32.277 -18.533   7.735  0.00  0.00    -0.276 OA
ENDBRANCH   1   8
BRANCH   3  11
ATOM     11  S   LIG    1       25.505 -21.090   6.237  0.00  0.00    +0.082 S 
ATOM     12  O   LIG    1       25.495 -20.262   5.059  0.00  0.00    -0.151 OA
ATOM     13  O   LIG    1       24.584 -20.916   7.339  0.00  0.00    -0.151 OA
BRANCH  11  14
ATOM     14  N   LIG    1       25.354 -22.694   5.719  0.00  0.00    -0.202 NA
ATOM     15  H   LIG    1       26.263 -23.100   5.494  0.00  0.00    +0.144 HD
ATOM     16  H   LIG    1       24.819 -23.253   6.384  0.00  0.00    +0.144 HD
ENDBRANCH  11  14
ENDBRANCH   3  11
TORSDOF 3
ENDMDL
MODEL 6
REMARK VINA RESULT:      -6.4      3.161      3.738
REMARK  Name = *****
REMARK                            x       y       z     vdW  Elec       q    Type
REMARK                         _______ _______ _______ _____ _____    ______ ____
ROOT
ATOM      1  C   LIG    1       25.417 -21.892   7.965  0.00  0.00    +0.189 A 
ATOM      2  S   LIG    1       26.783 -21.851   6.940  0.00  0.00    -0.011 S 
ATOM      3  C   LIG    1       27.392 -20.645   7.985  0.00  0.00    +0.256 A 
ATOM      4  N   LIG    1       26.631 -20.345   9.017  0.00  0.00    -0.119 NA
ATOM      5  N   LIG    1       25.472 -21.083   8.997  0.00  0.00    -0.124 NA
ENDROOT
BRANCH   1   8
ATOM      6  C   LIG    1       23.114 -20.930   6.490  0.00  0.00    +0.109 C 
ATOM      7  C   LIG    1       23.287 -22.365   6.923  0.00  0.00    +0.216 C 
ATOM      8  N   LIG    1       24.413 -22.741   7.599  0.00  0.00    -0.264 N 
ATOM      9  H   LIG    1       24.500 -23.726   7.809  0.00  0.00    +0.157 HD
ATOM     10  O   LIG    1       22.437 -23.215   6.655  0.00  0.00    -0.276 OA
ENDBRANCH   1   8
BRANCH   3  11
ATOM     11  S   LIG    1       28.939 -19.882   7.651  0.00  0.00    +0.082 S 
ATOM     12  O   LIG    1       29.218 -19.042   8.787  0.00  0.00    -0.151 OA
ATOM     13  O   LIG    1       28.843 -19.382   6.297  0.00  0.00    -0.151 OA
BRANCH  11  14
ATOM     14  N   LIG    1       30.105 -21.108   7.641  0.00  0.00    -0.202 NA
ATOM     15  H   LIG    1       30.374 -21.359   6.689  0.00  0.00    +0.144 HD
ATOM     16  H   LIG    1       30.902 -20.871   8.233  0.00  0.00    +0.144 HD
ENDBRANCH  11  14
ENDBRANCH   3  11
TORSDOF 3
ENDMDL
MODEL 7
REMARK VINA RESULT:      -6.2      1.966      2.335
REMARK  Name = *****
REMARK                            x       y       z     vdW  Elec       q    Type
REMARK                         _______ _______ _______ _____ _____    ______ ____
ROOT
ATOM      1  C   LIG    1       27.039 -20.654   6.907  0.00  0.00    +0.189 A 
ATOM      2  S   LIG    1       28.621 -20.405   6.312  0.00  0.00    -0.011 S 
ATOM      3  C   LIG    1       28.995 -19.815   7.871  0.00  0.00    +0.256 A 
ATOM      4  N   LIG    1       28.011 -19.846   8.744  0.00  0.00    -0.119 NA
ATOM      5  N   LIG    1       26.865 -20.340   8.169  0.00  0.00    -0.124 NA
ENDROOT
BRANCH   1   8
ATOM      6  C   LIG    1       25.895 -23.298   7.220  0.00  0.00    +0.109 C 
ATOM      7  C   LIG    1       25.557 -22.373   6.077  0.00  0.00    +0.216 C 
ATOM      8  N   LIG    1       26.127 -21.134   6.014  0.00  0.00    -0.264 N 
ATOM      9  H   LIG    1       25.816 -20.537   5.258  0.00  0.00    +0.157 HD
ATOM     10  O   LIG    1       24.753 -22.710   5.207  0.00  0.00    -0.276 OA
ENDBRANCH   1   8
BRANCH   3  11
ATOM     11  S   LIG    1       30.607 -19.214   8.227  0.00  0.00    +0.082 S 
ATOM     12  O   LIG    1       30.962 -19.770   9.506  0.00  0.00    -0.151 OA
ATOM     13  O   LIG    1       30.559 -17.792   7.964  0.00  0.00    -0.151 OA
BRANCH  11  14
ATOM     14  N   LIG    1       31.654 -19.890   7.083  0.00  0.00    -0.202 NA
ATOM     15  H   LIG    1       31.306 -19.754   6.133  0.00  0.00    +0.144 HD
ATOM     16  H   LIG    1       32.611 -19.559   7.210  0.00  0.00    +0.144 HD
ENDBRANCH  11  14
ENDBRANCH   3  11
TORSDOF 3
ENDMDL
MODEL 8
REMARK VINA RESULT:      -6.2      2.947      3.608
REMARK  Name = *****
REMARK                            x       y       z     vdW  Elec       q    Type
REMARK                         _______ _______ _______ _____ _____    ______ ____
ROOT
ATOM      1  C   LIG    1       25.032 -20.615   7.197  0.00  0.00    +0.189 A 
ATOM      2  S   LIG    1       26.503 -20.566   6.329  0.00  0.00    -0.011 S 
ATOM      3  C   LIG    1       27.272 -20.528   7.854  0.00  0.00    +0.256 A 
ATOM      4  N   LIG    1       26.472 -20.582   8.899  0.00  0.00    -0.119 NA
ATOM      5  N   LIG    1       25.158 -20.633   8.503  0.00  0.00    -0.124 NA
ENDROOT
BRANCH   1   8
ATOM      6  C   LIG    1       23.511 -23.050   6.799  0.00  0.00    +0.109 C 
ATOM      7  C   LIG    1       23.129 -21.720   6.198  0.00  0.00    +0.216 C 
ATOM      8  N   LIG    1       23.890 -20.615   6.450  0.00  0.00    -0.264 N 
ATOM      9  H   LIG    1       23.551 -19.742   6.069  0.00  0.00    +0.157 HD
ATOM     10  O   LIG    1       22.122 -21.608   5.496  0.00  0.00    -0.276 OA
ENDBRANCH   1   8
BRANCH   3  11
ATOM     11  S   LIG    1       29.022 -20.419   7.960  0.00  0.00    +0.082 S 
ATOM     12  O   LIG    1       29.464 -21.680   8.498  0.00  0.00    -0.151 OA
ATOM     13  O   LIG    1       29.296 -19.145   8.590  0.00  0.00    -0.151 OA
BRANCH  11  14
ATOM     14  N   LIG    1       29.611 -20.321   6.377  0.00  0.00    -0.202 NA
ATOM     15  H   LIG    1       30.407 -19.684   6.315  0.00  0.00    +0.144 HD
ATOM     16  H   LIG    1       29.808 -21.246   5.993  0.00  0.00    +0.144 HD
ENDBRANCH  11  14
ENDBRANCH   3  11
TORSDOF 3
ENDMDL
MODEL 9
REMARK VINA RESULT:      -6.2      2.428      5.490
REMARK  Name = *****
REMARK                            x       y       z     vdW  Elec       q    Type
REMARK                         _______ _______ _______ _____ _____    ______ ____
ROOT
ATOM      1  C   LIG    1       30.932 -19.558   8.701  0.00  0.00    +0.189 A 
ATOM      2  S   LIG    1       29.680 -18.976   7.696  0.00  0.00    -0.011 S 
ATOM      3  C   LIG    1       28.973 -20.521   7.869  0.00  0.00    +0.256 A 
ATOM      4  N   LIG    1       29.625 -21.364   8.643  0.00  0.00    -0.119 NA
ATOM      5  N   LIG    1       30.775 -20.789   9.128  0.00  0.00    -0.124 NA
ENDROOT
BRANCH   1   8
ATOM      6  C   LIG    1       30.787 -17.624  10.855  0.00  0.00    +0.109 C 
ATOM      7  C   LIG    1       31.966 -17.745   9.921  0.00  0.00    +0.216 C 
ATOM      8  N   LIG    1       31.963 -18.697   8.942  0.00  0.00    -0.264 N 
ATOM      9  H   LIG    1       32.805 -18.769   8.386  0.00  0.00    +0.157 HD
ATOM     10  O   LIG    1       32.946 -17.009  10.040  0.00  0.00    -0.276 OA
ENDBRANCH   1   8
BRANCH   3  11
ATOM     11  S   LIG    1       27.474 -20.908   7.039  0.00  0.00    +0.082 S 
ATOM     12  O   LIG    1       26.459 -20.098   7.662  0.00  0.00    -0.151 OA
ATOM     13  O   LIG    1       27.418 -22.353   6.988  0.00  0.00    -0.151 OA
BRANCH  11  14
ATOM     14  N   LIG    1       27.634 -20.366   5.445  0.00  0.00    -0.202 NA
ATOM     15  H   LIG    1       27.491 -21.124   4.777  0.00  0.00    +0.144 HD
ATOM     16  H   LIG    1       27.040 -19.555   5.264  0.00  0.00    +0.144 HD
ENDBRANCH  11  14
ENDBRANCH   3  11
TORSDOF 3
ENDMDL
