MODEL 1
REMARK VINA RESULT:       6.0      0.000      0.000
REMARK  Name = *****
REMARK                            x       y       z     vdW  Elec       q    Type
REMARK                         _______ _______ _______ _____ _____    ______ ____
ROOT
ATOM      1  N   LIG    1       23.111 -16.096   4.631  0.00  0.00    -0.302 N 
ATOM      2  H   LIG    1       23.727 -16.315   3.855  0.00  0.00    +0.149 HD
ATOM      3  C   LIG    1       23.010 -14.764   5.007  0.00  0.00    +0.299 C 
ATOM      4  O   LIG    1       22.363 -14.359   5.949  0.00  0.00    -0.265 OA
ENDROOT
BRANCH   3   5
ATOM      5  C   LIG    1       23.897 -13.818   4.180  0.00  0.00    +0.299 C 
ATOM      6  N   LIG    1       24.610 -14.440   3.174  0.00  0.00    -0.302 N 
ATOM      7  H   LIG    1       24.532 -15.458   3.122  0.00  0.00    +0.149 HD
ATOM      8  O   LIG    1       23.853 -12.618   4.389  0.00  0.00    -0.265 OA
BRANCH   6   9
ATOM      9  C   LIG    1       25.510 -13.768   2.240  0.00  0.00    +0.155 C 
BRANCH   9  10
ATOM     10  C   LIG    1       26.861 -13.328   2.840  0.00  0.00    +0.152 C 
BRANCH  10  11
ATOM     11  N   LIG    1       27.563 -14.303   3.816  0.00  0.00    +0.247 N 
BRANCH  11  12
ATOM     12  C   LIG    1       26.751 -14.449   5.138  0.00  0.00    +0.130 C 
ATOM     13  C   LIG    1       27.003 -13.352   6.172  0.00  0.00    +0.060 C 
ENDBRANCH  11  12
BRANCH  11  14
ATOM     14  C   LIG    1       28.947 -13.674   4.159  0.00  0.00    +0.130 C 
ATOM     15  C   LIG    1       29.016 -12.157   4.011  0.00  0.00    +0.060 C 
ENDBRANCH  11  14
BRANCH  11  16
ATOM     16  C   LIG    1       27.715 -15.701   3.123  0.00  0.00    +0.171 C 
BRANCH  16  17
ATOM     17  C   LIG    1       27.879 -16.966   3.939  0.00  0.00    +0.015 A 
ATOM     18  C   LIG    1       26.888 -17.963   4.038  0.00  0.00    +0.049 A 
ATOM     19 CL   LIG    1       25.350 -17.840   3.274  0.00  0.00    -0.083 Cl
ATOM     20  C   LIG    1       27.061 -19.081   4.860  0.00  0.00    +0.020 A 
ATOM     21  C   LIG    1       28.204 -19.207   5.642  0.00  0.00    +0.001 A 
ATOM     22  C   LIG    1       29.169 -18.209   5.611  0.00  0.00    +0.001 A 
ATOM     23  C   LIG    1       29.011 -17.103   4.768  0.00  0.00    +0.010 A 
ENDBRANCH  16  17
ENDBRANCH  11  16
ENDBRANCH  10  11
ENDBRANCH   9  10
ENDBRANCH   6   9
ENDBRANCH   3   5
BRANCH   1  24
ATOM     24  C   LIG    1       22.354 -17.162   5.302  0.00  0.00    +0.155 C 
BRANCH  24  25
ATOM     25  C   LIG    1       21.113 -17.554   4.469  0.00  0.00    +0.152 C 
BRANCH  25  26
ATOM     26  N   LIG    1       21.139 -18.875   3.657  0.00  0.00    +0.247 N 
BRANCH  26  28
ATOM     27  C   LIG    1       20.810 -21.350   4.347  0.00  0.00    +0.060 C 
ATOM     28  C   LIG    1       20.285 -19.915   4.463  0.00  0.00    +0.130 C 
ENDBRANCH  26  28
BRANCH  26  29
ATOM     29  C   LIG    1       20.505 -18.627   2.250  0.00  0.00    +0.130 C 
ATOM     30  C   LIG    1       19.350 -17.621   2.244  0.00  0.00    +0.060 C 
ENDBRANCH  26  29
BRANCH  26  31
ATOM     31  C   LIG    1       22.590 -19.466   3.441  0.00  0.00    +0.171 C 
BRANCH  31  32
ATOM     32  C   LIG    1       23.315 -20.164   4.582  0.00  0.00    +0.015 A 
ATOM     33  C   LIG    1       24.477 -20.938   4.378  0.00  0.00    +0.049 A 
ATOM     34 CL   LIG    1       25.221 -21.100   2.825  0.00  0.00    -0.083 Cl
ATOM     35  C   LIG    1       25.131 -21.571   5.447  0.00  0.00    +0.020 A 
ATOM     36  C   LIG    1       24.669 -21.409   6.750  0.00  0.00    +0.001 A 
ATOM     37  C   LIG    1       23.581 -20.582   6.986  0.00  0.00    +0.001 A 
ATOM     38  C   LIG    1       22.926 -19.964   5.917  0.00  0.00    +0.010 A 
ENDBRANCH  31  32
ENDBRANCH  26  31
ENDBRANCH  25  26
ENDBRANCH  24  25
ENDBRANCH   1  24
TORSDOF 15
ENDMDL
