MODEL 1
REMARK VINA RESULT:      -7.9      0.000      0.000
REMARK  Name = *****
REMARK                            x       y       z     vdW  Elec       q    Type
REMARK                         _______ _______ _______ _____ _____    ______ ____
ROOT
ATOM      1  C   LIG    1       26.073 -21.470   7.096  0.00  0.00    +0.086 C 
ENDROOT
BRANCH   1   2
ATOM      2  C   LIG    1       25.005 -20.894   6.126  0.00  0.00    -0.027 A 
ATOM      3  C   LIG    1       25.296 -20.686   4.762  0.00  0.00    +0.005 A 
ATOM      4  C   LIG    1       24.354 -20.116   3.894  0.00  0.00    +0.000 A 
ATOM      5  C   LIG    1       23.096 -19.752   4.364  0.00  0.00    +0.000 A 
ATOM      6  C   LIG    1       22.776 -19.965   5.698  0.00  0.00    +0.000 A 
ATOM      7  C   LIG    1       23.715 -20.529   6.567  0.00  0.00    +0.005 A 
ENDBRANCH   1   2
BRANCH   1   9
ATOM      8  C   LIG    1       28.662 -21.589   7.538  0.00  0.00    +0.009 C 
ATOM      9  C   LIG    1       27.544 -21.182   6.549  0.00  0.00    +0.007 C 
ATOM     10  C   LIG    1       27.771 -19.712   6.155  0.00  0.00    +0.009 C 
ENDBRANCH   1   9
BRANCH   1  11
ATOM     11  C   LIG    1       26.016 -20.845   8.449  0.00  0.00    +0.074 C 
ATOM     12  N   LIG    1       25.976 -20.375   9.504  0.00  0.00    -0.196 NA
ENDBRANCH   1  11
BRANCH   1  13
ATOM     13  C   LIG    1       25.901 -23.026   7.224  0.00  0.00    +0.045 C 
BRANCH  13  14
ATOM     14  C   LIG    1       25.078 -23.814   6.163  0.00  0.00    +0.055 C 
ATOM     15  C   LIG    1       23.665 -24.183   6.641  0.00  0.00    +0.024 C 
BRANCH  14  16
ATOM     16  N   LIG    1       25.767 -25.047   5.685  0.00  0.00    -0.306 NA
ATOM     17  C   LIG    1       25.159 -25.685   4.516  0.00  0.00    +0.105 C 
ATOM     18  C   LIG    1       25.994 -26.038   6.737  0.00  0.00    +0.105 C 
ENDBRANCH  14  16
ENDBRANCH  13  14
ENDBRANCH   1  13
TORSDOF 6
ENDMDL
MODEL 2
REMARK VINA RESULT:      -7.5      1.664      3.785
REMARK  Name = *****
REMARK                            x       y       z     vdW  Elec       q    Type
REMARK                         _______ _______ _______ _____ _____    ______ ____
ROOT
ATOM      1  C   LIG    1       25.907 -21.407   6.486  0.00  0.00    +0.086 C 
ENDROOT
BRANCH   1   2
ATOM      2  C   LIG    1       27.347 -20.825   6.518  0.00  0.00    -0.027 A 
ATOM      3  C   LIG    1       28.321 -21.338   7.400  0.00  0.00    +0.005 A 
ATOM      4  C   LIG    1       29.606 -20.782   7.470  0.00  0.00    +0.000 A 
ATOM      5  C   LIG    1       29.953 -19.710   6.654  0.00  0.00    +0.000 A 
ATOM      6  C   LIG    1       29.020 -19.199   5.762  0.00  0.00    +0.000 A 
ATOM      7  C   LIG    1       27.736 -19.749   5.693  0.00  0.00    +0.005 A 
ENDBRANCH   1   2
BRANCH   1   9
ATOM      8  C   LIG    1       25.291 -21.144   9.029  0.00  0.00    +0.009 C 
ATOM      9  C   LIG    1       24.988 -20.694   7.579  0.00  0.00    +0.007 C 
ATOM     10  C   LIG    1       23.482 -20.885   7.328  0.00  0.00    +0.009 C 
ENDBRANCH   1   9
BRANCH   1  11
ATOM     11  C   LIG    1       25.226 -21.183   5.179  0.00  0.00    +0.074 C 
ATOM     12  N   LIG    1       24.697 -20.994   4.169  0.00  0.00    -0.196 NA
ENDBRANCH   1  11
BRANCH   1  13
ATOM     13  C   LIG    1       25.939 -22.943   6.810  0.00  0.00    +0.045 C 
BRANCH  13  14
ATOM     14  C   LIG    1       25.107 -23.943   5.954  0.00  0.00    +0.055 C 
ATOM     15  C   LIG    1       23.755 -24.306   6.585  0.00  0.00    +0.024 C 
BRANCH  14  16
ATOM     16  N   LIG    1       25.848 -25.198   5.636  0.00  0.00    -0.306 NA
ATOM     17  C   LIG    1       25.309 -25.971   4.515  0.00  0.00    +0.105 C 
ATOM     18  C   LIG    1       26.053 -26.068   6.793  0.00  0.00    +0.105 C 
ENDBRANCH  14  16
ENDBRANCH  13  14
ENDBRANCH   1  13
TORSDOF 6
ENDMDL
MODEL 3
REMARK VINA RESULT:      -7.4      1.680      4.787
REMARK  Name = *****
REMARK                            x       y       z     vdW  Elec       q    Type
REMARK                         _______ _______ _______ _____ _____    ______ ____
ROOT
ATOM      1  C   LIG    1       25.812 -21.439   7.044  0.00  0.00    +0.086 C 
ENDROOT
BRANCH   1   2
ATOM      2  C   LIG    1       25.351 -22.908   6.837  0.00  0.00    -0.027 A 
ATOM      3  C   LIG    1       26.286 -23.943   6.629  0.00  0.00    +0.005 A 
ATOM      4  C   LIG    1       25.874 -25.261   6.390  0.00  0.00    +0.000 A 
ATOM      5  C   LIG    1       24.520 -25.580   6.364  0.00  0.00    +0.000 A 
ATOM      6  C   LIG    1       23.578 -24.585   6.587  0.00  0.00    +0.000 A 
ATOM      7  C   LIG    1       23.987 -23.268   6.822  0.00  0.00    +0.005 A 
ENDBRANCH   1   2
BRANCH   1   9
ATOM      8  C   LIG    1       23.402 -20.453   6.677  0.00  0.00    +0.009 C 
ATOM      9  C   LIG    1       24.881 -20.437   6.222  0.00  0.00    +0.007 C 
ATOM     10  C   LIG    1       24.912 -20.683   4.703  0.00  0.00    +0.009 C 
ENDBRANCH   1   9
BRANCH   1  11
ATOM     11  C   LIG    1       25.718 -21.003   8.466  0.00  0.00    +0.074 C 
ATOM     12  N   LIG    1       25.652 -20.678   9.573  0.00  0.00    -0.196 NA
ENDBRANCH   1  11
BRANCH   1  13
ATOM     13  C   LIG    1       27.285 -21.260   6.531  0.00  0.00    +0.045 C 
BRANCH  13  14
ATOM     14  C   LIG    1       28.067 -19.948   6.834  0.00  0.00    +0.055 C 
ATOM     15  C   LIG    1       28.844 -19.410   5.623  0.00  0.00    +0.024 C 
BRANCH  14  16
ATOM     16  N   LIG    1       28.998 -20.076   7.991  0.00  0.00    -0.306 NA
ATOM     17  C   LIG    1       30.018 -19.029   8.088  0.00  0.00    +0.105 C 
ATOM     18  C   LIG    1       29.622 -21.395   8.101  0.00  0.00    +0.105 C 
ENDBRANCH  14  16
ENDBRANCH  13  14
ENDBRANCH   1  13
TORSDOF 6
ENDMDL
MODEL 4
REMARK VINA RESULT:      -7.1      1.762      4.843
REMARK  Name = *****
REMARK                            x       y       z     vdW  Elec       q    Type
REMARK                         _______ _______ _______ _____ _____    ______ ____
ROOT
ATOM      1  C   LIG    1       24.777 -21.545   5.843  0.00  0.00    +0.086 C 
ENDROOT
BRANCH   1   2
ATOM      2  C   LIG    1       25.065 -23.071   5.883  0.00  0.00    -0.027 A 
ATOM      3  C   LIG    1       24.841 -23.885   4.753  0.00  0.00    +0.005 A 
ATOM      4  C   LIG    1       25.049 -25.270   4.799  0.00  0.00    +0.000 A 
ATOM      5  C   LIG    1       25.496 -25.875   5.970  0.00  0.00    +0.000 A 
ATOM      6  C   LIG    1       25.744 -25.095   7.091  0.00  0.00    +0.000 A 
ATOM      7  C   LIG    1       25.534 -23.712   7.049  0.00  0.00    +0.005 A 
ENDBRANCH   1   2
BRANCH   1   9
ATOM      8  C   LIG    1       24.667 -20.066   3.672  0.00  0.00    +0.009 C 
ATOM      9  C   LIG    1       23.973 -21.159   4.520  0.00  0.00    +0.007 C 
ATOM     10  C   LIG    1       22.530 -20.699   4.796  0.00  0.00    +0.009 C 
ENDBRANCH   1   9
BRANCH   1  11
ATOM     11  C   LIG    1       23.925 -21.092   6.980  0.00  0.00    +0.074 C 
ATOM     12  N   LIG    1       23.271 -20.753   7.870  0.00  0.00    -0.196 NA
ENDBRANCH   1  11
BRANCH   1  13
ATOM     13  C   LIG    1       26.126 -20.742   5.840  0.00  0.00    +0.045 C 
BRANCH  13  14
ATOM     14  C   LIG    1       27.224 -21.047   6.902  0.00  0.00    +0.055 C 
ATOM     15  C   LIG    1       26.933 -20.420   8.274  0.00  0.00    +0.024 C 
BRANCH  14  16
ATOM     16  N   LIG    1       28.591 -20.645   6.462  0.00  0.00    -0.306 NA
ATOM     17  C   LIG    1       29.598 -20.603   7.525  0.00  0.00    +0.105 C 
ATOM     18  C   LIG    1       28.619 -19.400   5.694  0.00  0.00    +0.105 C 
ENDBRANCH  14  16
ENDBRANCH  13  14
ENDBRANCH   1  13
TORSDOF 6
ENDMDL
MODEL 5
REMARK VINA RESULT:      -7.0      2.021      3.734
REMARK  Name = *****
REMARK                            x       y       z     vdW  Elec       q    Type
REMARK                         _______ _______ _______ _____ _____    ______ ____
ROOT
ATOM      1  C   LIG    1       25.291 -22.323   6.457  0.00  0.00    +0.086 C 
ENDROOT
BRANCH   1   2
ATOM      2  C   LIG    1       26.563 -21.459   6.676  0.00  0.00    -0.027 A 
ATOM      3  C   LIG    1       26.914 -20.436   5.771  0.00  0.00    +0.005 A 
ATOM      4  C   LIG    1       28.089 -19.689   5.935  0.00  0.00    +0.000 A 
ATOM      5  C   LIG    1       28.935 -19.937   7.012  0.00  0.00    +0.000 A 
ATOM      6  C   LIG    1       28.602 -20.924   7.930  0.00  0.00    +0.000 A 
ATOM      7  C   LIG    1       27.433 -21.674   7.766  0.00  0.00    +0.005 A 
ENDBRANCH   1   2
BRANCH   1   9
ATOM      8  C   LIG    1       22.820 -22.684   7.278  0.00  0.00    +0.009 C 
ATOM      9  C   LIG    1       24.120 -21.860   7.436  0.00  0.00    +0.007 C 
ATOM     10  C   LIG    1       23.758 -20.371   7.292  0.00  0.00    +0.009 C 
ENDBRANCH   1   9
BRANCH   1  11
ATOM     11  C   LIG    1       24.740 -22.193   5.077  0.00  0.00    +0.074 C 
ATOM     12  N   LIG    1       24.327 -22.094   4.003  0.00  0.00    -0.196 NA
ENDBRANCH   1  11
BRANCH   1  13
ATOM     13  C   LIG    1       25.606 -23.832   6.760  0.00  0.00    +0.045 C 
BRANCH  13  14
ATOM     14  C   LIG    1       25.309 -24.926   5.693  0.00  0.00    +0.055 C 
ATOM     15  C   LIG    1       23.881 -25.487   5.779  0.00  0.00    +0.024 C 
BRANCH  14  16
ATOM     16  N   LIG    1       26.279 -26.057   5.728  0.00  0.00    -0.306 NA
ATOM     17  C   LIG    1       26.179 -26.998   4.610  0.00  0.00    +0.105 C 
ATOM     18  C   LIG    1       26.287 -26.785   6.998  0.00  0.00    +0.105 C 
ENDBRANCH  14  16
ENDBRANCH  13  14
ENDBRANCH   1  13
TORSDOF 6
ENDMDL
MODEL 6
REMARK VINA RESULT:      -6.8      1.763      5.299
REMARK  Name = *****
REMARK                            x       y       z     vdW  Elec       q    Type
REMARK                         _______ _______ _______ _____ _____    ______ ____
ROOT
ATOM      1  C   LIG    1       25.010 -23.052   6.358  0.00  0.00    +0.086 C 
ENDROOT
BRANCH   1   2
ATOM      2  C   LIG    1       25.294 -24.546   6.039  0.00  0.00    -0.027 A 
ATOM      3  C   LIG    1       25.771 -25.425   7.033  0.00  0.00    +0.005 A 
ATOM      4  C   LIG    1       26.080 -26.760   6.738  0.00  0.00    +0.000 A 
ATOM      5  C   LIG    1       25.908 -27.253   5.448  0.00  0.00    +0.000 A 
ATOM      6  C   LIG    1       25.420 -26.414   4.455  0.00  0.00    +0.000 A 
ATOM      7  C   LIG    1       25.115 -25.080   4.746  0.00  0.00    +0.005 A 
ENDBRANCH   1   2
BRANCH   1   9
ATOM      8  C   LIG    1       22.414 -23.380   6.619  0.00  0.00    +0.009 C 
ATOM      9  C   LIG    1       23.725 -22.911   7.294  0.00  0.00    +0.007 C 
ATOM     10  C   LIG    1       23.505 -21.480   7.816  0.00  0.00    +0.009 C 
ENDBRANCH   1   9
BRANCH   1  11
ATOM     11  C   LIG    1       26.126 -22.402   7.104  0.00  0.00    +0.074 C 
ATOM     12  N   LIG    1       27.001 -21.906   7.672  0.00  0.00    -0.196 NA
ENDBRANCH   1  11
BRANCH   1  13
ATOM     13  C   LIG    1       24.729 -22.262   5.030  0.00  0.00    +0.045 C 
BRANCH  13  14
ATOM     14  C   LIG    1       24.606 -20.710   5.052  0.00  0.00    +0.055 C 
ATOM     15  C   LIG    1       23.226 -20.203   4.605  0.00  0.00    +0.024 C 
BRANCH  14  16
ATOM     16  N   LIG    1       25.659 -20.028   4.247  0.00  0.00    -0.306 NA
ATOM     17  C   LIG    1       26.880 -19.688   4.980  0.00  0.00    +0.105 C 
ATOM     18  C   LIG    1       25.173 -18.859   3.512  0.00  0.00    +0.105 C 
ENDBRANCH  14  16
ENDBRANCH  13  14
ENDBRANCH   1  13
TORSDOF 6
ENDMDL
MODEL 7
REMARK VINA RESULT:      -6.7      1.980      4.938
REMARK  Name = *****
REMARK                            x       y       z     vdW  Elec       q    Type
REMARK                         _______ _______ _______ _____ _____    ______ ____
ROOT
ATOM      1  C   LIG    1       24.777 -21.688   6.371  0.00  0.00    +0.086 C 
ENDROOT
BRANCH   1   2
ATOM      2  C   LIG    1       26.273 -21.279   6.461  0.00  0.00    -0.027 A 
ATOM      3  C   LIG    1       27.139 -21.882   7.398  0.00  0.00    +0.005 A 
ATOM      4  C   LIG    1       28.476 -21.480   7.520  0.00  0.00    +0.000 A 
ATOM      5  C   LIG    1       28.985 -20.475   6.702  0.00  0.00    +0.000 A 
ATOM      6  C   LIG    1       28.161 -19.880   5.756  0.00  0.00    +0.000 A 
ATOM      7  C   LIG    1       26.825 -20.277   5.636  0.00  0.00    +0.005 A 
ENDBRANCH   1   2
BRANCH   1   9
ATOM      8  C   LIG    1       25.105 -24.030   5.221  0.00  0.00    +0.009 C 
ATOM      9  C   LIG    1       24.619 -23.272   6.480  0.00  0.00    +0.007 C 
ATOM     10  C   LIG    1       23.177 -23.721   6.777  0.00  0.00    +0.009 C 
ENDBRANCH   1   9
BRANCH   1  11
ATOM     11  C   LIG    1       23.960 -21.123   7.483  0.00  0.00    +0.074 C 
ATOM     12  N   LIG    1       23.339 -20.687   8.354  0.00  0.00    -0.196 NA
ENDBRANCH   1  11
BRANCH   1  13
ATOM     13  C   LIG    1       24.178 -21.236   4.991  0.00  0.00    +0.045 C 
BRANCH  13  14
ATOM     14  C   LIG    1       22.889 -20.363   4.943  0.00  0.00    +0.055 C 
ATOM     15  C   LIG    1       21.617 -21.173   4.649  0.00  0.00    +0.024 C 
BRANCH  14  16
ATOM     16  N   LIG    1       22.982 -19.235   3.974  0.00  0.00    -0.306 NA
ATOM     17  C   LIG    1       24.343 -18.862   3.583  0.00  0.00    +0.105 C 
ATOM     18  C   LIG    1       22.234 -18.046   4.383  0.00  0.00    +0.105 C 
ENDBRANCH  14  16
ENDBRANCH  13  14
ENDBRANCH   1  13
TORSDOF 6
ENDMDL
MODEL 8
REMARK VINA RESULT:      -6.4      1.921      4.271
REMARK  Name = *****
REMARK                            x       y       z     vdW  Elec       q    Type
REMARK                         _______ _______ _______ _____ _____    ______ ____
ROOT
ATOM      1  C   LIG    1       24.334 -20.747   5.005  0.00  0.00    +0.086 C 
ENDROOT
BRANCH   1   2
ATOM      2  C   LIG    1       25.319 -20.667   6.204  0.00  0.00    -0.027 A 
ATOM      3  C   LIG    1       24.855 -20.730   7.534  0.00  0.00    +0.005 A 
ATOM      4  C   LIG    1       25.733 -20.604   8.619  0.00  0.00    +0.000 A 
ATOM      5  C   LIG    1       27.096 -20.427   8.403  0.00  0.00    +0.000 A 
ATOM      6  C   LIG    1       27.583 -20.383   7.104  0.00  0.00    +0.000 A 
ATOM      7  C   LIG    1       26.708 -20.503   6.019  0.00  0.00    +0.005 A 
ENDBRANCH   1   2
BRANCH   1   9
ATOM      8  C   LIG    1       21.752 -21.241   5.019  0.00  0.00    +0.009 C 
ATOM      9  C   LIG    1       22.877 -20.266   5.442  0.00  0.00    +0.007 C 
ATOM     10  C   LIG    1       22.514 -18.866   4.915  0.00  0.00    +0.009 C 
ENDBRANCH   1   9
BRANCH   1  11
ATOM     11  C   LIG    1       24.731 -19.859   3.876  0.00  0.00    +0.074 C 
ATOM     12  N   LIG    1       25.026 -19.174   2.993  0.00  0.00    -0.196 NA
ENDBRANCH   1  11
BRANCH   1  13
ATOM     13  C   LIG    1       24.222 -22.229   4.498  0.00  0.00    +0.045 C 
BRANCH  13  14
ATOM     14  C   LIG    1       25.032 -23.361   5.196  0.00  0.00    +0.055 C 
ATOM     15  C   LIG    1       24.993 -24.695   4.434  0.00  0.00    +0.024 C 
BRANCH  14  16
ATOM     16  N   LIG    1       24.616 -23.595   6.608  0.00  0.00    -0.306 NA
ATOM     17  C   LIG    1       25.574 -24.344   7.423  0.00  0.00    +0.105 C 
ATOM     18  C   LIG    1       23.281 -24.179   6.738  0.00  0.00    +0.105 C 
ENDBRANCH  14  16
ENDBRANCH  13  14
ENDBRANCH   1  13
TORSDOF 6
ENDMDL
MODEL 9
REMARK VINA RESULT:      -6.4      1.626      4.857
REMARK  Name = *****
REMARK                            x       y       z     vdW  Elec       q    Type
REMARK                         _______ _______ _______ _____ _____    ______ ____
ROOT
ATOM      1  C   LIG    1       25.322 -21.436   6.039  0.00  0.00    +0.086 C 
ENDROOT
BRANCH   1   2
ATOM      2  C   LIG    1       25.312 -22.990   6.021  0.00  0.00    -0.027 A 
ATOM      3  C   LIG    1       25.780 -23.734   7.124  0.00  0.00    +0.005 A 
ATOM      4  C   LIG    1       25.824 -25.135   7.092  0.00  0.00    +0.000 A 
ATOM      5  C   LIG    1       25.390 -25.826   5.965  0.00  0.00    +0.000 A 
ATOM      6  C   LIG    1       24.904 -25.119   4.873  0.00  0.00    +0.000 A 
ATOM      7  C   LIG    1       24.864 -23.721   4.901  0.00  0.00    +0.005 A 
ENDBRANCH   1   2
BRANCH   1   9
ATOM      8  C   LIG    1       24.457 -19.778   4.191  0.00  0.00    +0.009 C 
ATOM      9  C   LIG    1       24.073 -20.857   5.232  0.00  0.00    +0.007 C 
ATOM     10  C   LIG    1       22.978 -20.270   6.142  0.00  0.00    +0.009 C 
ENDBRANCH   1   9
BRANCH   1  11
ATOM     11  C   LIG    1       25.207 -20.878   7.417  0.00  0.00    +0.074 C 
ATOM     12  N   LIG    1       25.102 -20.443   8.482  0.00  0.00    -0.196 NA
ENDBRANCH   1  11
BRANCH   1  13
ATOM     13  C   LIG    1       26.630 -20.898   5.357  0.00  0.00    +0.045 C 
BRANCH  13  14
ATOM     14  C   LIG    1       27.627 -20.013   6.162  0.00  0.00    +0.055 C 
ATOM     15  C   LIG    1       28.144 -18.804   5.367  0.00  0.00    +0.024 C 
BRANCH  14  16
ATOM     16  N   LIG    1       28.790 -20.779   6.694  0.00  0.00    -0.306 NA
ATOM     17  C   LIG    1       28.544 -21.489   7.951  0.00  0.00    +0.105 C 
ATOM     18  C   LIG    1       30.017 -19.988   6.797  0.00  0.00    +0.105 C 
ENDBRANCH  14  16
ENDBRANCH  13  14
ENDBRANCH   1  13
TORSDOF 6
ENDMDL
