MODEL 1
REMARK VINA RESULT:      -8.0      0.000      0.000
REMARK  Name = *****
REMARK                            x       y       z     vdW  Elec       q    Type
REMARK                         _______ _______ _______ _____ _____    ______ ____
ROOT
ATOM      1  N   LIG    1       26.489 -22.227   6.796  0.00  0.00    -0.341 N 
ATOM      2  H   LIG    1       27.160 -22.505   6.087  0.00  0.00    +0.146 HD
ENDROOT
BRANCH   1   3
ATOM      3  C   LIG    1       25.292 -22.970   6.677  0.00  0.00    +0.038 A 
ATOM      4  C   LIG    1       25.316 -24.380   6.418  0.00  0.00    +0.021 A 
ATOM      5  C   LIG    1       24.072 -25.062   6.359  0.00  0.00    +0.074 A 
ATOM      6  C   LIG    1       24.025 -26.410   6.064  0.00  0.00    +0.048 A 
ATOM      7  C   LIG    1       25.184 -27.137   5.830  0.00  0.00    +0.043 A 
ATOM      8  C   LIG    1       26.421 -26.519   5.907  0.00  0.00    +0.021 A 
ATOM      9 CL   LIG    1       25.080 -28.813   5.453  0.00  0.00    -0.084 Cl
ATOM     10  N   LIG    1       22.894 -24.459   6.580  0.00  0.00    -0.255 NA
ATOM     11  C   LIG    1       22.904 -23.152   6.877  0.00  0.00    +0.113 A 
ATOM     12  C   LIG    1       26.489 -25.151   6.203  0.00  0.00    +0.013 A 
ATOM     13  C   LIG    1       24.050 -22.383   6.932  0.00  0.00    +0.043 A 
ENDBRANCH   1   3
BRANCH   1  14
ATOM     14  C   LIG    1       26.456 -20.760   6.985  0.00  0.00    +0.067 C 
ATOM     15  C   LIG    1       26.639 -20.416   8.467  0.00  0.00    +0.027 C 
BRANCH  14  16
ATOM     16  C   LIG    1       27.590 -20.140   6.136  0.00  0.00    +0.023 C 
BRANCH  16  17
ATOM     17  C   LIG    1       28.989 -20.727   6.394  0.00  0.00    +0.017 C 
BRANCH  17  18
ATOM     18  C   LIG    1       29.990 -19.592   6.680  0.00  0.00    +0.084 C 
BRANCH  18  19
ATOM     19  N   LIG    1       31.036 -19.907   7.671  0.00  0.00    -0.303 NA
BRANCH  19  21
ATOM     20  C   LIG    1       30.650 -17.734   8.970  0.00  0.00    +0.020 C 
ATOM     21  C   LIG    1       31.622 -18.715   8.314  0.00  0.00    +0.081 C 
ENDBRANCH  19  21
BRANCH  19  22
ATOM     22  C   LIG    1       30.511 -20.888   8.643  0.00  0.00    +0.081 C 
ATOM     23  C   LIG    1       31.500 -21.981   9.037  0.00  0.00    +0.020 C 
ENDBRANCH  19  22
ENDBRANCH  18  19
ENDBRANCH  17  18
ENDBRANCH  16  17
ENDBRANCH  14  16
ENDBRANCH   1  14
TORSDOF 8
ENDMDL
MODEL 2
REMARK VINA RESULT:      -8.0      0.521      1.495
REMARK  Name = *****
REMARK                            x       y       z     vdW  Elec       q    Type
REMARK                         _______ _______ _______ _____ _____    ______ ____
ROOT
ATOM      1  N   LIG    1       26.387 -22.160   6.547  0.00  0.00    -0.341 N 
ATOM      2  H   LIG    1       26.981 -22.373   5.751  0.00  0.00    +0.146 HD
ENDROOT
BRANCH   1   3
ATOM      3  C   LIG    1       25.205 -22.936   6.516  0.00  0.00    +0.038 A 
ATOM      4  C   LIG    1       25.256 -24.360   6.361  0.00  0.00    +0.021 A 
ATOM      5  C   LIG    1       24.028 -25.072   6.387  0.00  0.00    +0.074 A 
ATOM      6  C   LIG    1       24.005 -26.439   6.193  0.00  0.00    +0.048 A 
ATOM      7  C   LIG    1       25.175 -27.156   5.982  0.00  0.00    +0.043 A 
ATOM      8  C   LIG    1       26.399 -26.506   5.978  0.00  0.00    +0.021 A 
ATOM      9 CL   LIG    1       25.101 -28.857   5.733  0.00  0.00    -0.084 Cl
ATOM     10  N   LIG    1       22.841 -24.480   6.595  0.00  0.00    -0.255 NA
ATOM     11  C   LIG    1       22.829 -23.155   6.795  0.00  0.00    +0.113 A 
ATOM     12  C   LIG    1       26.441 -25.119   6.171  0.00  0.00    +0.013 A 
ATOM     13  C   LIG    1       23.956 -22.359   6.761  0.00  0.00    +0.043 A 
ENDBRANCH   1   3
BRANCH   1  14
ATOM     14  C   LIG    1       26.334 -20.708   6.828  0.00  0.00    +0.067 C 
ATOM     15  C   LIG    1       26.453 -20.460   8.335  0.00  0.00    +0.027 C 
BRANCH  14  16
ATOM     16  C   LIG    1       27.497 -20.029   6.069  0.00  0.00    +0.023 C 
BRANCH  16  17
ATOM     17  C   LIG    1       28.901 -20.535   6.445  0.00  0.00    +0.017 C 
BRANCH  17  18
ATOM     18  C   LIG    1       29.727 -19.387   7.055  0.00  0.00    +0.084 C 
BRANCH  18  19
ATOM     19  N   LIG    1       30.063 -19.540   8.484  0.00  0.00    -0.303 NA
BRANCH  19  21
ATOM     20  C   LIG    1       31.022 -21.821   9.140  0.00  0.00    +0.020 C 
ATOM     21  C   LIG    1       31.259 -20.368   8.727  0.00  0.00    +0.081 C 
ENDBRANCH  19  21
BRANCH  19  22
ATOM     22  C   LIG    1       30.146 -18.206   9.112  0.00  0.00    +0.081 C 
ATOM     23  C   LIG    1       31.544 -17.592   9.114  0.00  0.00    +0.020 C 
ENDBRANCH  19  22
ENDBRANCH  18  19
ENDBRANCH  17  18
ENDBRANCH  16  17
ENDBRANCH  14  16
ENDBRANCH   1  14
TORSDOF 8
ENDMDL
MODEL 3
REMARK VINA RESULT:      -7.8      3.963      8.614
REMARK  Name = *****
REMARK                            x       y       z     vdW  Elec       q    Type
REMARK                         _______ _______ _______ _____ _____    ______ ____
ROOT
ATOM      1  N   LIG    1       28.077 -20.145   7.725  0.00  0.00    -0.341 N 
ATOM      2  H   LIG    1       28.050 -19.840   6.756  0.00  0.00    +0.146 HD
ENDROOT
BRANCH   1   3
ATOM      3  C   LIG    1       29.411 -20.263   8.180  0.00  0.00    +0.038 A 
ATOM      4  C   LIG    1       30.152 -19.115   8.614  0.00  0.00    +0.021 A 
ATOM      5  C   LIG    1       31.469 -19.324   9.100  0.00  0.00    +0.074 A 
ATOM      6  C   LIG    1       32.253 -18.255   9.486  0.00  0.00    +0.048 A 
ATOM      7  C   LIG    1       31.774 -16.953   9.424  0.00  0.00    +0.043 A 
ATOM      8  C   LIG    1       30.484 -16.705   8.985  0.00  0.00    +0.021 A 
ATOM      9 CL   LIG    1       32.787 -15.647   9.904  0.00  0.00    -0.084 Cl
ATOM     10  N   LIG    1       32.025 -20.540   9.212  0.00  0.00    -0.255 NA
ATOM     11  C   LIG    1       31.290 -21.601   8.853  0.00  0.00    +0.113 A 
ATOM     12  C   LIG    1       29.676 -17.777   8.586  0.00  0.00    +0.013 A 
ATOM     13  C   LIG    1       30.010 -21.515   8.340  0.00  0.00    +0.043 A 
ENDBRANCH   1   3
BRANCH   1  14
ATOM     14  C   LIG    1       27.084 -21.207   8.000  0.00  0.00    +0.067 C 
ATOM     15  C   LIG    1       25.901 -20.630   8.784  0.00  0.00    +0.027 C 
BRANCH  14  16
ATOM     16  C   LIG    1       26.613 -21.788   6.648  0.00  0.00    +0.023 C 
BRANCH  16  17
ATOM     17  C   LIG    1       25.703 -20.859   5.824  0.00  0.00    +0.017 C 
BRANCH  17  18
ATOM     18  C   LIG    1       24.603 -21.684   5.129  0.00  0.00    +0.084 C 
BRANCH  18  19
ATOM     19  N   LIG    1       23.273 -21.624   5.764  0.00  0.00    -0.303 NA
BRANCH  19  21
ATOM     20  C   LIG    1       23.403 -24.012   6.679  0.00  0.00    +0.020 C 
ATOM     21  C   LIG    1       23.127 -22.528   6.921  0.00  0.00    +0.081 C 
ENDBRANCH  19  21
BRANCH  19  22
ATOM     22  C   LIG    1       22.944 -20.220   6.083  0.00  0.00    +0.081 C 
ATOM     23  C   LIG    1       22.481 -19.391   4.888  0.00  0.00    +0.020 C 
ENDBRANCH  19  22
ENDBRANCH  18  19
ENDBRANCH  17  18
ENDBRANCH  16  17
ENDBRANCH  14  16
ENDBRANCH   1  14
TORSDOF 8
ENDMDL
MODEL 4
REMARK VINA RESULT:      -7.7      3.802      4.783
REMARK  Name = *****
REMARK                            x       y       z     vdW  Elec       q    Type
REMARK                         _______ _______ _______ _____ _____    ______ ____
ROOT
ATOM      1  N   LIG    1       28.402 -20.916   6.099  0.00  0.00    -0.341 N 
ATOM      2  H   LIG    1       28.283 -21.030   5.097  0.00  0.00    +0.146 HD
ENDROOT
BRANCH   1   3
ATOM      3  C   LIG    1       27.159 -21.003   6.768  0.00  0.00    +0.038 A 
ATOM      4  C   LIG    1       25.939 -20.616   6.122  0.00  0.00    +0.021 A 
ATOM      5  C   LIG    1       24.729 -20.777   6.845  0.00  0.00    +0.074 A 
ATOM      6  C   LIG    1       23.526 -20.377   6.299  0.00  0.00    +0.048 A 
ATOM      7  C   LIG    1       23.463 -19.822   5.028  0.00  0.00    +0.043 A 
ATOM      8  C   LIG    1       24.615 -19.674   4.274  0.00  0.00    +0.021 A 
ATOM      9 CL   LIG    1       21.945 -19.325   4.387  0.00  0.00    -0.084 Cl
ATOM     10  N   LIG    1       24.675 -21.313   8.075  0.00  0.00    -0.255 NA
ATOM     11  C   LIG    1       25.824 -21.719   8.633  0.00  0.00    +0.113 A 
ATOM     12  C   LIG    1       25.845 -20.071   4.814  0.00  0.00    +0.013 A 
ATOM     13  C   LIG    1       27.062 -21.585   8.035  0.00  0.00    +0.043 A 
ENDBRANCH   1   3
BRANCH   1  14
ATOM     14  C   LIG    1       29.367 -19.842   6.425  0.00  0.00    +0.067 C 
ATOM     15  C   LIG    1       29.106 -18.616   5.545  0.00  0.00    +0.027 C 
BRANCH  14  16
ATOM     16  C   LIG    1       29.203 -19.486   7.920  0.00  0.00    +0.023 C 
BRANCH  16  17
ATOM     17  C   LIG    1       30.113 -18.351   8.421  0.00  0.00    +0.017 C 
BRANCH  17  18
ATOM     18  C   LIG    1       31.017 -18.864   9.557  0.00  0.00    +0.084 C 
BRANCH  18  19
ATOM     19  N   LIG    1       31.851 -17.839  10.214  0.00  0.00    -0.303 NA
BRANCH  19  21
ATOM     20  C   LIG    1       32.958 -15.562   9.832  0.00  0.00    +0.020 C 
ATOM     21  C   LIG    1       32.499 -16.908   9.271  0.00  0.00    +0.081 C 
ENDBRANCH  19  21
BRANCH  19  22
ATOM     22  C   LIG    1       31.054 -17.151  11.250  0.00  0.00    +0.081 C 
ATOM     23  C   LIG    1       31.779 -16.953  12.579  0.00  0.00    +0.020 C 
ENDBRANCH  19  22
ENDBRANCH  18  19
ENDBRANCH  17  18
ENDBRANCH  16  17
ENDBRANCH  14  16
ENDBRANCH   1  14
TORSDOF 8
ENDMDL
MODEL 5
REMARK VINA RESULT:      -7.6      1.467      2.412
REMARK  Name = *****
REMARK                            x       y       z     vdW  Elec       q    Type
REMARK                         _______ _______ _______ _____ _____    ______ ____
ROOT
ATOM      1  N   LIG    1       26.929 -21.383   7.938  0.00  0.00    -0.341 N 
ATOM      2  H   LIG    1       27.245 -22.002   8.679  0.00  0.00    +0.146 HD
ENDROOT
BRANCH   1   3
ATOM      3  C   LIG    1       25.636 -21.746   7.494  0.00  0.00    +0.038 A 
ATOM      4  C   LIG    1       25.332 -23.096   7.117  0.00  0.00    +0.021 A 
ATOM      5  C   LIG    1       23.999 -23.388   6.727  0.00  0.00    +0.074 A 
ATOM      6  C   LIG    1       23.654 -24.657   6.305  0.00  0.00    +0.048 A 
ATOM      7  C   LIG    1       24.590 -25.680   6.262  0.00  0.00    +0.043 A 
ATOM      8  C   LIG    1       25.896 -25.448   6.662  0.00  0.00    +0.021 A 
ATOM      9 CL   LIG    1       24.122 -27.244   5.718  0.00  0.00    -0.084 Cl
ATOM     10  N   LIG    1       23.014 -22.477   6.742  0.00  0.00    -0.255 NA
ATOM     11  C   LIG    1       23.313 -21.237   7.154  0.00  0.00    +0.113 A 
ATOM     12  C   LIG    1       26.265 -24.166   7.091  0.00  0.00    +0.013 A 
ATOM     13  C   LIG    1       24.580 -20.833   7.527  0.00  0.00    +0.043 A 
ENDBRANCH   1   3
BRANCH   1  14
ATOM     14  C   LIG    1       28.007 -21.080   6.971  0.00  0.00    +0.067 C 
ATOM     15  C   LIG    1       27.508 -20.078   5.925  0.00  0.00    +0.027 C 
BRANCH  14  16
ATOM     16  C   LIG    1       29.207 -20.501   7.754  0.00  0.00    +0.023 C 
BRANCH  16  17
ATOM     17  C   LIG    1       29.868 -19.269   7.110  0.00  0.00    +0.017 C 
BRANCH  17  18
ATOM     18  C   LIG    1       31.145 -18.893   7.885  0.00  0.00    +0.084 C 
BRANCH  18  19
ATOM     19  N   LIG    1       31.127 -17.564   8.526  0.00  0.00    -0.303 NA
BRANCH  19  21
ATOM     20  C   LIG    1       30.337 -17.788  10.950  0.00  0.00    +0.020 C 
ATOM     21  C   LIG    1       30.037 -17.391   9.505  0.00  0.00    +0.081 C 
ENDBRANCH  19  21
BRANCH  19  22
ATOM     22  C   LIG    1       32.462 -17.274   9.089  0.00  0.00    +0.081 C 
ATOM     23  C   LIG    1       32.663 -15.827   9.529  0.00  0.00    +0.020 C 
ENDBRANCH  19  22
ENDBRANCH  18  19
ENDBRANCH  17  18
ENDBRANCH  16  17
ENDBRANCH  14  16
ENDBRANCH   1  14
TORSDOF 8
ENDMDL
MODEL 6
REMARK VINA RESULT:      -7.5      2.997      4.349
REMARK  Name = *****
REMARK                            x       y       z     vdW  Elec       q    Type
REMARK                         _______ _______ _______ _____ _____    ______ ____
ROOT
ATOM      1  N   LIG    1       26.693 -21.777   6.202  0.00  0.00    -0.341 N 
ATOM      2  H   LIG    1       27.054 -22.009   5.282  0.00  0.00    +0.146 HD
ENDROOT
BRANCH   1   3
ATOM      3  C   LIG    1       25.300 -22.011   6.272  0.00  0.00    +0.038 A 
ATOM      4  C   LIG    1       24.369 -21.152   5.600  0.00  0.00    +0.021 A 
ATOM      5  C   LIG    1       22.990 -21.481   5.680  0.00  0.00    +0.074 A 
ATOM      6  C   LIG    1       22.039 -20.668   5.097  0.00  0.00    +0.048 A 
ATOM      7  C   LIG    1       22.401 -19.518   4.409  0.00  0.00    +0.043 A 
ATOM      8  C   LIG    1       23.736 -19.173   4.280  0.00  0.00    +0.021 A 
ATOM      9 CL   LIG    1       21.183 -18.524   3.708  0.00  0.00    -0.084 Cl
ATOM     10  N   LIG    1       22.533 -22.575   6.310  0.00  0.00    -0.255 NA
ATOM     11  C   LIG    1       23.430 -23.391   6.880  0.00  0.00    +0.113 A 
ATOM     12  C   LIG    1       24.715 -19.986   4.867  0.00  0.00    +0.013 A 
ATOM     13  C   LIG    1       24.791 -23.155   6.890  0.00  0.00    +0.043 A 
ENDBRANCH   1   3
BRANCH   1  14
ATOM     14  C   LIG    1       27.280 -20.525   6.730  0.00  0.00    +0.067 C 
ATOM     15  C   LIG    1       27.050 -20.432   8.242  0.00  0.00    +0.027 C 
BRANCH  14  16
ATOM     16  C   LIG    1       28.791 -20.528   6.406  0.00  0.00    +0.023 C 
BRANCH  16  17
ATOM     17  C   LIG    1       29.422 -19.135   6.233  0.00  0.00    +0.017 C 
BRANCH  17  18
ATOM     18  C   LIG    1       30.644 -18.993   7.158  0.00  0.00    +0.084 C 
BRANCH  18  19
ATOM     19  N   LIG    1       30.408 -19.334   8.574  0.00  0.00    -0.303 NA
BRANCH  19  21
ATOM     20  C   LIG    1       30.991 -21.773   9.090  0.00  0.00    +0.020 C 
ATOM     21  C   LIG    1       31.383 -20.296   9.123  0.00  0.00    +0.081 C 
ENDBRANCH  19  21
BRANCH  19  22
ATOM     22  C   LIG    1       30.311 -18.092   9.367  0.00  0.00    +0.081 C 
ATOM     23  C   LIG    1       31.643 -17.383   9.599  0.00  0.00    +0.020 C 
ENDBRANCH  19  22
ENDBRANCH  18  19
ENDBRANCH  17  18
ENDBRANCH  16  17
ENDBRANCH  14  16
ENDBRANCH   1  14
TORSDOF 8
ENDMDL
MODEL 7
REMARK VINA RESULT:      -7.3      4.061      8.689
REMARK  Name = *****
REMARK                            x       y       z     vdW  Elec       q    Type
REMARK                         _______ _______ _______ _____ _____    ______ ____
ROOT
ATOM      1  N   LIG    1       28.032 -19.835   8.222  0.00  0.00    -0.341 N 
ATOM      2  H   LIG    1       27.406 -19.057   8.408  0.00  0.00    +0.146 HD
ENDROOT
BRANCH   1   3
ATOM      3  C   LIG    1       29.337 -19.374   7.932  0.00  0.00    +0.038 A 
ATOM      4  C   LIG    1       30.076 -18.591   8.879  0.00  0.00    +0.021 A 
ATOM      5  C   LIG    1       31.397 -18.208   8.531  0.00  0.00    +0.074 A 
ATOM      6  C   LIG    1       32.143 -17.412   9.377  0.00  0.00    +0.048 A 
ATOM      7  C   LIG    1       31.632 -16.978  10.592  0.00  0.00    +0.043 A 
ATOM      8  C   LIG    1       30.358 -17.353  10.987  0.00  0.00    +0.021 A 
ATOM      9 CL   LIG    1       32.590 -15.977  11.614  0.00  0.00    -0.084 Cl
ATOM     10  N   LIG    1       31.992 -18.581   7.387  0.00  0.00    -0.255 NA
ATOM     11  C   LIG    1       31.299 -19.361   6.545  0.00  0.00    +0.113 A 
ATOM     12  C   LIG    1       29.586 -18.158  10.139  0.00  0.00    +0.013 A 
ATOM     13  C   LIG    1       29.999 -19.770   6.766  0.00  0.00    +0.043 A 
ENDBRANCH   1   3
BRANCH   1  14
ATOM     14  C   LIG    1       27.391 -20.875   7.387  0.00  0.00    +0.067 C 
ATOM     15  C   LIG    1       26.981 -22.069   8.257  0.00  0.00    +0.027 C 
BRANCH  14  16
ATOM     16  C   LIG    1       26.154 -20.249   6.703  0.00  0.00    +0.023 C 
BRANCH  16  17
ATOM     17  C   LIG    1       25.899 -20.724   5.261  0.00  0.00    +0.017 C 
BRANCH  17  18
ATOM     18  C   LIG    1       24.679 -21.663   5.227  0.00  0.00    +0.084 C 
BRANCH  18  19
ATOM     19  N   LIG    1       23.541 -21.252   6.071  0.00  0.00    -0.303 NA
BRANCH  19  21
ATOM     20  C   LIG    1       22.507 -19.303   4.772  0.00  0.00    +0.020 C 
ATOM     21  C   LIG    1       22.392 -20.731   5.305  0.00  0.00    +0.081 C 
ENDBRANCH  19  21
BRANCH  19  22
ATOM     22  C   LIG    1       23.177 -22.361   6.976  0.00  0.00    +0.081 C 
ATOM     23  C   LIG    1       23.824 -23.699   6.630  0.00  0.00    +0.020 C 
ENDBRANCH  19  22
ENDBRANCH  18  19
ENDBRANCH  17  18
ENDBRANCH  16  17
ENDBRANCH  14  16
ENDBRANCH   1  14
TORSDOF 8
ENDMDL
MODEL 8
REMARK VINA RESULT:      -7.2      3.139      4.512
REMARK  Name = *****
REMARK                            x       y       z     vdW  Elec       q    Type
REMARK                         _______ _______ _______ _____ _____    ______ ____
ROOT
ATOM      1  N   LIG    1       27.048 -21.247   6.012  0.00  0.00    -0.341 N 
ATOM      2  H   LIG    1       27.280 -21.079   5.038  0.00  0.00    +0.146 HD
ENDROOT
BRANCH   1   3
ATOM      3  C   LIG    1       25.688 -21.608   6.152  0.00  0.00    +0.038 A 
ATOM      4  C   LIG    1       24.650 -20.854   5.511  0.00  0.00    +0.021 A 
ATOM      5  C   LIG    1       23.314 -21.309   5.662  0.00  0.00    +0.074 A 
ATOM      6  C   LIG    1       22.265 -20.600   5.111  0.00  0.00    +0.048 A 
ATOM      7  C   LIG    1       22.485 -19.437   4.387  0.00  0.00    +0.043 A 
ATOM      8  C   LIG    1       23.775 -18.972   4.188  0.00  0.00    +0.021 A 
ATOM      9 CL   LIG    1       21.149 -18.576   3.727  0.00  0.00    -0.084 Cl
ATOM     10  N   LIG    1       22.991 -22.427   6.331  0.00  0.00    -0.255 NA
ATOM     11  C   LIG    1       23.986 -23.143   6.872  0.00  0.00    +0.113 A 
ATOM     12  C   LIG    1       24.851 -19.677   4.742  0.00  0.00    +0.013 A 
ATOM     13  C   LIG    1       25.317 -22.781   6.814  0.00  0.00    +0.043 A 
ENDBRANCH   1   3
BRANCH   1  14
ATOM     14  C   LIG    1       27.664 -20.246   6.911  0.00  0.00    +0.067 C 
ATOM     15  C   LIG    1       27.102 -20.396   8.329  0.00  0.00    +0.027 C 
BRANCH  14  16
ATOM     16  C   LIG    1       29.194 -20.469   6.903  0.00  0.00    +0.023 C 
BRANCH  16  17
ATOM     17  C   LIG    1       30.028 -19.231   6.530  0.00  0.00    +0.017 C 
BRANCH  17  18
ATOM     18  C   LIG    1       31.136 -19.009   7.576  0.00  0.00    +0.084 C 
BRANCH  18  19
ATOM     19  N   LIG    1       31.034 -17.758   8.350  0.00  0.00    -0.303 NA
BRANCH  19  21
ATOM     20  C   LIG    1       30.217 -17.824  10.776  0.00  0.00    +0.020 C 
ATOM     21  C   LIG    1       29.893 -17.730   9.285  0.00  0.00    +0.081 C 
ENDBRANCH  19  21
BRANCH  19  22
ATOM     22  C   LIG    1       32.327 -17.482   9.009  0.00  0.00    +0.081 C 
ATOM     23  C   LIG    1       32.555 -16.016   9.368  0.00  0.00    +0.020 C 
ENDBRANCH  19  22
ENDBRANCH  18  19
ENDBRANCH  17  18
ENDBRANCH  16  17
ENDBRANCH  14  16
ENDBRANCH   1  14
TORSDOF 8
ENDMDL
MODEL 9
REMARK VINA RESULT:      -7.2      4.374      8.817
REMARK  Name = *****
REMARK                            x       y       z     vdW  Elec       q    Type
REMARK                         _______ _______ _______ _____ _____    ______ ____
ROOT
ATOM      1  N   LIG    1       28.022 -19.845   8.296  0.00  0.00    -0.341 N 
ATOM      2  H   LIG    1       27.410 -19.071   8.534  0.00  0.00    +0.146 HD
ENDROOT
BRANCH   1   3
ATOM      3  C   LIG    1       29.321 -19.383   7.979  0.00  0.00    +0.038 A 
ATOM      4  C   LIG    1       30.070 -18.582   8.902  0.00  0.00    +0.021 A 
ATOM      5  C   LIG    1       31.384 -18.198   8.528  0.00  0.00    +0.074 A 
ATOM      6  C   LIG    1       32.138 -17.385   9.351  0.00  0.00    +0.048 A 
ATOM      7  C   LIG    1       31.643 -16.934  10.567  0.00  0.00    +0.043 A 
ATOM      8  C   LIG    1       30.377 -17.309  10.986  0.00  0.00    +0.021 A 
ATOM      9 CL   LIG    1       32.611 -15.913  11.557  0.00  0.00    -0.084 Cl
ATOM     10  N   LIG    1       31.964 -18.587   7.382  0.00  0.00    -0.255 NA
ATOM     11  C   LIG    1       31.262 -19.383   6.563  0.00  0.00    +0.113 A 
ATOM     12  C   LIG    1       29.597 -18.131  10.163  0.00  0.00    +0.013 A 
ATOM     13  C   LIG    1       29.967 -19.795   6.810  0.00  0.00    +0.043 A 
ENDBRANCH   1   3
BRANCH   1  14
ATOM     14  C   LIG    1       27.344 -20.847   7.444  0.00  0.00    +0.067 C 
ATOM     15  C   LIG    1       26.960 -22.074   8.278  0.00  0.00    +0.027 C 
BRANCH  14  16
ATOM     16  C   LIG    1       26.086 -20.187   6.833  0.00  0.00    +0.023 C 
BRANCH  16  17
ATOM     17  C   LIG    1       25.952 -20.334   5.307  0.00  0.00    +0.017 C 
BRANCH  17  18
ATOM     18  C   LIG    1       25.014 -21.508   4.973  0.00  0.00    +0.084 C 
BRANCH  18  19
ATOM     19  N   LIG    1       23.615 -21.137   4.683  0.00  0.00    -0.303 NA
BRANCH  19  21
ATOM     20  C   LIG    1       23.126 -22.407   6.851  0.00  0.00    +0.020 C 
ATOM     21  C   LIG    1       22.692 -21.378   5.807  0.00  0.00    +0.081 C 
ENDBRANCH  19  21
BRANCH  19  22
ATOM     22  C   LIG    1       23.571 -19.747   4.186  0.00  0.00    +0.081 C 
ATOM     23  C   LIG    1       22.391 -18.927   4.701  0.00  0.00    +0.020 C 
ENDBRANCH  19  22
ENDBRANCH  18  19
ENDBRANCH  17  18
ENDBRANCH  16  17
ENDBRANCH  14  16
ENDBRANCH   1  14
TORSDOF 8
ENDMDL
