MODEL 1
REMARK VINA RESULT:      -7.6      0.000      0.000
REMARK  Name = *****
REMARK                            x       y       z     vdW  Elec       q    Type
REMARK                         _______ _______ _______ _____ _____    ______ ____
ROOT
ATOM      1  N   LIG    1       27.280 -20.376   6.513  0.00  0.00    -0.290 NA
ENDROOT
BRANCH   1   2
ATOM      2  C   LIG    1       26.280 -20.345   5.403  0.00  0.00    +0.100 C 
BRANCH   2   3
ATOM      3  C   LIG    1       24.800 -20.279   5.876  0.00  0.00    +0.101 C 
BRANCH   3   4
ATOM      4  N   LIG    1       23.649 -21.145   5.610  0.00  0.00    -0.283 NA
BRANCH   4   5
ATOM      5  C   LIG    1       22.629 -20.620   4.692  0.00  0.00    +0.206 C 
BRANCH   5   6
ATOM      6  C   LIG    1       22.780 -19.180   4.297  0.00  0.00    +0.319 C 
ATOM      7  O   LIG    1       22.171 -18.223   4.813  0.00  0.00    -0.250 OA
BRANCH   6   8
ATOM      8  O   LIG    1       23.664 -18.937   3.330  0.00  0.00    -0.480 OA
ATOM      9  H   LIG    1       24.451 -18.593   3.813  0.00  0.00    +0.295 HD
ENDBRANCH   6   8
ENDBRANCH   5   6
ENDBRANCH   4   5
BRANCH   4  10
ATOM     10  C   LIG    1       23.225 -22.022   6.741  0.00  0.00    +0.181 C 
BRANCH  10  11
ATOM     11  C   LIG    1       23.711 -23.569   6.619  0.00  0.00    +0.227 C 
ATOM     12  N   LIG    1       25.018 -23.818   6.280  0.00  0.00    -0.312 N 
ATOM     13  H   LIG    1       25.647 -23.030   6.320  0.00  0.00    +0.149 HD
ATOM     14  O   LIG    1       22.994 -24.567   6.775  0.00  0.00    -0.274 OA
BRANCH  12  15
ATOM     15  C   LIG    1       25.587 -25.185   6.158  0.00  0.00    +0.132 C 
BRANCH  15  16
ATOM     16  C   LIG    1       25.348 -25.889   4.807  0.00  0.00    +0.178 C 
BRANCH  16  17
ATOM     17  O   LIG    1       25.264 -27.314   4.888  0.00  0.00    -0.381 OA
ATOM     18  C   LIG    1       24.463 -27.789   5.956  0.00  0.00    +0.193 C 
ENDBRANCH  16  17
ENDBRANCH  15  16
ENDBRANCH  12  15
ENDBRANCH  10  11
ENDBRANCH   4  10
ENDBRANCH   3   4
ENDBRANCH   2   3
ENDBRANCH   1   2
BRANCH   1  19
ATOM     19  C   LIG    1       26.830 -20.221   7.928  0.00  0.00    +0.205 C 
BRANCH  19  20
ATOM     20  C   LIG    1       26.377 -21.492   8.587  0.00  0.00    +0.319 C 
ATOM     21  O   LIG    1       26.697 -22.671   8.268  0.00  0.00    -0.250 OA
BRANCH  20  22
ATOM     22  O   LIG    1       25.550 -21.407   9.618  0.00  0.00    -0.480 OA
ATOM     23  H   LIG    1       24.711 -21.238   9.133  0.00  0.00    +0.295 HD
ENDBRANCH  20  22
ENDBRANCH  19  20
ENDBRANCH   1  19
BRANCH   1  24
ATOM     24  C   LIG    1       28.584 -19.773   6.186  0.00  0.00    +0.100 C 
BRANCH  24  25
ATOM     25  C   LIG    1       29.586 -19.134   7.240  0.00  0.00    +0.101 C 
BRANCH  25  26
ATOM     26  N   LIG    1       30.247 -19.853   8.379  0.00  0.00    -0.283 NA
BRANCH  26  27
ATOM     27  C   LIG    1       31.546 -19.262   8.744  0.00  0.00    +0.181 C 
BRANCH  27  30
ATOM     28  N   LIG    1       31.195 -17.744  10.600  0.00  0.00    -0.312 N 
ATOM     29  H   LIG    1       31.378 -18.579  11.155  0.00  0.00    +0.149 HD
ATOM     30  C   LIG    1       31.625 -17.851   9.299  0.00  0.00    +0.227 C 
ATOM     31  O   LIG    1       31.978 -16.890   8.619  0.00  0.00    -0.274 OA
BRANCH  28  32
ATOM     32  C   LIG    1       31.252 -16.463  11.272  0.00  0.00    +0.132 C 
BRANCH  32  33
ATOM     33  C   LIG    1       32.221 -16.474  12.445  0.00  0.00    +0.178 C 
BRANCH  33  35
ATOM     34  C   LIG    1       32.403 -15.840  14.702  0.00  0.00    +0.193 C 
ATOM     35  O   LIG    1       31.758 -15.583  13.460  0.00  0.00    -0.381 OA
ENDBRANCH  33  35
ENDBRANCH  32  33
ENDBRANCH  28  32
ENDBRANCH  27  30
ENDBRANCH  26  27
BRANCH  26  36
ATOM     36  C   LIG    1       30.184 -21.316   8.234  0.00  0.00    +0.206 C 
BRANCH  36  37
ATOM     37  C   LIG    1       31.086 -22.046   9.225  0.00  0.00    +0.319 C 
ATOM     38  O   LIG    1       30.928 -22.117  10.434  0.00  0.00    -0.250 OA
BRANCH  37  39
ATOM     39  O   LIG    1       32.184 -22.585   8.660  0.00  0.00    -0.480 OA
ATOM     40  H   LIG    1       32.170 -23.513   8.982  0.00  0.00    +0.295 HD
ENDBRANCH  37  39
ENDBRANCH  36  37
ENDBRANCH  26  36
ENDBRANCH  25  26
ENDBRANCH  24  25
ENDBRANCH   1  24
TORSDOF 25
ENDMDL
MODEL 2
REMARK VINA RESULT:      -6.8      2.893      9.489
REMARK  Name = *****
REMARK                            x       y       z     vdW  Elec       q    Type
REMARK                         _______ _______ _______ _____ _____    ______ ____
ROOT
ATOM      1  N   LIG    1       25.422 -21.411   6.844  0.00  0.00    -0.290 NA
ENDROOT
BRANCH   1   2
ATOM      2  C   LIG    1       26.147 -20.432   7.710  0.00  0.00    +0.100 C 
BRANCH   2   3
ATOM      3  C   LIG    1       27.577 -20.882   8.126  0.00  0.00    +0.101 C 
BRANCH   3   4
ATOM      4  N   LIG    1       28.899 -20.565   7.580  0.00  0.00    -0.283 NA
BRANCH   4   5
ATOM      5  C   LIG    1       28.967 -20.291   6.137  0.00  0.00    +0.206 C 
BRANCH   5   6
ATOM      6  C   LIG    1       29.244 -18.867   5.752  0.00  0.00    +0.319 C 
ATOM      7  O   LIG    1       30.100 -18.132   6.280  0.00  0.00    -0.250 OA
BRANCH   6   8
ATOM      8  O   LIG    1       28.516 -18.392   4.743  0.00  0.00    -0.480 OA
ATOM      9  H   LIG    1       28.551 -19.110   4.070  0.00  0.00    +0.295 HD
ENDBRANCH   6   8
ENDBRANCH   5   6
ENDBRANCH   4   5
BRANCH   4  10
ATOM     10  C   LIG    1       30.052 -21.241   8.245  0.00  0.00    +0.181 C 
BRANCH  10  11
ATOM     11  C   LIG    1       31.143 -20.232   8.902  0.00  0.00    +0.227 C 
ATOM     12  N   LIG    1       30.845 -18.892   8.955  0.00  0.00    -0.312 N 
ATOM     13  H   LIG    1       29.887 -18.641   8.764  0.00  0.00    +0.149 HD
ATOM     14  O   LIG    1       32.256 -20.554   9.341  0.00  0.00    -0.274 OA
BRANCH  12  15
ATOM     15  C   LIG    1       31.749 -17.874   9.549  0.00  0.00    +0.132 C 
BRANCH  15  16
ATOM     16  C   LIG    1       31.070 -16.828  10.456  0.00  0.00    +0.178 C 
BRANCH  16  17
ATOM     17  O   LIG    1       31.978 -16.001  11.189  0.00  0.00    -0.381 OA
ATOM     18  C   LIG    1       31.980 -16.236  12.586  0.00  0.00    +0.193 C 
ENDBRANCH  16  17
ENDBRANCH  15  16
ENDBRANCH  12  15
ENDBRANCH  10  11
ENDBRANCH   4  10
ENDBRANCH   3   4
ENDBRANCH   2   3
ENDBRANCH   1   2
BRANCH   1  19
ATOM     19  C   LIG    1       24.396 -20.932   5.872  0.00  0.00    +0.205 C 
BRANCH  19  20
ATOM     20  C   LIG    1       24.883 -20.792   4.459  0.00  0.00    +0.319 C 
ATOM     21  O   LIG    1       24.265 -21.110   3.406  0.00  0.00    -0.250 OA
BRANCH  20  22
ATOM     22  O   LIG    1       26.090 -20.285   4.257  0.00  0.00    -0.480 OA
ATOM     23  H   LIG    1       26.377 -20.857   3.510  0.00  0.00    +0.295 HD
ENDBRANCH  20  22
ENDBRANCH  19  20
ENDBRANCH   1  19
BRANCH   1  24
ATOM     24  C   LIG    1       25.146 -22.711   7.481  0.00  0.00    +0.100 C 
BRANCH  24  25
ATOM     25  C   LIG    1       25.893 -24.071   7.143  0.00  0.00    +0.101 C 
BRANCH  25  26
ATOM     26  N   LIG    1       25.257 -25.427   7.044  0.00  0.00    -0.283 NA
BRANCH  26  27
ATOM     27  C   LIG    1       26.231 -26.521   7.197  0.00  0.00    +0.181 C 
BRANCH  27  30
ATOM     28  N   LIG    1       26.484 -28.464   8.624  0.00  0.00    -0.312 N 
ATOM     29  H   LIG    1       26.809 -27.771   9.297  0.00  0.00    +0.149 HD
ATOM     30  C   LIG    1       25.773 -27.916   7.582  0.00  0.00    +0.227 C 
ATOM     31  O   LIG    1       24.893 -28.518   6.971  0.00  0.00    -0.274 OA
BRANCH  28  32
ATOM     32  C   LIG    1       26.129 -29.775   9.125  0.00  0.00    +0.132 C 
BRANCH  32  33
ATOM     33  C   LIG    1       26.364 -29.899  10.623  0.00  0.00    +0.178 C 
BRANCH  33  35
ATOM     34  C   LIG    1       28.417 -29.374  11.641  0.00  0.00    +0.193 C 
ATOM     35  O   LIG    1       27.704 -30.329  10.865  0.00  0.00    -0.381 OA
ENDBRANCH  33  35
ENDBRANCH  32  33
ENDBRANCH  28  32
ENDBRANCH  27  30
ENDBRANCH  26  27
BRANCH  26  36
ATOM     36  C   LIG    1       24.301 -25.520   5.929  0.00  0.00    +0.206 C 
BRANCH  36  37
ATOM     37  C   LIG    1       24.965 -25.334   4.567  0.00  0.00    +0.319 C 
ATOM     38  O   LIG    1       25.673 -26.143   3.989  0.00  0.00    -0.250 OA
BRANCH  37  39
ATOM     39  O   LIG    1       24.769 -24.112   4.034  0.00  0.00    -0.480 OA
ATOM     40  H   LIG    1       25.337 -24.124   3.233  0.00  0.00    +0.295 HD
ENDBRANCH  37  39
ENDBRANCH  36  37
ENDBRANCH  26  36
ENDBRANCH  25  26
ENDBRANCH  24  25
ENDBRANCH   1  24
TORSDOF 25
ENDMDL
MODEL 3
REMARK VINA RESULT:      -6.8      3.486      6.771
REMARK  Name = *****
REMARK                            x       y       z     vdW  Elec       q    Type
REMARK                         _______ _______ _______ _____ _____    ______ ____
ROOT
ATOM      1  N   LIG    1       24.294 -24.669   6.544  0.00  0.00    -0.290 NA
ENDROOT
BRANCH   1   2
ATOM      2  C   LIG    1       24.390 -26.045   5.968  0.00  0.00    +0.100 C 
BRANCH   2   3
ATOM      3  C   LIG    1       25.514 -26.922   6.589  0.00  0.00    +0.101 C 
BRANCH   3   4
ATOM      4  N   LIG    1       25.484 -28.235   7.238  0.00  0.00    -0.283 NA
BRANCH   4   5
ATOM      5  C   LIG    1       24.288 -29.057   7.004  0.00  0.00    +0.206 C 
BRANCH   5   6
ATOM      6  C   LIG    1       24.462 -30.219   6.069  0.00  0.00    +0.319 C 
ATOM      7  O   LIG    1       25.555 -30.704   5.720  0.00  0.00    -0.250 OA
BRANCH   6   8
ATOM      8  O   LIG    1       23.336 -30.767   5.616  0.00  0.00    -0.480 OA
ATOM      9  H   LIG    1       23.083 -31.403   6.325  0.00  0.00    +0.295 HD
ENDBRANCH   6   8
ENDBRANCH   5   6
ENDBRANCH   4   5
BRANCH   4  10
ATOM     10  C   LIG    1       26.176 -28.320   8.557  0.00  0.00    +0.181 C 
BRANCH  10  11
ATOM     11  C   LIG    1       26.193 -29.804   9.221  0.00  0.00    +0.227 C 
ATOM     12  N   LIG    1       26.818 -30.817   8.537  0.00  0.00    -0.312 N 
ATOM     13  H   LIG    1       27.399 -30.539   7.761  0.00  0.00    +0.149 HD
ATOM     14  O   LIG    1       25.660 -30.124  10.292  0.00  0.00    -0.274 OA
BRANCH  12  15
ATOM     15  C   LIG    1       26.921 -32.209   9.047  0.00  0.00    +0.132 C 
BRANCH  15  16
ATOM     16  C   LIG    1       25.922 -33.216   8.441  0.00  0.00    +0.178 C 
BRANCH  16  17
ATOM     17  O   LIG    1       24.741 -33.422   9.222  0.00  0.00    -0.381 OA
ATOM     18  C   LIG    1       23.627 -32.654   8.803  0.00  0.00    +0.193 C 
ENDBRANCH  16  17
ENDBRANCH  15  16
ENDBRANCH  12  15
ENDBRANCH  10  11
ENDBRANCH   4  10
ENDBRANCH   3   4
ENDBRANCH   2   3
ENDBRANCH   1   2
BRANCH   1  19
ATOM     19  C   LIG    1       22.957 -24.041   6.760  0.00  0.00    +0.205 C 
BRANCH  19  20
ATOM     20  C   LIG    1       22.955 -22.539   6.726  0.00  0.00    +0.319 C 
ATOM     21  O   LIG    1       23.124 -21.756   7.701  0.00  0.00    -0.250 OA
BRANCH  20  22
ATOM     22  O   LIG    1       22.756 -21.937   5.564  0.00  0.00    -0.480 OA
ATOM     23  H   LIG    1       22.029 -22.501   5.217  0.00  0.00    +0.295 HD
ENDBRANCH  20  22
ENDBRANCH  19  20
ENDBRANCH   1  19
BRANCH   1  24
ATOM     24  C   LIG    1       25.375 -23.754   6.138  0.00  0.00    +0.100 C 
BRANCH  24  25
ATOM     25  C   LIG    1       26.342 -22.982   7.135  0.00  0.00    +0.101 C 
BRANCH  25  26
ATOM     26  N   LIG    1       27.018 -21.669   6.869  0.00  0.00    -0.283 NA
BRANCH  26  27
ATOM     27  C   LIG    1       28.172 -21.438   7.755  0.00  0.00    +0.181 C 
BRANCH  27  30
ATOM     28  N   LIG    1       30.284 -20.369   8.274  0.00  0.00    -0.312 N 
ATOM     29  H   LIG    1       30.390 -21.165   8.902  0.00  0.00    +0.149 HD
ATOM     30  C   LIG    1       29.329 -20.565   7.304  0.00  0.00    +0.227 C 
ATOM     31  O   LIG    1       29.367 -20.032   6.197  0.00  0.00    -0.274 OA
BRANCH  28  32
ATOM     32  C   LIG    1       31.466 -19.589   7.971  0.00  0.00    +0.132 C 
BRANCH  32  33
ATOM     33  C   LIG    1       31.471 -18.251   8.697  0.00  0.00    +0.178 C 
BRANCH  33  35
ATOM     34  C   LIG    1       32.144 -17.158  10.666  0.00  0.00    +0.193 C 
ATOM     35  O   LIG    1       32.097 -18.398   9.971  0.00  0.00    -0.381 OA
ENDBRANCH  33  35
ENDBRANCH  32  33
ENDBRANCH  28  32
ENDBRANCH  27  30
ENDBRANCH  26  27
BRANCH  26  36
ATOM     36  C   LIG    1       26.058 -20.565   6.704  0.00  0.00    +0.206 C 
BRANCH  36  37
ATOM     37  C   LIG    1       25.830 -20.198   5.240  0.00  0.00    +0.319 C 
ATOM     38  O   LIG    1       24.754 -20.141   4.666  0.00  0.00    -0.250 OA
BRANCH  37  39
ATOM     39  O   LIG    1       26.969 -19.996   4.550  0.00  0.00    -0.480 OA
ATOM     40  H   LIG    1       26.812 -20.481   3.711  0.00  0.00    +0.295 HD
ENDBRANCH  37  39
ENDBRANCH  36  37
ENDBRANCH  26  36
ENDBRANCH  25  26
ENDBRANCH  24  25
ENDBRANCH   1  24
TORSDOF 25
ENDMDL
MODEL 4
REMARK VINA RESULT:      -6.6      3.260      9.631
REMARK  Name = *****
REMARK                            x       y       z     vdW  Elec       q    Type
REMARK                         _______ _______ _______ _____ _____    ______ ____
ROOT
ATOM      1  N   LIG    1       24.683 -24.344   6.198  0.00  0.00    -0.290 NA
ENDROOT
BRANCH   1   2
ATOM      2  C   LIG    1       25.990 -24.059   6.864  0.00  0.00    +0.100 C 
BRANCH   2   3
ATOM      3  C   LIG    1       26.030 -22.714   7.646  0.00  0.00    +0.101 C 
BRANCH   3   4
ATOM      4  N   LIG    1       26.727 -21.453   7.383  0.00  0.00    -0.283 NA
BRANCH   4   5
ATOM      5  C   LIG    1       25.959 -20.409   6.689  0.00  0.00    +0.206 C 
BRANCH   5   6
ATOM      6  C   LIG    1       25.846 -20.558   5.200  0.00  0.00    +0.319 C 
ATOM      7  O   LIG    1       24.982 -21.234   4.608  0.00  0.00    -0.250 OA
BRANCH   6   8
ATOM      8  O   LIG    1       26.740 -19.880   4.483  0.00  0.00    -0.480 OA
ATOM      9  H   LIG    1       26.679 -18.963   4.839  0.00  0.00    +0.295 HD
ENDBRANCH   6   8
ENDBRANCH   5   6
ENDBRANCH   4   5
BRANCH   4  10
ATOM     10  C   LIG    1       28.193 -21.565   7.130  0.00  0.00    +0.181 C 
BRANCH  10  11
ATOM     11  C   LIG    1       28.987 -20.148   7.094  0.00  0.00    +0.227 C 
ATOM     12  N   LIG    1       29.427 -19.616   8.282  0.00  0.00    -0.312 N 
ATOM     13  H   LIG    1       29.406 -20.232   9.081  0.00  0.00    +0.149 HD
ATOM     14  O   LIG    1       29.213 -19.469   6.083  0.00  0.00    -0.274 OA
BRANCH  12  15
ATOM     15  C   LIG    1       30.182 -18.340   8.379  0.00  0.00    +0.132 C 
BRANCH  15  16
ATOM     16  C   LIG    1       31.685 -18.477   8.698  0.00  0.00    +0.178 C 
BRANCH  16  17
ATOM     17  O   LIG    1       32.025 -18.231  10.065  0.00  0.00    -0.381 OA
ATOM     18  C   LIG    1       31.021 -17.555  10.801  0.00  0.00    +0.193 C 
ENDBRANCH  16  17
ENDBRANCH  15  16
ENDBRANCH  12  15
ENDBRANCH  10  11
ENDBRANCH   4  10
ENDBRANCH   3   4
ENDBRANCH   2   3
ENDBRANCH   1   2
BRANCH   1  19
ATOM     19  C   LIG    1       23.403 -24.030   6.899  0.00  0.00    +0.205 C 
BRANCH  19  20
ATOM     20  C   LIG    1       22.965 -22.597   6.799  0.00  0.00    +0.319 C 
ATOM     21  O   LIG    1       22.965 -21.735   7.720  0.00  0.00    -0.250 OA
BRANCH  20  22
ATOM     22  O   LIG    1       22.524 -22.155   5.631  0.00  0.00    -0.480 OA
ATOM     23  H   LIG    1       23.381 -22.094   5.152  0.00  0.00    +0.295 HD
ENDBRANCH  20  22
ENDBRANCH  19  20
ENDBRANCH   1  19
BRANCH   1  24
ATOM     24  C   LIG    1       24.672 -25.551   5.352  0.00  0.00    +0.100 C 
BRANCH  24  25
ATOM     25  C   LIG    1       25.588 -26.829   5.571  0.00  0.00    +0.101 C 
BRANCH  25  26
ATOM     26  N   LIG    1       25.380 -27.898   6.604  0.00  0.00    -0.283 NA
BRANCH  26  27
ATOM     27  C   LIG    1       26.199 -27.685   7.810  0.00  0.00    +0.181 C 
BRANCH  27  30
ATOM     28  N   LIG    1       25.025 -29.248   9.243  0.00  0.00    -0.312 N 
ATOM     29  H   LIG    1       24.372 -29.281   8.462  0.00  0.00    +0.149 HD
ATOM     30  C   LIG    1       26.256 -28.739   8.901  0.00  0.00    +0.227 C 
ATOM     31  O   LIG    1       27.301 -29.052   9.467  0.00  0.00    -0.274 OA
BRANCH  28  32
ATOM     32  C   LIG    1       24.932 -30.291  10.243  0.00  0.00    +0.132 C 
BRANCH  32  33
ATOM     33  C   LIG    1       24.609 -29.736  11.622  0.00  0.00    +0.178 C 
BRANCH  33  35
ATOM     34  C   LIG    1       22.396 -30.496  11.395  0.00  0.00    +0.193 C 
ATOM     35  O   LIG    1       23.228 -29.379  11.685  0.00  0.00    -0.381 OA
ENDBRANCH  33  35
ENDBRANCH  32  33
ENDBRANCH  28  32
ENDBRANCH  27  30
ENDBRANCH  26  27
BRANCH  26  36
ATOM     36  C   LIG    1       25.367 -29.249   6.022  0.00  0.00    +0.206 C 
BRANCH  36  37
ATOM     37  C   LIG    1       24.005 -29.927   6.136  0.00  0.00    +0.319 C 
ATOM     38  O   LIG    1       23.729 -30.890   6.835  0.00  0.00    -0.250 OA
BRANCH  37  39
ATOM     39  O   LIG    1       23.075 -29.413   5.307  0.00  0.00    -0.480 OA
ATOM     40  H   LIG    1       23.080 -28.457   5.531  0.00  0.00    +0.295 HD
ENDBRANCH  37  39
ENDBRANCH  36  37
ENDBRANCH  26  36
ENDBRANCH  25  26
ENDBRANCH  24  25
ENDBRANCH   1  24
TORSDOF 25
ENDMDL
MODEL 5
REMARK VINA RESULT:      -6.5      3.477      9.258
REMARK  Name = *****
REMARK                            x       y       z     vdW  Elec       q    Type
REMARK                         _______ _______ _______ _____ _____    ______ ____
ROOT
ATOM      1  N   LIG    1       24.802 -24.187   6.437  0.00  0.00    -0.290 NA
ENDROOT
BRANCH   1   2
ATOM      2  C   LIG    1       25.829 -23.671   7.391  0.00  0.00    +0.100 C 
BRANCH   2   3
ATOM      3  C   LIG    1       26.673 -22.484   6.842  0.00  0.00    +0.101 C 
BRANCH   3   4
ATOM      4  N   LIG    1       26.459 -21.036   6.872  0.00  0.00    -0.283 NA
BRANCH   4   5
ATOM      5  C   LIG    1       26.292 -20.367   5.574  0.00  0.00    +0.206 C 
BRANCH   5   6
ATOM      6  C   LIG    1       24.991 -20.617   4.869  0.00  0.00    +0.319 C 
ATOM      7  O   LIG    1       24.043 -19.812   4.800  0.00  0.00    -0.250 OA
BRANCH   6   8
ATOM      8  O   LIG    1       24.886 -21.795   4.254  0.00  0.00    -0.480 OA
ATOM      9  H   LIG    1       23.947 -22.054   4.403  0.00  0.00    +0.295 HD
ENDBRANCH   6   8
ENDBRANCH   5   6
ENDBRANCH   4   5
BRANCH   4  10
ATOM     10  C   LIG    1       27.138 -20.306   7.983  0.00  0.00    +0.181 C 
BRANCH  10  11
ATOM     11  C   LIG    1       28.762 -20.319   7.911  0.00  0.00    +0.227 C 
ATOM     12  N   LIG    1       29.390 -19.351   7.168  0.00  0.00    -0.312 N 
ATOM     13  H   LIG    1       28.818 -18.573   6.874  0.00  0.00    +0.149 HD
ATOM     14  O   LIG    1       29.504 -21.154   8.447  0.00  0.00    -0.274 OA
BRANCH  12  15
ATOM     15  C   LIG    1       30.866 -19.243   7.041  0.00  0.00    +0.132 C 
BRANCH  15  16
ATOM     16  C   LIG    1       31.619 -18.852   8.329  0.00  0.00    +0.178 C 
BRANCH  16  17
ATOM     17  O   LIG    1       32.144 -17.521   8.328  0.00  0.00    -0.381 OA
ATOM     18  C   LIG    1       31.572 -16.670   9.305  0.00  0.00    +0.193 C 
ENDBRANCH  16  17
ENDBRANCH  15  16
ENDBRANCH  12  15
ENDBRANCH  10  11
ENDBRANCH   4  10
ENDBRANCH   3   4
ENDBRANCH   2   3
ENDBRANCH   1   2
BRANCH   1  19
ATOM     19  C   LIG    1       23.350 -24.008   6.733  0.00  0.00    +0.205 C 
BRANCH  19  20
ATOM     20  C   LIG    1       22.890 -22.579   6.786  0.00  0.00    +0.319 C 
ATOM     21  O   LIG    1       23.053 -21.762   7.734  0.00  0.00    -0.250 OA
BRANCH  20  22
ATOM     22  O   LIG    1       22.238 -22.089   5.742  0.00  0.00    -0.480 OA
ATOM     23  H   LIG    1       21.867 -21.277   6.157  0.00  0.00    +0.295 HD
ENDBRANCH  20  22
ENDBRANCH  19  20
ENDBRANCH   1  19
BRANCH   1  24
ATOM     24  C   LIG    1       25.167 -25.443   5.757  0.00  0.00    +0.100 C 
BRANCH  24  25
ATOM     25  C   LIG    1       24.338 -26.796   5.829  0.00  0.00    +0.101 C 
BRANCH  25  26
ATOM     26  N   LIG    1       24.818 -28.096   6.405  0.00  0.00    -0.283 NA
BRANCH  26  27
ATOM     27  C   LIG    1       25.767 -27.906   7.516  0.00  0.00    +0.181 C 
BRANCH  27  30
ATOM     28  N   LIG    1       27.037 -28.938   9.304  0.00  0.00    -0.312 N 
ATOM     29  H   LIG    1       27.520 -28.040   9.310  0.00  0.00    +0.149 HD
ATOM     30  C   LIG    1       25.819 -28.894   8.666  0.00  0.00    +0.227 C 
ATOM     31  O   LIG    1       24.878 -29.632   8.951  0.00  0.00    -0.274 OA
BRANCH  28  32
ATOM     32  C   LIG    1       27.218 -29.808  10.447  0.00  0.00    +0.132 C 
BRANCH  32  33
ATOM     33  C   LIG    1       27.581 -29.033  11.705  0.00  0.00    +0.178 C 
BRANCH  33  35
ATOM     34  C   LIG    1       29.266 -29.575  13.252  0.00  0.00    +0.193 C 
ATOM     35  O   LIG    1       27.996 -29.940  12.726  0.00  0.00    -0.381 OA
ENDBRANCH  33  35
ENDBRANCH  32  33
ENDBRANCH  28  32
ENDBRANCH  27  30
ENDBRANCH  26  27
BRANCH  26  36
ATOM     36  C   LIG    1       25.176 -29.074   5.367  0.00  0.00    +0.206 C 
BRANCH  36  37
ATOM     37  C   LIG    1       24.670 -30.479   5.680  0.00  0.00    +0.319 C 
ATOM     38  O   LIG    1       25.354 -31.472   5.870  0.00  0.00    -0.250 OA
BRANCH  37  39
ATOM     39  O   LIG    1       23.326 -30.585   5.664  0.00  0.00    -0.480 OA
ATOM     40  H   LIG    1       23.116 -30.619   4.706  0.00  0.00    +0.295 HD
ENDBRANCH  37  39
ENDBRANCH  36  37
ENDBRANCH  26  36
ENDBRANCH  25  26
ENDBRANCH  24  25
ENDBRANCH   1  24
TORSDOF 25
ENDMDL
MODEL 6
REMARK VINA RESULT:      -6.4      4.424      9.315
REMARK  Name = *****
REMARK                            x       y       z     vdW  Elec       q    Type
REMARK                         _______ _______ _______ _____ _____    ______ ____
ROOT
ATOM      1  N   LIG    1       25.156 -27.280   6.412  0.00  0.00    -0.290 NA
ENDROOT
BRANCH   1   2
ATOM      2  C   LIG    1       26.157 -27.575   7.482  0.00  0.00    +0.100 C 
BRANCH   2   3
ATOM      3  C   LIG    1       25.681 -28.617   8.534  0.00  0.00    +0.101 C 
BRANCH   3   4
ATOM      4  N   LIG    1       26.353 -29.767   9.144  0.00  0.00    -0.283 NA
BRANCH   4   5
ATOM      5  C   LIG    1       25.634 -31.047   9.104  0.00  0.00    +0.206 C 
BRANCH   5   6
ATOM      6  C   LIG    1       24.143 -30.968   9.259  0.00  0.00    +0.319 C 
ATOM      7  O   LIG    1       23.316 -31.079   8.334  0.00  0.00    -0.250 OA
BRANCH   6   8
ATOM      8  O   LIG    1       23.702 -30.790  10.504  0.00  0.00    -0.480 OA
ATOM      9  H   LIG    1       24.213 -31.447  11.030  0.00  0.00    +0.295 HD
ENDBRANCH   6   8
ENDBRANCH   5   6
ENDBRANCH   4   5
BRANCH   4  10
ATOM     10  C   LIG    1       27.222 -29.459  10.318  0.00  0.00    +0.181 C 
BRANCH  10  11
ATOM     11  C   LIG    1       26.488 -28.628  11.507  0.00  0.00    +0.227 C 
ATOM     12  N   LIG    1       27.169 -27.590  12.094  0.00  0.00    -0.312 N 
ATOM     13  H   LIG    1       28.004 -27.279  11.620  0.00  0.00    +0.149 HD
ATOM     14  O   LIG    1       25.363 -28.863  11.967  0.00  0.00    -0.274 OA
BRANCH  12  15
ATOM     15  C   LIG    1       26.600 -26.743  13.174  0.00  0.00    +0.132 C 
BRANCH  15  16
ATOM     16  C   LIG    1       27.336 -25.412  13.435  0.00  0.00    +0.178 C 
BRANCH  16  17
ATOM     17  O   LIG    1       26.501 -24.362  13.931  0.00  0.00    -0.381 OA
ATOM     18  C   LIG    1       25.114 -24.642  13.866  0.00  0.00    +0.193 C 
ENDBRANCH  16  17
ENDBRANCH  15  16
ENDBRANCH  12  15
ENDBRANCH  10  11
ENDBRANCH   4  10
ENDBRANCH   3   4
ENDBRANCH   2   3
ENDBRANCH   1   2
BRANCH   1  19
ATOM     19  C   LIG    1       25.089 -28.141   5.194  0.00  0.00    +0.205 C 
BRANCH  19  20
ATOM     20  C   LIG    1       24.541 -29.520   5.428  0.00  0.00    +0.319 C 
ATOM     21  O   LIG    1       25.192 -30.600   5.472  0.00  0.00    -0.250 OA
BRANCH  20  22
ATOM     22  O   LIG    1       23.236 -29.656   5.609  0.00  0.00    -0.480 OA
ATOM     23  H   LIG    1       22.969 -28.712   5.536  0.00  0.00    +0.295 HD
ENDBRANCH  20  22
ENDBRANCH  19  20
ENDBRANCH   1  19
BRANCH   1  24
ATOM     24  C   LIG    1       24.882 -25.848   6.201  0.00  0.00    +0.100 C 
BRANCH  24  25
ATOM     25  C   LIG    1       25.786 -24.656   6.735  0.00  0.00    +0.101 C 
BRANCH  25  26
ATOM     26  N   LIG    1       25.292 -23.343   7.268  0.00  0.00    -0.283 NA
BRANCH  26  27
ATOM     27  C   LIG    1       23.856 -23.134   7.014  0.00  0.00    +0.181 C 
BRANCH  27  30
ATOM     28  N   LIG    1       22.923 -21.529   5.456  0.00  0.00    -0.312 N 
ATOM     29  H   LIG    1       22.563 -22.367   5.002  0.00  0.00    +0.149 HD
ATOM     30  C   LIG    1       23.310 -21.741   6.759  0.00  0.00    +0.227 C 
ATOM     31  O   LIG    1       23.284 -20.869   7.624  0.00  0.00    -0.274 OA
BRANCH  28  32
ATOM     32  C   LIG    1       22.346 -20.257   5.077  0.00  0.00    +0.132 C 
BRANCH  32  33
ATOM     33  C   LIG    1       23.301 -19.422   4.236  0.00  0.00    +0.178 C 
BRANCH  33  35
ATOM     34  C   LIG    1       25.615 -19.821   4.135  0.00  0.00    +0.193 C 
ATOM     35  O   LIG    1       24.331 -20.257   3.707  0.00  0.00    -0.381 OA
ENDBRANCH  33  35
ENDBRANCH  32  33
ENDBRANCH  28  32
ENDBRANCH  27  30
ENDBRANCH  26  27
BRANCH  26  36
ATOM     36  C   LIG    1       26.204 -22.230   6.960  0.00  0.00    +0.206 C 
BRANCH  36  37
ATOM     37  C   LIG    1       26.818 -21.608   8.210  0.00  0.00    +0.319 C 
ATOM     38  O   LIG    1       28.007 -21.425   8.421  0.00  0.00    -0.250 OA
BRANCH  37  39
ATOM     39  O   LIG    1       25.915 -21.317   9.168  0.00  0.00    -0.480 OA
ATOM     40  H   LIG    1       26.451 -20.851   9.846  0.00  0.00    +0.295 HD
ENDBRANCH  37  39
ENDBRANCH  36  37
ENDBRANCH  26  36
ENDBRANCH  25  26
ENDBRANCH  24  25
ENDBRANCH   1  24
TORSDOF 25
ENDMDL
MODEL 7
REMARK VINA RESULT:      -6.4      3.049      9.794
REMARK  Name = *****
REMARK                            x       y       z     vdW  Elec       q    Type
REMARK                         _______ _______ _______ _____ _____    ______ ____
ROOT
ATOM      1  N   LIG    1       25.610 -22.872   7.157  0.00  0.00    -0.290 NA
ENDROOT
BRANCH   1   2
ATOM      2  C   LIG    1       26.547 -22.162   8.079  0.00  0.00    +0.100 C 
BRANCH   2   3
ATOM      3  C   LIG    1       27.283 -20.952   7.435  0.00  0.00    +0.101 C 
BRANCH   3   4
ATOM      4  N   LIG    1       28.705 -20.617   7.329  0.00  0.00    -0.283 NA
BRANCH   4   5
ATOM      5  C   LIG    1       29.191 -20.225   5.999  0.00  0.00    +0.206 C 
BRANCH   5   6
ATOM      6  C   LIG    1       29.382 -18.752   5.777  0.00  0.00    +0.319 C 
ATOM      7  O   LIG    1       30.147 -18.019   6.433  0.00  0.00    -0.250 OA
BRANCH   6   8
ATOM      8  O   LIG    1       28.683 -18.225   4.774  0.00  0.00    -0.480 OA
ATOM      9  H   LIG    1       28.057 -18.943   4.521  0.00  0.00    +0.295 HD
ENDBRANCH   6   8
ENDBRANCH   5   6
ENDBRANCH   4   5
BRANCH   4  10
ATOM     10  C   LIG    1       29.615 -21.369   8.242  0.00  0.00    +0.181 C 
BRANCH  10  11
ATOM     11  C   LIG    1       30.885 -20.514   8.790  0.00  0.00    +0.227 C 
ATOM     12  N   LIG    1       30.740 -19.158   8.948  0.00  0.00    -0.312 N 
ATOM     13  H   LIG    1       29.797 -18.802   8.905  0.00  0.00    +0.149 HD
ATOM     14  O   LIG    1       32.005 -20.971   9.055  0.00  0.00    -0.274 OA
BRANCH  12  15
ATOM     15  C   LIG    1       31.817 -18.272   9.460  0.00  0.00    +0.132 C 
BRANCH  15  16
ATOM     16  C   LIG    1       31.484 -16.767   9.491  0.00  0.00    +0.178 C 
BRANCH  16  17
ATOM     17  O   LIG    1       32.050 -16.058  10.597  0.00  0.00    -0.381 OA
ATOM     18  C   LIG    1       31.504 -16.413  11.855  0.00  0.00    +0.193 C 
ENDBRANCH  16  17
ENDBRANCH  15  16
ENDBRANCH  12  15
ENDBRANCH  10  11
ENDBRANCH   4  10
ENDBRANCH   3   4
ENDBRANCH   2   3
ENDBRANCH   1   2
BRANCH   1  19
ATOM     19  C   LIG    1       24.164 -22.501   7.130  0.00  0.00    +0.205 C 
BRANCH  19  20
ATOM     20  C   LIG    1       23.749 -21.672   5.949  0.00  0.00    +0.319 C 
ATOM     21  O   LIG    1       24.490 -20.941   5.235  0.00  0.00    -0.250 OA
BRANCH  20  22
ATOM     22  O   LIG    1       22.474 -21.682   5.590  0.00  0.00    -0.480 OA
ATOM     23  H   LIG    1       22.586 -21.635   4.614  0.00  0.00    +0.295 HD
ENDBRANCH  20  22
ENDBRANCH  19  20
ENDBRANCH   1  19
BRANCH   1  24
ATOM     24  C   LIG    1       25.909 -24.301   6.953  0.00  0.00    +0.100 C 
BRANCH  24  25
ATOM     25  C   LIG    1       24.957 -25.339   6.219  0.00  0.00    +0.101 C 
BRANCH  25  26
ATOM     26  N   LIG    1       25.010 -26.832   6.351  0.00  0.00    -0.283 NA
BRANCH  26  27
ATOM     27  C   LIG    1       26.080 -27.282   7.259  0.00  0.00    +0.181 C 
BRANCH  27  30
ATOM     28  N   LIG    1       26.830 -28.521   9.202  0.00  0.00    -0.312 N 
ATOM     29  H   LIG    1       27.313 -27.650   9.416  0.00  0.00    +0.149 HD
ATOM     30  C   LIG    1       25.816 -28.369   8.285  0.00  0.00    +0.227 C 
ATOM     31  O   LIG    1       24.819 -29.086   8.251  0.00  0.00    -0.274 OA
BRANCH  28  32
ATOM     32  C   LIG    1       26.696 -29.495  10.265  0.00  0.00    +0.132 C 
BRANCH  32  33
ATOM     33  C   LIG    1       26.067 -28.896  11.515  0.00  0.00    +0.178 C 
BRANCH  33  35
ATOM     34  C   LIG    1       25.059 -31.013  11.346  0.00  0.00    +0.193 C 
ATOM     35  O   LIG    1       25.004 -29.735  11.967  0.00  0.00    -0.381 OA
ENDBRANCH  33  35
ENDBRANCH  32  33
ENDBRANCH  28  32
ENDBRANCH  27  30
ENDBRANCH  26  27
BRANCH  26  36
ATOM     36  C   LIG    1       24.889 -27.517   5.054  0.00  0.00    +0.206 C 
BRANCH  36  37
ATOM     37  C   LIG    1       24.581 -29.005   5.200  0.00  0.00    +0.319 C 
ATOM     38  O   LIG    1       25.365 -29.927   5.038  0.00  0.00    -0.250 OA
BRANCH  37  39
ATOM     39  O   LIG    1       23.286 -29.265   5.465  0.00  0.00    -0.480 OA
ATOM     40  H   LIG    1       22.873 -28.374   5.464  0.00  0.00    +0.295 HD
ENDBRANCH  37  39
ENDBRANCH  36  37
ENDBRANCH  26  36
ENDBRANCH  25  26
ENDBRANCH  24  25
ENDBRANCH   1  24
TORSDOF 25
ENDMDL
MODEL 8
REMARK VINA RESULT:      -6.3      3.062     10.150
REMARK  Name = *****
REMARK                            x       y       z     vdW  Elec       q    Type
REMARK                         _______ _______ _______ _____ _____    ______ ____
ROOT
ATOM      1  N   LIG    1       24.856 -24.259   6.225  0.00  0.00    -0.290 NA
ENDROOT
BRANCH   1   2
ATOM      2  C   LIG    1       26.043 -24.095   7.117  0.00  0.00    +0.100 C 
BRANCH   2   3
ATOM      3  C   LIG    1       26.123 -22.713   7.828  0.00  0.00    +0.101 C 
BRANCH   3   4
ATOM      4  N   LIG    1       26.798 -21.465   7.465  0.00  0.00    -0.283 NA
BRANCH   4   5
ATOM      5  C   LIG    1       25.968 -20.427   6.839  0.00  0.00    +0.206 C 
BRANCH   5   6
ATOM      6  C   LIG    1       25.909 -20.449   5.339  0.00  0.00    +0.319 C 
ATOM      7  O   LIG    1       26.331 -19.548   4.589  0.00  0.00    -0.250 OA
BRANCH   6   8
ATOM      8  O   LIG    1       25.382 -21.547   4.800  0.00  0.00    -0.480 OA
ATOM      9  H   LIG    1       25.202 -22.127   5.576  0.00  0.00    +0.295 HD
ENDBRANCH   6   8
ENDBRANCH   5   6
ENDBRANCH   4   5
BRANCH   4  10
ATOM     10  C   LIG    1       28.226 -21.600   7.054  0.00  0.00    +0.181 C 
BRANCH  10  11
ATOM     11  C   LIG    1       29.108 -20.243   7.207  0.00  0.00    +0.227 C 
ATOM     12  N   LIG    1       29.880 -20.089   8.332  0.00  0.00    -0.312 N 
ATOM     13  H   LIG    1       30.009 -20.913   8.900  0.00  0.00    +0.149 HD
ATOM     14  O   LIG    1       29.128 -19.298   6.406  0.00  0.00    -0.274 OA
BRANCH  12  15
ATOM     15  C   LIG    1       30.745 -18.907   8.578  0.00  0.00    +0.132 C 
BRANCH  15  16
ATOM     16  C   LIG    1       30.044 -17.688   9.212  0.00  0.00    +0.178 C 
BRANCH  16  17
ATOM     17  O   LIG    1       29.922 -17.750  10.636  0.00  0.00    -0.381 OA
ATOM     18  C   LIG    1       31.154 -17.659  11.329  0.00  0.00    +0.193 C 
ENDBRANCH  16  17
ENDBRANCH  15  16
ENDBRANCH  12  15
ENDBRANCH  10  11
ENDBRANCH   4  10
ENDBRANCH   3   4
ENDBRANCH   2   3
ENDBRANCH   1   2
BRANCH   1  19
ATOM     19  C   LIG    1       23.481 -24.042   6.763  0.00  0.00    +0.205 C 
BRANCH  19  20
ATOM     20  C   LIG    1       23.008 -22.617   6.727  0.00  0.00    +0.319 C 
ATOM     21  O   LIG    1       22.977 -21.801   7.689  0.00  0.00    -0.250 OA
BRANCH  20  22
ATOM     22  O   LIG    1       22.568 -22.129   5.577  0.00  0.00    -0.480 OA
ATOM     23  H   LIG    1       23.346 -21.580   5.331  0.00  0.00    +0.295 HD
ENDBRANCH  20  22
ENDBRANCH  19  20
ENDBRANCH   1  19
BRANCH   1  24
ATOM     24  C   LIG    1       24.988 -25.321   5.211  0.00  0.00    +0.100 C 
BRANCH  24  25
ATOM     25  C   LIG    1       26.001 -26.541   5.292  0.00  0.00    +0.101 C 
BRANCH  25  26
ATOM     26  N   LIG    1       25.709 -27.894   5.875  0.00  0.00    -0.283 NA
BRANCH  26  27
ATOM     27  C   LIG    1       25.051 -28.794   4.912  0.00  0.00    +0.181 C 
BRANCH  27  30
ATOM     28  N   LIG    1       23.867 -30.695   5.838  0.00  0.00    -0.312 N 
ATOM     29  H   LIG    1       23.046 -30.129   5.625  0.00  0.00    +0.149 HD
ATOM     30  C   LIG    1       24.996 -30.289   5.165  0.00  0.00    +0.227 C 
ATOM     31  O   LIG    1       25.910 -31.049   4.855  0.00  0.00    -0.274 OA
BRANCH  28  32
ATOM     32  C   LIG    1       23.661 -32.101   6.112  0.00  0.00    +0.132 C 
BRANCH  32  33
ATOM     33  C   LIG    1       23.543 -32.383   7.603  0.00  0.00    +0.178 C 
BRANCH  33  35
ATOM     34  C   LIG    1       23.258 -31.377   9.709  0.00  0.00    +0.193 C 
ATOM     35  O   LIG    1       23.270 -31.169   8.302  0.00  0.00    -0.381 OA
ENDBRANCH  33  35
ENDBRANCH  32  33
ENDBRANCH  28  32
ENDBRANCH  27  30
ENDBRANCH  26  27
BRANCH  26  36
ATOM     36  C   LIG    1       25.137 -27.812   7.228  0.00  0.00    +0.206 C 
BRANCH  36  37
ATOM     37  C   LIG    1       25.981 -28.543   8.269  0.00  0.00    +0.319 C 
ATOM     38  O   LIG    1       26.623 -28.031   9.172  0.00  0.00    -0.250 OA
BRANCH  37  39
ATOM     39  O   LIG    1       26.039 -29.876   8.078  0.00  0.00    -0.480 OA
ATOM     40  H   LIG    1       26.257 -29.956   7.124  0.00  0.00    +0.295 HD
ENDBRANCH  37  39
ENDBRANCH  36  37
ENDBRANCH  26  36
ENDBRANCH  25  26
ENDBRANCH  24  25
ENDBRANCH   1  24
TORSDOF 25
ENDMDL
MODEL 9
REMARK VINA RESULT:      -6.3      4.145      8.405
REMARK  Name = *****
REMARK                            x       y       z     vdW  Elec       q    Type
REMARK                         _______ _______ _______ _____ _____    ______ ____
ROOT
ATOM      1  N   LIG    1       25.205 -27.136   6.383  0.00  0.00    -0.290 NA
ENDROOT
BRANCH   1   2
ATOM      2  C   LIG    1       26.243 -27.477   7.402  0.00  0.00    +0.100 C 
BRANCH   2   3
ATOM      3  C   LIG    1       25.744 -28.420   8.534  0.00  0.00    +0.101 C 
BRANCH   3   4
ATOM      4  N   LIG    1       26.315 -29.637   9.115  0.00  0.00    -0.283 NA
BRANCH   4   5
ATOM      5  C   LIG    1       25.538 -30.873   8.950  0.00  0.00    +0.206 C 
BRANCH   5   6
ATOM      6  C   LIG    1       24.051 -30.738   9.097  0.00  0.00    +0.319 C 
ATOM      7  O   LIG    1       23.461 -30.348  10.123  0.00  0.00    -0.250 OA
BRANCH   6   8
ATOM      8  O   LIG    1       23.335 -31.044   8.016  0.00  0.00    -0.480 OA
ATOM      9  H   LIG    1       23.470 -32.014   7.911  0.00  0.00    +0.295 HD
ENDBRANCH   6   8
ENDBRANCH   5   6
ENDBRANCH   4   5
BRANCH   4  10
ATOM     10  C   LIG    1       27.115 -29.443  10.361  0.00  0.00    +0.181 C 
BRANCH  10  11
ATOM     11  C   LIG    1       26.472 -28.396  11.425  0.00  0.00    +0.227 C 
ATOM     12  N   LIG    1       25.261 -28.704  11.994  0.00  0.00    -0.312 N 
ATOM     13  H   LIG    1       24.938 -29.652  11.869  0.00  0.00    +0.149 HD
ATOM     14  O   LIG    1       26.963 -27.308  11.757  0.00  0.00    -0.274 OA
BRANCH  12  15
ATOM     15  C   LIG    1       24.582 -27.842  12.994  0.00  0.00    +0.132 C 
BRANCH  15  16
ATOM     16  C   LIG    1       23.047 -27.975  13.057  0.00  0.00    +0.178 C 
BRANCH  16  17
ATOM     17  O   LIG    1       22.346 -26.730  13.115  0.00  0.00    -0.381 OA
ATOM     18  C   LIG    1       20.936 -26.853  13.057  0.00  0.00    +0.193 C 
ENDBRANCH  16  17
ENDBRANCH  15  16
ENDBRANCH  12  15
ENDBRANCH  10  11
ENDBRANCH   4  10
ENDBRANCH   3   4
ENDBRANCH   2   3
ENDBRANCH   1   2
BRANCH   1  19
ATOM     19  C   LIG    1       25.067 -27.966   5.150  0.00  0.00    +0.205 C 
BRANCH  19  20
ATOM     20  C   LIG    1       24.516 -29.345   5.377  0.00  0.00    +0.319 C 
ATOM     21  O   LIG    1       25.170 -30.419   5.472  0.00  0.00    -0.250 OA
BRANCH  20  22
ATOM     22  O   LIG    1       23.204 -29.486   5.495  0.00  0.00    -0.480 OA
ATOM     23  H   LIG    1       23.169 -30.444   5.717  0.00  0.00    +0.295 HD
ENDBRANCH  20  22
ENDBRANCH  19  20
ENDBRANCH   1  19
BRANCH   1  24
ATOM     24  C   LIG    1       24.953 -25.694   6.217  0.00  0.00    +0.100 C 
BRANCH  24  25
ATOM     25  C   LIG    1       25.880 -24.533   6.780  0.00  0.00    +0.101 C 
BRANCH  25  26
ATOM     26  N   LIG    1       25.576 -23.064   6.744  0.00  0.00    -0.283 NA
BRANCH  26  27
ATOM     27  C   LIG    1       26.070 -22.354   7.936  0.00  0.00    +0.181 C 
BRANCH  27  30
ATOM     28  N   LIG    1       27.592 -21.012   6.611  0.00  0.00    -0.312 N 
ATOM     29  H   LIG    1       27.113 -21.462   5.832  0.00  0.00    +0.149 HD
ATOM     30  C   LIG    1       26.897 -21.089   7.795  0.00  0.00    +0.227 C 
ATOM     31  O   LIG    1       26.983 -20.249   8.688  0.00  0.00    -0.274 OA
BRANCH  28  32
ATOM     32  C   LIG    1       28.391 -19.840   6.323  0.00  0.00    +0.132 C 
BRANCH  32  33
ATOM     33  C   LIG    1       29.840 -20.013   6.756  0.00  0.00    +0.178 C 
BRANCH  33  35
ATOM     34  C   LIG    1       31.359 -18.606   7.869  0.00  0.00    +0.193 C 
ATOM     35  O   LIG    1       30.500 -18.748   6.744  0.00  0.00    -0.381 OA
ENDBRANCH  33  35
ENDBRANCH  32  33
ENDBRANCH  28  32
ENDBRANCH  27  30
ENDBRANCH  26  27
BRANCH  26  36
ATOM     36  C   LIG    1       24.197 -22.785   6.312  0.00  0.00    +0.206 C 
BRANCH  36  37
ATOM     37  C   LIG    1       24.119 -21.670   5.273  0.00  0.00    +0.319 C 
ATOM     38  O   LIG    1       23.117 -21.055   4.942  0.00  0.00    -0.250 OA
BRANCH  37  39
ATOM     39  O   LIG    1       25.288 -21.434   4.645  0.00  0.00    -0.480 OA
ATOM     40  H   LIG    1       25.199 -21.942   3.809  0.00  0.00    +0.295 HD
ENDBRANCH  37  39
ENDBRANCH  36  37
ENDBRANCH  26  36
ENDBRANCH  25  26
ENDBRANCH  24  25
ENDBRANCH   1  24
TORSDOF 25
ENDMDL
