MODEL 1
REMARK VINA RESULT:      -5.3      0.000      0.000
REMARK  Name = *****
REMARK                            x       y       z     vdW  Elec       q    Type
REMARK                         _______ _______ _______ _____ _____    ______ ____
ROOT
ATOM      1  N   LIG    1       25.754 -17.417   3.216  0.00  0.00    -0.183 NA
ATOM      2  C   LIG    1       26.720 -16.635   3.586  0.00  0.00    +0.176 C 
ENDROOT
BRANCH   1   7
ATOM      3  N   LIG    1       23.672 -19.013   3.666  0.00  0.00    -0.312 N 
ATOM      4  H   LIG    1       23.662 -18.005   3.743  0.00  0.00    +0.146 HD
ATOM      5  H   LIG    1       22.871 -19.553   3.958  0.00  0.00    +0.146 HD
ATOM      6  C   LIG    1       24.893 -19.595   3.732  0.00  0.00    +0.317 C 
ATOM      7  N   LIG    1       25.942 -18.746   3.494  0.00  0.00    -0.191 N 
ATOM      8  H   LIG    1       26.868 -19.161   3.500  0.00  0.00    +0.179 HD
ATOM      9  O   LIG    1       25.043 -20.787   3.971  0.00  0.00    -0.251 OA
ENDBRANCH   1   7
BRANCH   2  10
ATOM     10  C   LIG    1       26.646 -15.224   3.335  0.00  0.00    +0.154 A 
ATOM     11  O   LIG    1       25.408 -14.642   3.252  0.00  0.00    -0.399 OA
ATOM     12  C   LIG    1       25.623 -13.317   3.030  0.00  0.00    +0.438 A 
ATOM     13  C   LIG    1       26.964 -13.025   2.958  0.00  0.00    +0.132 A 
ATOM     14  C   LIG    1       27.627 -14.260   3.163  0.00  0.00    +0.058 A 
BRANCH  12  15
ATOM     15  N   LIG    1       24.464 -12.487   2.925  0.00  0.00    +0.119 N 
ATOM     16  O   LIG    1       24.184 -12.024   1.813  0.00  0.00    -0.574 OA
ATOM     17  O   LIG    1       23.826 -12.302   3.972  0.00  0.00    +0.045 OA
ENDBRANCH  12  15
ENDBRANCH   2  10
TORSDOF 3
ENDMDL
MODEL 2
REMARK VINA RESULT:      -4.9      2.356      2.544
REMARK  Name = *****
REMARK                            x       y       z     vdW  Elec       q    Type
REMARK                         _______ _______ _______ _____ _____    ______ ____
ROOT
ATOM      1  N   LIG    1       25.234 -17.827   3.330  0.00  0.00    -0.183 NA
ATOM      2  C   LIG    1       26.379 -17.224   3.400  0.00  0.00    +0.176 C 
ENDROOT
BRANCH   1   7
ATOM      3  N   LIG    1       23.180 -19.303   4.162  0.00  0.00    -0.312 N 
ATOM      4  H   LIG    1       23.345 -18.338   4.415  0.00  0.00    +0.146 HD
ATOM      5  H   LIG    1       22.439 -19.824   4.604  0.00  0.00    +0.146 HD
ATOM      6  C   LIG    1       24.260 -19.985   3.711  0.00  0.00    +0.317 C 
ATOM      7  N   LIG    1       25.298 -19.195   3.289  0.00  0.00    -0.191 N 
ATOM      8  H   LIG    1       26.107 -19.678   2.912  0.00  0.00    +0.179 HD
ATOM      9  O   LIG    1       24.297 -21.209   3.672  0.00  0.00    -0.251 OA
ENDBRANCH   1   7
BRANCH   2  10
ATOM     10  C   LIG    1       26.443 -15.790   3.432  0.00  0.00    +0.154 A 
ATOM     11  O   LIG    1       27.588 -15.200   3.899  0.00  0.00    -0.399 OA
ATOM     12  C   LIG    1       27.392 -13.857   3.806  0.00  0.00    +0.438 A 
ATOM     13  C   LIG    1       26.148 -13.560   3.301  0.00  0.00    +0.132 A 
ATOM     14  C   LIG    1       25.536 -14.813   3.053  0.00  0.00    +0.058 A 
BRANCH  12  15
ATOM     15  N   LIG    1       28.472 -13.019   4.222  0.00  0.00    +0.119 N 
ATOM     16  O   LIG    1       29.448 -12.919   3.470  0.00  0.00    -0.574 OA
ATOM     17  O   LIG    1       28.335 -12.453   5.316  0.00  0.00    +0.045 OA
ENDBRANCH  12  15
ENDBRANCH   2  10
TORSDOF 3
ENDMDL
MODEL 3
REMARK VINA RESULT:      -4.5      2.262      5.972
REMARK  Name = *****
REMARK                            x       y       z     vdW  Elec       q    Type
REMARK                         _______ _______ _______ _____ _____    ______ ____
ROOT
ATOM      1  N   LIG    1       25.804 -16.122   3.309  0.00  0.00    -0.183 NA
ATOM      2  C   LIG    1       26.266 -17.331   3.243  0.00  0.00    +0.176 C 
ENDROOT
BRANCH   1   7
ATOM      3  N   LIG    1       25.957 -13.859   4.704  0.00  0.00    -0.312 N 
ATOM      4  H   LIG    1       25.169 -14.493   4.704  0.00  0.00    +0.146 HD
ATOM      5  H   LIG    1       25.894 -12.970   5.175  0.00  0.00    +0.146 HD
ATOM      6  C   LIG    1       26.794 -13.963   3.644  0.00  0.00    +0.317 C 
ATOM      7  N   LIG    1       26.690 -15.140   2.949  0.00  0.00    -0.191 N 
ATOM      8  H   LIG    1       27.331 -15.262   2.171  0.00  0.00    +0.179 HD
ATOM      9  O   LIG    1       27.588 -13.080   3.342  0.00  0.00    -0.251 OA
ENDBRANCH   1   7
BRANCH   2  10
ATOM     10  C   LIG    1       25.438 -18.444   3.611  0.00  0.00    +0.154 A 
ATOM     11  O   LIG    1       24.102 -18.219   3.819  0.00  0.00    -0.399 OA
ATOM     12  C   LIG    1       23.555 -19.426   4.132  0.00  0.00    +0.438 A 
ATOM     13  C   LIG    1       24.501 -20.423   4.143  0.00  0.00    +0.132 A 
ATOM     14  C   LIG    1       25.719 -19.788   3.798  0.00  0.00    +0.058 A 
BRANCH  12  15
ATOM     15  N   LIG    1       22.148 -19.449   4.377  0.00  0.00    +0.119 N 
ATOM     16  O   LIG    1       21.500 -18.429   4.122  0.00  0.00    -0.574 OA
ATOM     17  O   LIG    1       21.689 -20.509   4.828  0.00  0.00    +0.045 OA
ENDBRANCH  12  15
ENDBRANCH   2  10
TORSDOF 3
ENDMDL
MODEL 4
REMARK VINA RESULT:      -4.4      2.077      6.070
REMARK  Name = *****
REMARK                            x       y       z     vdW  Elec       q    Type
REMARK                         _______ _______ _______ _____ _____    ______ ____
ROOT
ATOM      1  N   LIG    1       25.669 -16.193   3.324  0.00  0.00    -0.183 NA
ATOM      2  C   LIG    1       26.181 -17.383   3.264  0.00  0.00    +0.176 C 
ENDROOT
BRANCH   1   7
ATOM      3  N   LIG    1       24.834 -13.665   3.351  0.00  0.00    -0.312 N 
ATOM      4  H   LIG    1       24.234 -14.477   3.318  0.00  0.00    +0.146 HD
ATOM      5  H   LIG    1       24.445 -12.740   3.250  0.00  0.00    +0.146 HD
ATOM      6  C   LIG    1       26.115 -13.865   2.957  0.00  0.00    +0.317 C 
ATOM      7  N   LIG    1       26.512 -15.178   2.957  0.00  0.00    -0.191 N 
ATOM      8  H   LIG    1       27.478 -15.355   2.701  0.00  0.00    +0.179 HD
ATOM      9  O   LIG    1       26.859 -12.944   2.642  0.00  0.00    -0.251 OA
ENDBRANCH   1   7
BRANCH   2  10
ATOM     10  C   LIG    1       25.400 -18.527   3.639  0.00  0.00    +0.154 A 
ATOM     11  O   LIG    1       24.057 -18.357   3.852  0.00  0.00    -0.399 OA
ATOM     12  C   LIG    1       23.562 -19.583   4.173  0.00  0.00    +0.438 A 
ATOM     13  C   LIG    1       24.548 -20.541   4.184  0.00  0.00    +0.132 A 
ATOM     14  C   LIG    1       25.738 -19.857   3.831  0.00  0.00    +0.058 A 
BRANCH  12  15
ATOM     15  N   LIG    1       22.158 -19.664   4.425  0.00  0.00    +0.119 N 
ATOM     16  O   LIG    1       21.709 -20.730   4.860  0.00  0.00    -0.574 OA
ATOM     17  O   LIG    1       21.500 -18.641   4.184  0.00  0.00    +0.045 OA
ENDBRANCH  12  15
ENDBRANCH   2  10
TORSDOF 3
ENDMDL
MODEL 5
REMARK VINA RESULT:      -4.4      5.413      6.905
REMARK  Name = *****
REMARK                            x       y       z     vdW  Elec       q    Type
REMARK                         _______ _______ _______ _____ _____    ______ ____
ROOT
ATOM      1  N   LIG    1       23.003 -19.893   5.305  0.00  0.00    -0.183 NA
ATOM      2  C   LIG    1       24.041 -20.468   4.784  0.00  0.00    +0.176 C 
ENDROOT
BRANCH   1   7
ATOM      3  N   LIG    1       22.298 -17.427   4.593  0.00  0.00    -0.312 N 
ATOM      4  H   LIG    1       22.836 -17.665   5.414  0.00  0.00    +0.146 HD
ATOM      5  H   LIG    1       21.980 -16.480   4.450  0.00  0.00    +0.146 HD
ATOM      6  C   LIG    1       21.567 -18.433   4.057  0.00  0.00    +0.317 C 
ATOM      7  N   LIG    1       21.957 -19.689   4.443  0.00  0.00    -0.191 N 
ATOM      8  H   LIG    1       21.450 -20.465   4.029  0.00  0.00    +0.179 HD
ATOM      9  O   LIG    1       20.641 -18.234   3.279  0.00  0.00    -0.251 OA
ENDBRANCH   1   7
BRANCH   2  10
ATOM     10  C   LIG    1       25.207 -20.721   5.583  0.00  0.00    +0.154 A 
ATOM     11  O   LIG    1       26.357 -20.038   5.288  0.00  0.00    -0.399 OA
ATOM     12  C   LIG    1       27.287 -20.446   6.195  0.00  0.00    +0.438 A 
ATOM     13  C   LIG    1       26.774 -21.380   7.062  0.00  0.00    +0.132 A 
ATOM     14  C   LIG    1       25.423 -21.553   6.669  0.00  0.00    +0.058 A 
BRANCH  12  15
ATOM     15  N   LIG    1       28.582 -19.850   6.100  0.00  0.00    +0.119 N 
ATOM     16  O   LIG    1       29.475 -20.287   6.834  0.00  0.00    -0.574 OA
ATOM     17  O   LIG    1       28.703 -18.932   5.274  0.00  0.00    +0.045 OA
ENDBRANCH  12  15
ENDBRANCH   2  10
TORSDOF 3
ENDMDL
MODEL 6
REMARK VINA RESULT:      -4.2      2.601      3.229
REMARK  Name = *****
REMARK                            x       y       z     vdW  Elec       q    Type
REMARK                         _______ _______ _______ _____ _____    ______ ____
ROOT
ATOM      1  N   LIG    1       23.139 -17.991   4.129  0.00  0.00    -0.183 NA
ATOM      2  C   LIG    1       22.748 -16.809   4.489  0.00  0.00    +0.176 C 
ENDROOT
BRANCH   1   7
ATOM      3  N   LIG    1       24.007 -20.314   5.098  0.00  0.00    -0.312 N 
ATOM      4  H   LIG    1       24.574 -19.639   4.605  0.00  0.00    +0.146 HD
ATOM      5  H   LIG    1       24.384 -21.218   5.339  0.00  0.00    +0.146 HD
ATOM      6  C   LIG    1       22.670 -20.213   4.902  0.00  0.00    +0.317 C 
ATOM      7  N   LIG    1       22.257 -19.004   4.404  0.00  0.00    -0.191 N 
ATOM      8  H   LIG    1       21.257 -18.886   4.280  0.00  0.00    +0.179 HD
ATOM      9  O   LIG    1       21.894 -21.125   5.163  0.00  0.00    -0.251 OA
ENDBRANCH   1   7
BRANCH   2  10
ATOM     10  C   LIG    1       23.592 -15.669   4.269  0.00  0.00    +0.154 A 
ATOM     11  O   LIG    1       24.841 -15.876   3.744  0.00  0.00    -0.399 OA
ATOM     12  C   LIG    1       25.413 -14.647   3.624  0.00  0.00    +0.438 A 
ATOM     13  C   LIG    1       24.575 -13.651   4.064  0.00  0.00    +0.132 A 
ATOM     14  C   LIG    1       23.391 -14.314   4.476  0.00  0.00    +0.058 A 
BRANCH  12  15
ATOM     15  N   LIG    1       26.731 -14.604   3.073  0.00  0.00    +0.119 N 
ATOM     16  O   LIG    1       26.852 -14.261   1.892  0.00  0.00    -0.574 OA
ATOM     17  O   LIG    1       27.655 -14.915   3.839  0.00  0.00    +0.045 OA
ENDBRANCH  12  15
ENDBRANCH   2  10
TORSDOF 3
ENDMDL
MODEL 7
REMARK VINA RESULT:      -4.2      2.251      6.633
REMARK  Name = *****
REMARK                            x       y       z     vdW  Elec       q    Type
REMARK                         _______ _______ _______ _____ _____    ______ ____
ROOT
ATOM      1  N   LIG    1       26.034 -16.901   3.259  0.00  0.00    -0.183 NA
ATOM      2  C   LIG    1       24.853 -17.393   3.471  0.00  0.00    +0.176 C 
ENDROOT
BRANCH   1   7
ATOM      3  N   LIG    1       27.940 -15.278   4.164  0.00  0.00    -0.312 N 
ATOM      4  H   LIG    1       27.671 -16.156   4.588  0.00  0.00    +0.146 HD
ATOM      5  H   LIG    1       28.598 -14.670   4.628  0.00  0.00    +0.146 HD
ATOM      6  C   LIG    1       27.022 -14.717   3.341  0.00  0.00    +0.317 C 
ATOM      7  N   LIG    1       26.056 -15.581   2.893  0.00  0.00    -0.191 N 
ATOM      8  H   LIG    1       25.375 -15.197   2.246  0.00  0.00    +0.179 HD
ATOM      9  O   LIG    1       27.063 -13.537   3.016  0.00  0.00    -0.251 OA
ENDBRANCH   1   7
BRANCH   2  10
ATOM     10  C   LIG    1       24.699 -18.771   3.844  0.00  0.00    +0.154 A 
ATOM     11  O   LIG    1       23.551 -19.144   4.492  0.00  0.00    -0.399 OA
ATOM     12  C   LIG    1       23.653 -20.484   4.710  0.00  0.00    +0.438 A 
ATOM     13  C   LIG    1       24.839 -20.987   4.230  0.00  0.00    +0.132 A 
ATOM     14  C   LIG    1       25.514 -19.877   3.662  0.00  0.00    +0.058 A 
BRANCH  12  15
ATOM     15  N   LIG    1       22.551 -21.115   5.364  0.00  0.00    +0.119 N 
ATOM     16  O   LIG    1       21.473 -21.164   4.762  0.00  0.00    -0.574 OA
ATOM     17  O   LIG    1       22.774 -21.568   6.496  0.00  0.00    +0.045 OA
ENDBRANCH  12  15
ENDBRANCH   2  10
TORSDOF 3
ENDMDL
MODEL 8
REMARK VINA RESULT:      -4.1      2.018      6.761
REMARK  Name = *****
REMARK                            x       y       z     vdW  Elec       q    Type
REMARK                         _______ _______ _______ _____ _____    ______ ____
ROOT
ATOM      1  N   LIG    1       25.586 -16.715   3.327  0.00  0.00    -0.183 NA
ATOM      2  C   LIG    1       26.109 -17.901   3.313  0.00  0.00    +0.176 C 
ENDROOT
BRANCH   1   7
ATOM      3  N   LIG    1       24.976 -14.182   3.871  0.00  0.00    -0.312 N 
ATOM      4  H   LIG    1       24.315 -14.945   3.830  0.00  0.00    +0.146 HD
ATOM      5  H   LIG    1       24.651 -13.233   3.977  0.00  0.00    +0.146 HD
ATOM      6  C   LIG    1       26.150 -14.386   3.227  0.00  0.00    +0.317 C 
ATOM      7  N   LIG    1       26.434 -15.702   2.964  0.00  0.00    -0.191 N 
ATOM      8  H   LIG    1       27.324 -15.889   2.515  0.00  0.00    +0.179 HD
ATOM      9  O   LIG    1       26.902 -13.469   2.919  0.00  0.00    -0.251 OA
ENDBRANCH   1   7
BRANCH   2  10
ATOM     10  C   LIG    1       25.324 -19.043   3.690  0.00  0.00    +0.154 A 
ATOM     11  O   LIG    1       25.479 -19.549   4.954  0.00  0.00    -0.399 OA
ATOM     12  C   LIG    1       24.619 -20.600   5.053  0.00  0.00    +0.438 A 
ATOM     13  C   LIG    1       23.919 -20.794   3.886  0.00  0.00    +0.132 A 
ATOM     14  C   LIG    1       24.372 -19.781   3.005  0.00  0.00    +0.058 A 
BRANCH  12  15
ATOM     15  N   LIG    1       24.584 -21.287   6.305  0.00  0.00    +0.119 N 
ATOM     16  O   LIG    1       23.478 -21.546   6.792  0.00  0.00    -0.574 OA
ATOM     17  O   LIG    1       25.683 -21.571   6.804  0.00  0.00    +0.045 OA
ENDBRANCH  12  15
ENDBRANCH   2  10
TORSDOF 3
ENDMDL
MODEL 9
REMARK VINA RESULT:      -4.0      2.137      2.366
REMARK  Name = *****
REMARK                            x       y       z     vdW  Elec       q    Type
REMARK                         _______ _______ _______ _____ _____    ______ ____
ROOT
ATOM      1  N   LIG    1       27.778 -17.323   4.177  0.00  0.00    -0.183 NA
ATOM      2  C   LIG    1       27.968 -16.061   4.405  0.00  0.00    +0.176 C 
ENDROOT
BRANCH   1   7
ATOM      3  N   LIG    1       26.935 -19.752   4.868  0.00  0.00    -0.312 N 
ATOM      4  H   LIG    1       26.337 -18.976   4.621  0.00  0.00    +0.146 HD
ATOM      5  H   LIG    1       26.537 -20.608   5.221  0.00  0.00    +0.146 HD
ATOM      6  C   LIG    1       28.193 -19.427   5.252  0.00  0.00    +0.317 C 
ATOM      7  N   LIG    1       28.595 -18.171   4.879  0.00  0.00    -0.191 N 
ATOM      8  H   LIG    1       29.546 -17.912   5.121  0.00  0.00    +0.179 HD
ATOM      9  O   LIG    1       28.914 -20.201   5.870  0.00  0.00    -0.251 OA
ENDBRANCH   1   7
BRANCH   2  10
ATOM     10  C   LIG    1       27.184 -15.075   3.718  0.00  0.00    +0.154 A 
ATOM     11  O   LIG    1       25.871 -14.922   4.078  0.00  0.00    -0.399 OA
ATOM     12  C   LIG    1       25.373 -13.926   3.295  0.00  0.00    +0.438 A 
ATOM     13  C   LIG    1       26.324 -13.436   2.432  0.00  0.00    +0.132 A 
ATOM     14  C   LIG    1       27.499 -14.177   2.711  0.00  0.00    +0.058 A 
BRANCH  12  15
ATOM     15  N   LIG    1       24.006 -13.567   3.503  0.00  0.00    +0.119 N 
ATOM     16  O   LIG    1       23.250 -14.421   3.980  0.00  0.00    -0.574 OA
ATOM     17  O   LIG    1       23.689 -12.411   3.187  0.00  0.00    +0.045 OA
ENDBRANCH  12  15
ENDBRANCH   2  10
TORSDOF 3
ENDMDL
