MODEL 1
REMARK VINA RESULT:      -5.7      0.000      0.000
REMARK  Name = *****
REMARK                            x       y       z     vdW  Elec       q    Type
REMARK                         _______ _______ _______ _____ _____    ______ ____
ROOT
ATOM      1  C   LIG    1       26.141 -31.578   9.887  0.00  0.00    +0.062 A 
ATOM      2  C   LIG    1       24.813 -31.650  10.367  0.00  0.00    +0.058 A 
ATOM      3  I   LIG    1       24.355 -30.713  12.241  0.00  0.00    -0.040 I 
ATOM      4  C   LIG    1       23.773 -32.213   9.575  0.00  0.00    +0.065 A 
ATOM      5  C   LIG    1       24.040 -32.436   8.200  0.00  0.00    +0.049 A 
ATOM      6  I   LIG    1       22.791 -33.656   6.966  0.00  0.00    -0.041 I 
ATOM      7  C   LIG    1       25.307 -32.139   7.678  0.00  0.00    +0.067 A 
ATOM      8  C   LIG    1       26.366 -31.991   8.570  0.00  0.00    +0.049 A 
ATOM      9  I   LIG    1       27.777 -33.701   8.335  0.00  0.00    -0.041 I 
ENDROOT
BRANCH   1  12
ATOM     10  C   LIG    1       28.783 -29.431  11.572  0.00  0.00    +0.109 C 
ATOM     11  C   LIG    1       27.667 -29.743  10.618  0.00  0.00    +0.214 C 
ATOM     12  N   LIG    1       27.189 -31.043  10.688  0.00  0.00    -0.284 N 
ATOM     13  H   LIG    1       27.505 -31.624  11.457  0.00  0.00    +0.155 HD
ATOM     14  O   LIG    1       27.225 -28.857   9.894  0.00  0.00    -0.276 OA
ENDBRANCH   1  12
BRANCH   4  15
ATOM     15  N   LIG    1       22.499 -32.544  10.154  0.00  0.00    -0.273 N 
ATOM     16  C   LIG    1       21.495 -31.568  10.171  0.00  0.00    +0.216 C 
ATOM     17  O   LIG    1       21.643 -30.431   9.721  0.00  0.00    -0.276 OA
ATOM     18  C   LIG    1       20.187 -31.954  10.827  0.00  0.00    +0.110 C 
ATOM     19  C   LIG    1       22.354 -33.824  10.842  0.00  0.00    +0.138 C 
ENDBRANCH   4  15
BRANCH   7  20
ATOM     20  C   LIG    1       25.347 -31.273   6.456  0.00  0.00    +0.247 C 
ATOM     21  N   LIG    1       25.550 -29.910   6.671  0.00  0.00    -0.301 N 
ATOM     22  H   LIG    1       26.080 -29.608   7.486  0.00  0.00    +0.150 HD
ATOM     23  O   LIG    1       25.119 -31.731   5.350  0.00  0.00    -0.270 OA
BRANCH  21  24
ATOM     24  C   LIG    1       25.519 -28.956   5.542  0.00  0.00    +0.160 C 
ATOM     25  C   LIG    1       24.106 -28.359   5.329  0.00  0.00    +0.270 C 
ATOM     26  O   LIG    1       23.750 -27.405   6.323  0.00  0.00    -0.341 OA
ATOM     27  C   LIG    1       24.642 -26.276   6.389  0.00  0.00    +0.178 C 
ATOM     28  C   LIG    1       26.089 -26.728   6.655  0.00  0.00    +0.176 C 
ATOM     29  C   LIG    1       26.561 -27.832   5.693  0.00  0.00    +0.170 C 
BRANCH  25  30
ATOM     30  O   LIG    1       23.122 -29.386   5.344  0.00  0.00    -0.365 OA
ATOM     31  H   LIG    1       22.306 -28.953   5.038  0.00  0.00    +0.212 HD
ENDBRANCH  25  30
BRANCH  28  32
ATOM     32  O   LIG    1       26.167 -27.266   7.981  0.00  0.00    -0.387 OA
ATOM     33  H   LIG    1       27.044 -27.064   8.351  0.00  0.00    +0.210 HD
ENDBRANCH  28  32
BRANCH  29  34
ATOM     34  O   LIG    1       26.847 -27.258   4.413  0.00  0.00    -0.387 OA
ATOM     35  H   LIG    1       26.956 -26.298   4.557  0.00  0.00    +0.210 HD
ENDBRANCH  29  34
BRANCH  27  36
ATOM     36  C   LIG    1       24.482 -25.361   5.163  0.00  0.00    +0.190 C 
BRANCH  36  37
ATOM     37  O   LIG    1       25.587 -24.458   5.092  0.00  0.00    -0.392 OA
ATOM     38  H   LIG    1       26.368 -24.951   5.416  0.00  0.00    +0.209 HD
ENDBRANCH  36  37
ENDBRANCH  27  36
ENDBRANCH  21  24
ENDBRANCH   7  20
TORSDOF 9
ENDMDL
MODEL 2
REMARK VINA RESULT:      -5.3      3.676      5.430
REMARK  Name = *****
REMARK                            x       y       z     vdW  Elec       q    Type
REMARK                         _______ _______ _______ _____ _____    ______ ____
ROOT
ATOM      1  C   LIG    1       24.739 -27.290  14.085  0.00  0.00    +0.062 A 
ATOM      2  C   LIG    1       23.504 -27.973  13.989  0.00  0.00    +0.058 A 
ATOM      3  I   LIG    1       21.697 -26.849  14.251  0.00  0.00    -0.040 I 
ATOM      4  C   LIG    1       23.447 -29.340  13.599  0.00  0.00    +0.065 A 
ATOM      5  C   LIG    1       24.618 -29.915  13.040  0.00  0.00    +0.049 A 
ATOM      6  I   LIG    1       24.867 -32.026  12.808  0.00  0.00    -0.041 I 
ATOM      7  C   LIG    1       25.786 -29.148  12.927  0.00  0.00    +0.067 A 
ATOM      8  C   LIG    1       25.885 -27.987  13.689  0.00  0.00    +0.049 A 
ATOM      9  I   LIG    1       27.426 -28.270  15.275  0.00  0.00    -0.041 I 
ENDROOT
BRANCH   1  12
ATOM     10  C   LIG    1       25.436 -23.582  14.524  0.00  0.00    +0.109 C 
ATOM     11  C   LIG    1       25.536 -24.934  13.880  0.00  0.00    +0.214 C 
ATOM     12  N   LIG    1       24.802 -25.931  14.504  0.00  0.00    -0.284 N 
ATOM     13  H   LIG    1       24.149 -25.656  15.230  0.00  0.00    +0.155 HD
ATOM     14  O   LIG    1       26.195 -25.068  12.854  0.00  0.00    -0.276 OA
ENDBRANCH   1  12
BRANCH   4  15
ATOM     15  N   LIG    1       22.243 -30.108  13.769  0.00  0.00    -0.273 N 
ATOM     16  C   LIG    1       21.401 -30.290  12.665  0.00  0.00    +0.216 C 
ATOM     17  O   LIG    1       21.629 -29.820  11.549  0.00  0.00    -0.276 OA
ATOM     18  C   LIG    1       20.128 -31.072  12.907  0.00  0.00    +0.110 C 
ATOM     19  C   LIG    1       21.867 -30.531  15.115  0.00  0.00    +0.138 C 
ENDBRANCH   4  15
BRANCH   7  20
ATOM     20  C   LIG    1       26.440 -29.112  11.580  0.00  0.00    +0.247 C 
ATOM     21  N   LIG    1       25.629 -29.426  10.489  0.00  0.00    -0.301 N 
ATOM     22  H   LIG    1       24.631 -29.231  10.539  0.00  0.00    +0.150 HD
ATOM     23  O   LIG    1       27.637 -28.911  11.465  0.00  0.00    -0.270 OA
BRANCH  21  24
ATOM     24  C   LIG    1       26.196 -29.505   9.126  0.00  0.00    +0.160 C 
ATOM     25  C   LIG    1       26.688 -30.934   8.789  0.00  0.00    +0.270 C 
ATOM     26  O   LIG    1       25.624 -31.847   8.547  0.00  0.00    -0.341 OA
ATOM     27  C   LIG    1       24.769 -31.463   7.453  0.00  0.00    +0.178 C 
ATOM     28  C   LIG    1       24.160 -30.069   7.689  0.00  0.00    +0.176 C 
ATOM     29  C   LIG    1       25.213 -29.007   8.050  0.00  0.00    +0.170 C 
BRANCH  25  30
ATOM     30  O   LIG    1       27.472 -31.457   9.854  0.00  0.00    -0.365 OA
ATOM     31  H   LIG    1       27.320 -30.848  10.597  0.00  0.00    +0.212 HD
ENDBRANCH  25  30
BRANCH  28  32
ATOM     32  O   LIG    1       23.246 -30.145   8.790  0.00  0.00    -0.387 OA
ATOM     33  H   LIG    1       22.366 -30.386   8.451  0.00  0.00    +0.210 HD
ENDBRANCH  28  32
BRANCH  29  34
ATOM     34  O   LIG    1       25.931 -28.627   6.872  0.00  0.00    -0.387 OA
ATOM     35  H   LIG    1       26.615 -29.312   6.731  0.00  0.00    +0.210 HD
ENDBRANCH  29  34
BRANCH  27  36
ATOM     36  C   LIG    1       25.481 -31.621   6.100  0.00  0.00    +0.190 C 
BRANCH  36  37
ATOM     37  O   LIG    1       24.826 -30.816   5.117  0.00  0.00    -0.392 OA
ATOM     38  H   LIG    1       24.686 -29.938   5.527  0.00  0.00    +0.209 HD
ENDBRANCH  36  37
ENDBRANCH  27  36
ENDBRANCH  21  24
ENDBRANCH   7  20
TORSDOF 9
ENDMDL
MODEL 3
REMARK VINA RESULT:      -5.2      3.313      4.785
REMARK  Name = *****
REMARK                            x       y       z     vdW  Elec       q    Type
REMARK                         _______ _______ _______ _____ _____    ______ ____
ROOT
ATOM      1  C   LIG    1       24.806 -28.676  13.764  0.00  0.00    +0.062 A 
ATOM      2  C   LIG    1       23.393 -28.691  13.815  0.00  0.00    +0.058 A 
ATOM      3  I   LIG    1       22.353 -26.817  13.768  0.00  0.00    -0.040 I 
ATOM      4  C   LIG    1       22.667 -29.914  13.766  0.00  0.00    +0.065 A 
ATOM      5  C   LIG    1       23.373 -31.083  13.382  0.00  0.00    +0.049 A 
ATOM      6  I   LIG    1       22.586 -33.051  13.671  0.00  0.00    -0.041 I 
ATOM      7  C   LIG    1       24.745 -31.011  13.106  0.00  0.00    +0.067 A 
ATOM      8  C   LIG    1       25.450 -29.902  13.566  0.00  0.00    +0.049 A 
ATOM      9  I   LIG    1       26.834 -30.527  15.199  0.00  0.00    -0.041 I 
ENDROOT
BRANCH   1  12
ATOM     10  C   LIG    1       27.027 -25.649  13.186  0.00  0.00    +0.109 C 
ATOM     11  C   LIG    1       26.369 -26.956  12.853  0.00  0.00    +0.214 C 
ATOM     12  N   LIG    1       25.537 -27.457  13.843  0.00  0.00    -0.284 N 
ATOM     13  H   LIG    1       25.314 -26.852  14.626  0.00  0.00    +0.155 HD
ATOM     14  O   LIG    1       26.558 -27.465  11.753  0.00  0.00    -0.276 OA
ENDBRANCH   1  12
BRANCH   4  15
ATOM     15  N   LIG    1       21.269 -29.957  14.097  0.00  0.00    -0.273 N 
ATOM     16  C   LIG    1       20.332 -29.950  13.056  0.00  0.00    +0.216 C 
ATOM     17  O   LIG    1       20.638 -29.902  11.864  0.00  0.00    -0.276 OA
ATOM     18  C   LIG    1       18.873 -29.957  13.459  0.00  0.00    +0.110 C 
ATOM     19  C   LIG    1       20.877 -29.847  15.499  0.00  0.00    +0.138 C 
ENDBRANCH   4  15
BRANCH   7  20
ATOM     20  C   LIG    1       25.202 -31.589  11.801  0.00  0.00    +0.247 C 
ATOM     21  N   LIG    1       24.702 -30.983  10.648  0.00  0.00    -0.301 N 
ATOM     22  H   LIG    1       24.456 -29.995  10.672  0.00  0.00    +0.150 HD
ATOM     23  O   LIG    1       25.895 -32.591  11.762  0.00  0.00    -0.270 OA
BRANCH  21  24
ATOM     24  C   LIG    1       25.020 -31.529   9.312  0.00  0.00    +0.160 C 
ATOM     25  C   LIG    1       23.807 -31.449   8.353  0.00  0.00    +0.270 C 
ATOM     26  O   LIG    1       23.542 -30.126   7.900  0.00  0.00    -0.341 OA
ATOM     27  C   LIG    1       24.641 -29.527   7.187  0.00  0.00    +0.178 C 
ATOM     28  C   LIG    1       25.911 -29.491   8.055  0.00  0.00    +0.176 C 
ATOM     29  C   LIG    1       26.252 -30.855   8.679  0.00  0.00    +0.170 C 
BRANCH  25  30
ATOM     30  O   LIG    1       22.631 -31.929   8.992  0.00  0.00    -0.365 OA
ATOM     31  H   LIG    1       22.901 -32.102   9.911  0.00  0.00    +0.212 HD
ENDBRANCH  25  30
BRANCH  28  32
ATOM     32  O   LIG    1       25.703 -28.574   9.137  0.00  0.00    -0.387 OA
ATOM     33  H   LIG    1       26.570 -28.281   9.471  0.00  0.00    +0.210 HD
ENDBRANCH  28  32
BRANCH  29  34
ATOM     34  O   LIG    1       26.814 -31.710   7.678  0.00  0.00    -0.387 OA
ATOM     35  H   LIG    1       26.778 -32.618   8.036  0.00  0.00    +0.210 HD
ENDBRANCH  29  34
BRANCH  27  36
ATOM     36  C   LIG    1       24.837 -30.177   5.807  0.00  0.00    +0.190 C 
BRANCH  36  37
ATOM     37  O   LIG    1       26.163 -29.921   5.341  0.00  0.00    -0.392 OA
ATOM     38  H   LIG    1       26.149 -30.066   4.374  0.00  0.00    +0.209 HD
ENDBRANCH  36  37
ENDBRANCH  27  36
ENDBRANCH  21  24
ENDBRANCH   7  20
TORSDOF 9
ENDMDL
MODEL 4
REMARK VINA RESULT:      -4.9      3.271      4.612
REMARK  Name = *****
REMARK                            x       y       z     vdW  Elec       q    Type
REMARK                         _______ _______ _______ _____ _____    ______ ____
ROOT
ATOM      1  C   LIG    1       25.839 -30.698  14.178  0.00  0.00    +0.062 A 
ATOM      2  C   LIG    1       24.752 -29.796  14.246  0.00  0.00    +0.058 A 
ATOM      3  I   LIG    1       25.149 -27.764  14.803  0.00  0.00    -0.040 I 
ATOM      4  C   LIG    1       23.447 -30.183  13.830  0.00  0.00    +0.065 A 
ATOM      5  C   LIG    1       23.323 -31.387  13.088  0.00  0.00    +0.049 A 
ATOM      6  I   LIG    1       21.441 -32.349  12.762  0.00  0.00    -0.041 I 
ATOM      7  C   LIG    1       24.458 -32.165  12.826  0.00  0.00    +0.067 A 
ATOM      8  C   LIG    1       25.597 -31.947  13.597  0.00  0.00    +0.049 A 
ATOM      9  I   LIG    1       25.937 -33.701  14.930  0.00  0.00    -0.041 I 
ENDROOT
BRANCH   1  12
ATOM     10  C   LIG    1       29.474 -29.646  14.515  0.00  0.00    +0.109 C 
ATOM     11  C   LIG    1       28.206 -30.004  13.795  0.00  0.00    +0.214 C 
ATOM     12  N   LIG    1       27.139 -30.324  14.621  0.00  0.00    -0.284 N 
ATOM     13  H   LIG    1       27.240 -30.148  15.615  0.00  0.00    +0.155 HD
ATOM     14  O   LIG    1       28.170 -29.949  12.570  0.00  0.00    -0.276 OA
ENDBRANCH   1  12
BRANCH   4  15
ATOM     15  N   LIG    1       22.299 -29.380  14.154  0.00  0.00    -0.273 N 
ATOM     16  C   LIG    1       21.859 -28.431  13.223  0.00  0.00    +0.216 C 
ATOM     17  O   LIG    1       22.408 -28.237  12.136  0.00  0.00    -0.276 OA
ATOM     18  C   LIG    1       20.672 -27.585  13.628  0.00  0.00    +0.110 C 
ATOM     19  C   LIG    1       21.737 -29.474  15.497  0.00  0.00    +0.138 C 
ENDBRANCH   4  15
BRANCH   7  20
ATOM     20  C   LIG    1       24.693 -32.555  11.398  0.00  0.00    +0.247 C 
ATOM     21  N   LIG    1       24.920 -31.512  10.501  0.00  0.00    -0.301 N 
ATOM     22  H   LIG    1       25.351 -30.652  10.837  0.00  0.00    +0.150 HD
ATOM     23  O   LIG    1       24.594 -33.715  11.036  0.00  0.00    -0.270 OA
BRANCH  21  24
ATOM     24  C   LIG    1       25.076 -31.781   9.056  0.00  0.00    +0.160 C 
ATOM     25  C   LIG    1       23.760 -31.537   8.279  0.00  0.00    +0.270 C 
ATOM     26  O   LIG    1       23.449 -30.156   8.127  0.00  0.00    -0.341 OA
ATOM     27  C   LIG    1       24.460 -29.410   7.423  0.00  0.00    +0.178 C 
ATOM     28  C   LIG    1       25.823 -29.520   8.128  0.00  0.00    +0.176 C 
ATOM     29  C   LIG    1       26.228 -30.973   8.428  0.00  0.00    +0.170 C 
BRANCH  25  30
ATOM     30  O   LIG    1       22.665 -32.155   8.944  0.00  0.00    -0.365 OA
ATOM     31  H   LIG    1       21.890 -31.620   8.698  0.00  0.00    +0.212 HD
ENDBRANCH  25  30
BRANCH  28  32
ATOM     32  O   LIG    1       25.749 -28.837   9.385  0.00  0.00    -0.387 OA
ATOM     33  H   LIG    1       26.491 -29.126   9.945  0.00  0.00    +0.210 HD
ENDBRANCH  28  32
BRANCH  29  34
ATOM     34  O   LIG    1       26.665 -31.606   7.221  0.00  0.00    -0.387 OA
ATOM     35  H   LIG    1       27.574 -31.287   7.053  0.00  0.00    +0.210 HD
ENDBRANCH  29  34
BRANCH  27  36
ATOM     36  C   LIG    1       24.489 -29.774   5.929  0.00  0.00    +0.190 C 
BRANCH  36  37
ATOM     37  O   LIG    1       23.224 -29.471   5.338  0.00  0.00    -0.392 OA
ATOM     38  H   LIG    1       23.292 -28.559   4.992  0.00  0.00    +0.209 HD
ENDBRANCH  36  37
ENDBRANCH  27  36
ENDBRANCH  21  24
ENDBRANCH   7  20
TORSDOF 9
ENDMDL
MODEL 5
REMARK VINA RESULT:      -4.1      3.512      5.845
REMARK  Name = *****
REMARK                            x       y       z     vdW  Elec       q    Type
REMARK                         _______ _______ _______ _____ _____    ______ ____
ROOT
ATOM      1  C   LIG    1       24.032 -31.662  12.855  0.00  0.00    +0.062 A 
ATOM      2  C   LIG    1       25.068 -30.881  13.417  0.00  0.00    +0.058 A 
ATOM      3  I   LIG    1       25.513 -31.128  15.500  0.00  0.00    -0.040 I 
ATOM      4  C   LIG    1       25.886 -30.047  12.604  0.00  0.00    +0.065 A 
ATOM      5  C   LIG    1       25.825 -30.234  11.199  0.00  0.00    +0.049 A 
ATOM      6  I   LIG    1       26.623 -28.816   9.812  0.00  0.00    -0.041 I 
ATOM      7  C   LIG    1       24.949 -31.186  10.659  0.00  0.00    +0.067 A 
ATOM      8  C   LIG    1       23.912 -31.653  11.461  0.00  0.00    +0.049 A 
ATOM      9  I   LIG    1       21.968 -30.894  10.677  0.00  0.00    -0.041 I 
ENDROOT
BRANCH   1  12
ATOM     10  C   LIG    1       21.385 -33.080  15.182  0.00  0.00    +0.109 C 
ATOM     11  C   LIG    1       22.105 -32.019  14.401  0.00  0.00    +0.214 C 
ATOM     12  N   LIG    1       23.192 -32.473  13.669  0.00  0.00    -0.284 N 
ATOM     13  H   LIG    1       23.324 -33.476  13.589  0.00  0.00    +0.155 HD
ATOM     14  O   LIG    1       21.683 -30.868  14.413  0.00  0.00    -0.276 OA
ENDBRANCH   1  12
BRANCH   4  15
ATOM     15  N   LIG    1       26.742 -29.052  13.191  0.00  0.00    -0.273 N 
ATOM     16  C   LIG    1       26.215 -27.779  13.446  0.00  0.00    +0.216 C 
ATOM     17  O   LIG    1       25.054 -27.459  13.188  0.00  0.00    -0.276 OA
ATOM     18  C   LIG    1       27.167 -26.757  14.027  0.00  0.00    +0.110 C 
ATOM     19  C   LIG    1       28.161 -29.355  13.351  0.00  0.00    +0.138 C 
ENDBRANCH   4  15
BRANCH   7  20
ATOM     20  C   LIG    1       25.537 -32.174   9.698  0.00  0.00    +0.247 C 
ATOM     21  N   LIG    1       25.130 -32.062   8.369  0.00  0.00    -0.301 N 
ATOM     22  H   LIG    1       24.858 -31.149   8.007  0.00  0.00    +0.150 HD
ATOM     23  O   LIG    1       26.255 -33.080  10.085  0.00  0.00    -0.270 OA
BRANCH  21  24
ATOM     24  C   LIG    1       25.581 -33.040   7.357  0.00  0.00    +0.160 C 
ATOM     25  C   LIG    1       24.424 -33.488   6.432  0.00  0.00    +0.270 C 
ATOM     26  O   LIG    1       24.041 -32.489   5.494  0.00  0.00    -0.341 OA
ATOM     27  C   LIG    1       25.106 -32.082   4.613  0.00  0.00    +0.178 C 
ATOM     28  C   LIG    1       26.313 -31.556   5.409  0.00  0.00    +0.176 C 
ATOM     29  C   LIG    1       26.766 -32.517   6.521  0.00  0.00    +0.170 C 
BRANCH  25  30
ATOM     30  O   LIG    1       23.274 -33.824   7.197  0.00  0.00    -0.365 OA
ATOM     31  H   LIG    1       22.916 -34.624   6.772  0.00  0.00    +0.212 HD
ENDBRANCH  25  30
BRANCH  28  32
ATOM     32  O   LIG    1       25.945 -30.324   6.044  0.00  0.00    -0.387 OA
ATOM     33  H   LIG    1       26.707 -29.991   6.550  0.00  0.00    +0.210 HD
ENDBRANCH  28  32
BRANCH  29  34
ATOM     34  O   LIG    1       27.475 -33.617   5.941  0.00  0.00    -0.387 OA
ATOM     35  H   LIG    1       28.283 -33.740   6.477  0.00  0.00    +0.210 HD
ENDBRANCH  29  34
BRANCH  27  36
ATOM     36  C   LIG    1       25.451 -33.187   3.601  0.00  0.00    +0.190 C 
BRANCH  36  37
ATOM     37  O   LIG    1       26.796 -33.018   3.147  0.00  0.00    -0.392 OA
ATOM     38  H   LIG    1       26.772 -32.314   2.468  0.00  0.00    +0.209 HD
ENDBRANCH  36  37
ENDBRANCH  27  36
ENDBRANCH  21  24
ENDBRANCH   7  20
TORSDOF 9
ENDMDL
MODEL 6
REMARK VINA RESULT:      -3.6      2.880      6.979
REMARK  Name = *****
REMARK                            x       y       z     vdW  Elec       q    Type
REMARK                         _______ _______ _______ _____ _____    ______ ____
ROOT
ATOM      1  C   LIG    1       26.051 -29.669  10.044  0.00  0.00    +0.062 A 
ATOM      2  C   LIG    1       26.224 -29.351  11.411  0.00  0.00    +0.058 A 
ATOM      3  I   LIG    1       26.649 -27.317  11.938  0.00  0.00    -0.040 I 
ATOM      4  C   LIG    1       25.995 -30.321  12.428  0.00  0.00    +0.065 A 
ATOM      5  C   LIG    1       25.321 -31.514  12.059  0.00  0.00    +0.049 A 
ATOM      6  I   LIG    1       25.277 -33.246  13.312  0.00  0.00    -0.041 I 
ATOM      7  C   LIG    1       24.944 -31.718  10.724  0.00  0.00    +0.067 A 
ATOM      8  C   LIG    1       25.553 -30.941   9.743  0.00  0.00    +0.049 A 
ATOM      9  I   LIG    1       26.896 -32.223   8.509  0.00  0.00    -0.041 I 
ENDROOT
BRANCH   1  12
ATOM     10  C   LIG    1       26.001 -27.413   6.988  0.00  0.00    +0.109 C 
ATOM     11  C   LIG    1       25.502 -28.479   7.920  0.00  0.00    +0.214 C 
ATOM     12  N   LIG    1       26.309 -28.710   9.024  0.00  0.00    -0.284 N 
ATOM     13  H   LIG    1       27.067 -28.060   9.202  0.00  0.00    +0.155 HD
ATOM     14  O   LIG    1       24.431 -29.031   7.690  0.00  0.00    -0.276 OA
ENDBRANCH   1  12
BRANCH   4  15
ATOM     15  N   LIG    1       26.434 -30.095  13.778  0.00  0.00    -0.273 N 
ATOM     16  C   LIG    1       27.806 -30.147  14.056  0.00  0.00    +0.216 C 
ATOM     17  O   LIG    1       28.665 -30.384  13.205  0.00  0.00    -0.276 OA
ATOM     18  C   LIG    1       28.212 -29.941  15.499  0.00  0.00    +0.110 C 
ATOM     19  C   LIG    1       25.429 -29.978  14.830  0.00  0.00    +0.138 C 
ENDBRANCH   4  15
BRANCH   7  20
ATOM     20  C   LIG    1       23.514 -32.091  10.478  0.00  0.00    +0.247 C 
ATOM     21  N   LIG    1       22.561 -31.439  11.260  0.00  0.00    -0.301 N 
ATOM     22  H   LIG    1       22.756 -30.499  11.603  0.00  0.00    +0.150 HD
ATOM     23  O   LIG    1       23.219 -32.983   9.701  0.00  0.00    -0.270 OA
BRANCH  21  24
ATOM     24  C   LIG    1       21.130 -31.795  11.159  0.00  0.00    +0.160 C 
ATOM     25  C   LIG    1       20.632 -32.548  12.416  0.00  0.00    +0.270 C 
ATOM     26  O   LIG    1       20.481 -31.700  13.549  0.00  0.00    -0.341 OA
ATOM     27  C   LIG    1       19.546 -30.623  13.346  0.00  0.00    +0.178 C 
ATOM     28  C   LIG    1       19.957 -29.752  12.147  0.00  0.00    +0.176 C 
ATOM     29  C   LIG    1       20.238 -30.571  10.876  0.00  0.00    +0.170 C 
BRANCH  25  30
ATOM     30  O   LIG    1       21.540 -33.584  12.771  0.00  0.00    -0.365 OA
ATOM     31  H   LIG    1       22.072 -33.211  13.495  0.00  0.00    +0.212 HD
ENDBRANCH  25  30
BRANCH  28  32
ATOM     32  O   LIG    1       21.167 -29.057  12.474  0.00  0.00    -0.387 OA
ATOM     33  H   LIG    1       21.160 -28.845  13.424  0.00  0.00    +0.210 HD
ENDBRANCH  28  32
BRANCH  29  34
ATOM     34  O   LIG    1       18.999 -30.995  10.298  0.00  0.00    -0.387 OA
ATOM     35  H   LIG    1       18.368 -31.097  11.038  0.00  0.00    +0.210 HD
ENDBRANCH  29  34
BRANCH  27  36
ATOM     36  C   LIG    1       18.099 -31.139  13.286  0.00  0.00    +0.190 C 
BRANCH  36  37
ATOM     37  O   LIG    1       17.202 -30.035  13.151  0.00  0.00    -0.392 OA
ATOM     38  H   LIG    1       17.637 -29.398  12.550  0.00  0.00    +0.209 HD
ENDBRANCH  36  37
ENDBRANCH  27  36
ENDBRANCH  21  24
ENDBRANCH   7  20
TORSDOF 9
ENDMDL
MODEL 7
REMARK VINA RESULT:      -3.1      4.348      8.470
REMARK  Name = *****
REMARK                            x       y       z     vdW  Elec       q    Type
REMARK                         _______ _______ _______ _____ _____    ______ ____
ROOT
ATOM      1  C   LIG    1       25.549 -28.513  13.505  0.00  0.00    +0.062 A 
ATOM      2  C   LIG    1       26.131 -29.156  12.388  0.00  0.00    +0.058 A 
ATOM      3  I   LIG    1       28.267 -29.327  12.310  0.00  0.00    -0.040 I 
ATOM      4  C   LIG    1       25.326 -29.792  11.401  0.00  0.00    +0.065 A 
ATOM      5  C   LIG    1       23.958 -30.010  11.710  0.00  0.00    +0.049 A 
ATOM      6  I   LIG    1       22.512 -30.534  10.224  0.00  0.00    -0.041 I 
ATOM      7  C   LIG    1       23.439 -29.567  12.934  0.00  0.00    +0.067 A 
ATOM      8  C   LIG    1       24.162 -28.614  13.647  0.00  0.00    +0.049 A 
ATOM      9  I   LIG    1       23.058 -26.677  13.624  0.00  0.00    -0.041 I 
ENDROOT
BRANCH   1  12
ATOM     10  C   LIG    1       27.732 -26.126  15.497  0.00  0.00    +0.109 C 
ATOM     11  C   LIG    1       26.929 -26.600  14.320  0.00  0.00    +0.214 C 
ATOM     12  N   LIG    1       26.351 -27.850  14.477  0.00  0.00    -0.284 N 
ATOM     13  H   LIG    1       26.377 -28.273  15.399  0.00  0.00    +0.155 HD
ATOM     14  O   LIG    1       26.794 -25.867  13.346  0.00  0.00    -0.276 OA
ENDBRANCH   1  12
BRANCH   4  15
ATOM     15  N   LIG    1       25.883 -30.195  10.139  0.00  0.00    -0.273 N 
ATOM     16  C   LIG    1       26.240 -31.537   9.960  0.00  0.00    +0.216 C 
ATOM     17  O   LIG    1       26.109 -32.398  10.831  0.00  0.00    -0.276 OA
ATOM     18  C   LIG    1       26.858 -31.901   8.628  0.00  0.00    +0.110 C 
ATOM     19  C   LIG    1       26.201 -29.165   9.154  0.00  0.00    +0.138 C 
ENDBRANCH   4  15
BRANCH   7  20
ATOM     20  C   LIG    1       22.688 -30.573  13.751  0.00  0.00    +0.247 C 
ATOM     21  N   LIG    1       21.296 -30.499  13.698  0.00  0.00    -0.301 N 
ATOM     22  H   LIG    1       20.849 -30.140  12.856  0.00  0.00    +0.150 HD
ATOM     23  O   LIG    1       23.271 -31.347  14.491  0.00  0.00    -0.270 OA
BRANCH  21  24
ATOM     24  C   LIG    1       20.461 -31.388  14.533  0.00  0.00    +0.160 C 
ATOM     25  C   LIG    1       19.158 -30.691  14.992  0.00  0.00    +0.270 C 
ATOM     26  O   LIG    1       18.203 -30.551  13.946  0.00  0.00    -0.341 OA
ATOM     27  C   LIG    1       17.790 -31.803  13.368  0.00  0.00    +0.178 C 
ATOM     28  C   LIG    1       18.996 -32.583  12.815  0.00  0.00    +0.176 C 
ATOM     29  C   LIG    1       20.140 -32.722  13.833  0.00  0.00    +0.170 C 
BRANCH  25  30
ATOM     30  O   LIG    1       19.437 -29.391  15.498  0.00  0.00    -0.365 OA
ATOM     31  H   LIG    1       19.622 -29.527  16.444  0.00  0.00    +0.212 HD
ENDBRANCH  25  30
BRANCH  28  32
ATOM     32  O   LIG    1       19.523 -31.875  11.685  0.00  0.00    -0.387 OA
ATOM     33  H   LIG    1       20.129 -32.464  11.201  0.00  0.00    +0.210 HD
ENDBRANCH  28  32
BRANCH  29  34
ATOM     34  O   LIG    1       19.793 -33.712  14.807  0.00  0.00    -0.387 OA
ATOM     35  H   LIG    1       19.742 -33.250  15.667  0.00  0.00    +0.210 HD
ENDBRANCH  29  34
BRANCH  27  36
ATOM     36  C   LIG    1       16.909 -32.608  14.338  0.00  0.00    +0.190 C 
BRANCH  36  37
ATOM     37  O   LIG    1       15.863 -31.773  14.839  0.00  0.00    -0.392 OA
ATOM     38  H   LIG    1       16.157 -30.850  14.703  0.00  0.00    +0.209 HD
ENDBRANCH  36  37
ENDBRANCH  27  36
ENDBRANCH  21  24
ENDBRANCH   7  20
TORSDOF 9
ENDMDL
MODEL 8
REMARK VINA RESULT:      -3.0      3.772      7.230
REMARK  Name = *****
REMARK                            x       y       z     vdW  Elec       q    Type
REMARK                         _______ _______ _______ _____ _____    ______ ____
ROOT
ATOM      1  C   LIG    1       22.995 -32.676  10.789  0.00  0.00    +0.062 A 
ATOM      2  C   LIG    1       23.628 -32.668   9.524  0.00  0.00    +0.058 A 
ATOM      3  I   LIG    1       22.588 -33.527   7.858  0.00  0.00    -0.040 I 
ATOM      4  C   LIG    1       24.866 -31.993   9.325  0.00  0.00    +0.065 A 
ATOM      5  C   LIG    1       25.300 -31.101  10.340  0.00  0.00    +0.049 A 
ATOM      6  I   LIG    1       27.298 -30.347  10.432  0.00  0.00    -0.041 I 
ATOM      7  C   LIG    1       24.534 -30.942  11.503  0.00  0.00    +0.067 A 
ATOM      8  C   LIG    1       23.585 -31.915  11.803  0.00  0.00    +0.049 A 
ATOM      9  I   LIG    1       24.241 -33.063  13.597  0.00  0.00    -0.041 I 
ENDROOT
BRANCH   1  12
ATOM     10  C   LIG    1       19.388 -33.749  11.307  0.00  0.00    +0.109 C 
ATOM     11  C   LIG    1       20.518 -32.789  11.075  0.00  0.00    +0.214 C 
ATOM     12  N   LIG    1       21.772 -33.375  10.999  0.00  0.00    -0.284 N 
ATOM     13  H   LIG    1       21.821 -34.386  10.947  0.00  0.00    +0.155 HD
ATOM     14  O   LIG    1       20.276 -31.596  10.926  0.00  0.00    -0.276 OA
ENDBRANCH   1  12
BRANCH   4  15
ATOM     15  N   LIG    1       25.645 -32.214   8.137  0.00  0.00    -0.273 N 
ATOM     16  C   LIG    1       25.446 -31.370   7.037  0.00  0.00    +0.216 C 
ATOM     17  O   LIG    1       24.630 -30.448   7.025  0.00  0.00    -0.276 OA
ATOM     18  C   LIG    1       26.263 -31.669   5.799  0.00  0.00    +0.110 C 
ATOM     19  C   LIG    1       26.495 -33.399   8.067  0.00  0.00    +0.138 C 
ENDBRANCH   4  15
BRANCH   7  20
ATOM     20  C   LIG    1       24.187 -29.538  11.894  0.00  0.00    +0.247 C 
ATOM     21  N   LIG    1       22.893 -29.331  12.372  0.00  0.00    -0.301 N 
ATOM     22  H   LIG    1       22.411 -30.091  12.849  0.00  0.00    +0.150 HD
ATOM     23  O   LIG    1       24.968 -28.619  11.710  0.00  0.00    -0.270 OA
BRANCH  21  24
ATOM     24  C   LIG    1       22.420 -27.970  12.703  0.00  0.00    +0.160 C 
ATOM     25  C   LIG    1       20.882 -27.919  12.873  0.00  0.00    +0.270 C 
ATOM     26  O   LIG    1       20.436 -28.517  14.086  0.00  0.00    -0.341 OA
ATOM     27  C   LIG    1       20.978 -27.900  15.269  0.00  0.00    +0.178 C 
ATOM     28  C   LIG    1       22.517 -27.932  15.256  0.00  0.00    +0.176 C 
ATOM     29  C   LIG    1       23.118 -27.391  13.948  0.00  0.00    +0.170 C 
BRANCH  25  30
ATOM     30  O   LIG    1       20.238 -28.592  11.799  0.00  0.00    -0.365 OA
ATOM     31  H   LIG    1       20.194 -29.523  12.078  0.00  0.00    +0.212 HD
ENDBRANCH  25  30
BRANCH  28  32
ATOM     32  O   LIG    1       22.950 -29.292  15.386  0.00  0.00    -0.387 OA
ATOM     33  H   LIG    1       23.035 -29.681  14.498  0.00  0.00    +0.210 HD
ENDBRANCH  28  32
BRANCH  29  34
ATOM     34  O   LIG    1       23.028 -25.963  13.937  0.00  0.00    -0.387 OA
ATOM     35  H   LIG    1       23.938 -25.627  13.812  0.00  0.00    +0.210 HD
ENDBRANCH  29  34
BRANCH  27  36
ATOM     36  C   LIG    1       20.378 -26.503  15.500  0.00  0.00    +0.190 C 
BRANCH  36  37
ATOM     37  O   LIG    1       18.951 -26.582  15.454  0.00  0.00    -0.392 OA
ATOM     38  H   LIG    1       18.651 -25.838  14.893  0.00  0.00    +0.209 HD
ENDBRANCH  36  37
ENDBRANCH  27  36
ENDBRANCH  21  24
ENDBRANCH   7  20
TORSDOF 9
ENDMDL
