MODEL 1
REMARK VINA RESULT:      -6.1      0.000      0.000
REMARK  Name = *****
REMARK                            x       y       z     vdW  Elec       q    Type
REMARK                         _______ _______ _______ _____ _____    ______ ____
ROOT
ATOM      1  C   LIG    1       24.551 -33.051   7.947  0.00  0.00    +0.014 C 
ATOM      2  C   LIG    1       24.775 -31.551   7.757  0.00  0.00    -0.000 C 
ATOM      3  C   LIG    1       24.735 -31.210   6.176  0.00  0.00    +0.069 C 
ATOM      4  C   LIG    1       25.099 -32.306   5.188  0.00  0.00    +0.042 C 
ATOM      5  C   LIG    1       25.308 -29.814   6.200  0.00  0.00    +0.035 C 
ATOM      6  C   LIG    1       24.470 -29.224   7.413  0.00  0.00    +0.007 C 
ATOM      7  C   LIG    1       23.757 -30.499   8.152  0.00  0.00    +0.001 C 
ATOM      8  C   LIG    1       23.377 -30.457   9.636  0.00  0.00    -0.004 C 
ATOM      9  C   LIG    1       23.076 -31.803  10.376  0.00  0.00    +0.004 C 
ATOM     10  C   LIG    1       24.045 -32.161  11.542  0.00  0.00    +0.005 C 
ATOM     11  C   LIG    1       24.136 -31.037  12.615  0.00  0.00    +0.001 C 
ATOM     12  C   LIG    1       24.002 -29.615  11.928  0.00  0.00    -0.022 C 
ATOM     13  C   LIG    1       22.504 -29.194  12.140  0.00  0.00    +0.012 C 
ATOM     14  C   LIG    1       24.811 -28.469  12.586  0.00  0.00    +0.045 C 
ATOM     15  C   LIG    1       26.158 -28.949  12.918  0.00  0.00    -0.006 A 
ATOM     16  C   LIG    1       26.342 -30.167  13.474  0.00  0.00    +0.040 A 
ATOM     17  N   LIG    1       27.678 -30.237  13.805  0.00  0.00    -0.281 N 
ATOM     18  H   LIG    1       28.161 -30.892  14.371  0.00  0.00    +0.189 HD
ATOM     19  N   LIG    1       28.377 -29.246  13.196  0.00  0.00    -0.182 NA
ATOM     20  C   LIG    1       27.448 -28.475  12.628  0.00  0.00    +0.138 A 
ATOM     21  C   LIG    1       25.299 -31.210  13.663  0.00  0.00    +0.059 C 
ATOM     22  C   LIG    1       24.415 -29.684  10.390  0.00  0.00    -0.001 C 
ATOM     23  C   LIG    1       25.839 -30.230   9.978  0.00  0.00    +0.005 C 
ATOM     24  C   LIG    1       26.043 -31.162   8.681  0.00  0.00    +0.010 C 
ENDROOT
BRANCH   3  25
ATOM     25  O   LIG    1       23.365 -30.968   5.683  0.00  0.00    -0.388 OA
ATOM     26  H   LIG    1       23.415 -30.263   5.009  0.00  0.00    +0.210 HD
ENDBRANCH   3  25
TORSDOF 1
ENDMDL
MODEL 2
REMARK VINA RESULT:      -5.9      3.431      5.934
REMARK  Name = *****
REMARK                            x       y       z     vdW  Elec       q    Type
REMARK                         _______ _______ _______ _____ _____    ______ ____
ROOT
ATOM      1  C   LIG    1       22.541 -32.463  12.621  0.00  0.00    +0.014 C 
ATOM      2  C   LIG    1       22.398 -30.959  12.385  0.00  0.00    -0.000 C 
ATOM      3  C   LIG    1       21.396 -30.346  13.499  0.00  0.00    +0.069 C 
ATOM      4  C   LIG    1       20.356 -31.262  14.121  0.00  0.00    +0.042 C 
ATOM      5  C   LIG    1       21.132 -28.992  12.888  0.00  0.00    +0.035 C 
ATOM      6  C   LIG    1       22.621 -28.601  12.500  0.00  0.00    +0.007 C 
ATOM      7  C   LIG    1       23.515 -29.965  12.640  0.00  0.00    +0.001 C 
ATOM      8  C   LIG    1       24.796 -30.173  11.827  0.00  0.00    -0.004 C 
ATOM      9  C   LIG    1       25.381 -31.619  11.696  0.00  0.00    +0.004 C 
ATOM     10  C   LIG    1       25.421 -32.201  10.251  0.00  0.00    +0.005 C 
ATOM     11  C   LIG    1       26.189 -31.285   9.255  0.00  0.00    +0.001 C 
ATOM     12  C   LIG    1       25.965 -29.761   9.632  0.00  0.00    -0.022 C 
ATOM     13  C   LIG    1       27.247 -29.344  10.436  0.00  0.00    +0.012 C 
ATOM     14  C   LIG    1       25.930 -28.770   8.441  0.00  0.00    +0.045 C 
ATOM     15  C   LIG    1       25.119 -29.337   7.357  0.00  0.00    -0.006 A 
ATOM     16  C   LIG    1       25.237 -30.637   7.010  0.00  0.00    +0.040 A 
ATOM     17  N   LIG    1       24.474 -30.800   5.875  0.00  0.00    -0.281 N 
ATOM     18  H   LIG    1       24.436 -31.557   5.235  0.00  0.00    +0.189 HD
ATOM     19  N   LIG    1       23.650 -29.737   5.692  0.00  0.00    -0.182 NA
ATOM     20  C   LIG    1       24.025 -28.854   6.619  0.00  0.00    +0.138 A 
ATOM     21  C   LIG    1       26.025 -31.669   7.736  0.00  0.00    +0.059 C 
ATOM     22  C   LIG    1       24.620 -29.571  10.466  0.00  0.00    -0.001 C 
ATOM     23  C   LIG    1       23.245 -30.075   9.874  0.00  0.00    +0.005 C 
ATOM     24  C   LIG    1       22.130 -30.771  10.803  0.00  0.00    +0.010 C 
ENDROOT
BRANCH   3  25
ATOM     25  O   LIG    1       22.093 -29.985  14.750  0.00  0.00    -0.388 OA
ATOM     26  H   LIG    1       22.883 -30.555  14.821  0.00  0.00    +0.210 HD
ENDBRANCH   3  25
TORSDOF 1
ENDMDL
MODEL 3
REMARK VINA RESULT:      -5.6      3.506      6.198
REMARK  Name = *****
REMARK                            x       y       z     vdW  Elec       q    Type
REMARK                         _______ _______ _______ _____ _____    ______ ____
ROOT
ATOM      1  C   LIG    1       21.344 -30.544  14.459  0.00  0.00    +0.014 C 
ATOM      2  C   LIG    1       21.607 -29.240  13.705  0.00  0.00    -0.000 C 
ATOM      3  C   LIG    1       20.685 -28.071  14.341  0.00  0.00    +0.069 C 
ATOM      4  C   LIG    1       19.392 -28.464  15.035  0.00  0.00    +0.042 C 
ATOM      5  C   LIG    1       20.831 -27.019  13.269  0.00  0.00    +0.035 C 
ATOM      6  C   LIG    1       22.401 -27.103  13.051  0.00  0.00    +0.007 C 
ATOM      7  C   LIG    1       22.906 -28.464  13.808  0.00  0.00    +0.001 C 
ATOM      8  C   LIG    1       24.169 -29.209  13.362  0.00  0.00    -0.004 C 
ATOM      9  C   LIG    1       24.383 -30.684  13.839  0.00  0.00    +0.004 C 
ATOM     10  C   LIG    1       24.419 -31.758  12.711  0.00  0.00    +0.005 C 
ATOM     11  C   LIG    1       25.486 -31.451  11.621  0.00  0.00    +0.001 C 
ATOM     12  C   LIG    1       25.615 -29.884  11.411  0.00  0.00    -0.022 C 
ATOM     13  C   LIG    1       26.875 -29.459  12.247  0.00  0.00    +0.012 C 
ATOM     14  C   LIG    1       25.947 -29.423   9.970  0.00  0.00    +0.045 C 
ATOM     15  C   LIG    1       25.132 -30.180   9.014  0.00  0.00    -0.006 A 
ATOM     16  C   LIG    1       24.954 -31.512   9.156  0.00  0.00    +0.040 A 
ATOM     17  N   LIG    1       24.291 -31.932   8.024  0.00  0.00    -0.281 N 
ATOM     18  H   LIG    1       24.129 -32.849   7.683  0.00  0.00    +0.189 HD
ATOM     19  N   LIG    1       23.782 -30.874   7.344  0.00  0.00    -0.182 NA
ATOM     20  C   LIG    1       24.273 -29.802   7.968  0.00  0.00    +0.138 A 
ATOM     21  C   LIG    1       25.382 -32.332  10.320  0.00  0.00    +0.059 C 
ATOM     22  C   LIG    1       24.285 -29.136  11.870  0.00  0.00    -0.001 C 
ATOM     23  C   LIG    1       22.893 -29.542  11.242  0.00  0.00    +0.005 C 
ATOM     24  C   LIG    1       21.552 -29.606  12.132  0.00  0.00    +0.010 C 
ENDROOT
BRANCH   3  25
ATOM     25  O   LIG    1       21.323 -27.416  15.500  0.00  0.00    -0.388 OA
ATOM     26  H   LIG    1       21.621 -26.532  15.211  0.00  0.00    +0.210 HD
ENDBRANCH   3  25
TORSDOF 1
ENDMDL
MODEL 4
REMARK VINA RESULT:      -5.6      1.556      1.962
REMARK  Name = *****
REMARK                            x       y       z     vdW  Elec       q    Type
REMARK                         _______ _______ _______ _____ _____    ______ ____
ROOT
ATOM      1  C   LIG    1       26.649 -32.296   9.277  0.00  0.00    +0.014 C 
ATOM      2  C   LIG    1       25.868 -31.055   8.847  0.00  0.00    -0.000 C 
ATOM      3  C   LIG    1       25.551 -31.156   7.264  0.00  0.00    +0.069 C 
ATOM      4  C   LIG    1       26.481 -31.981   6.390  0.00  0.00    +0.042 C 
ATOM      5  C   LIG    1       25.114 -29.736   6.999  0.00  0.00    +0.035 C 
ATOM      6  C   LIG    1       24.148 -29.538   8.242  0.00  0.00    +0.007 C 
ATOM      7  C   LIG    1       24.432 -30.789   9.260  0.00  0.00    +0.001 C 
ATOM      8  C   LIG    1       24.178 -30.673  10.766  0.00  0.00    -0.004 C 
ATOM      9  C   LIG    1       24.827 -31.725  11.725  0.00  0.00    +0.004 C 
ATOM     10  C   LIG    1       25.855 -31.159  12.749  0.00  0.00    +0.005 C 
ATOM     11  C   LIG    1       25.264 -30.017  13.626  0.00  0.00    +0.001 C 
ATOM     12  C   LIG    1       24.232 -29.160  12.781  0.00  0.00    -0.022 C 
ATOM     13  C   LIG    1       22.816 -29.706  13.183  0.00  0.00    +0.012 C 
ATOM     14  C   LIG    1       24.165 -27.651  13.130  0.00  0.00    +0.045 C 
ATOM     15  C   LIG    1       25.525 -27.126  13.293  0.00  0.00    -0.006 A 
ATOM     16  C   LIG    1       26.461 -27.824  13.973  0.00  0.00    +0.040 A 
ATOM     17  N   LIG    1       27.554 -26.992  14.080  0.00  0.00    -0.281 N 
ATOM     18  H   LIG    1       28.367 -27.077  14.642  0.00  0.00    +0.189 HD
ATOM     19  N   LIG    1       27.443 -25.939  13.231  0.00  0.00    -0.182 NA
ATOM     20  C   LIG    1       26.212 -26.038  12.727  0.00  0.00    +0.138 A 
ATOM     21  C   LIG    1       26.320 -29.216  14.477  0.00  0.00    +0.059 C 
ATOM     22  C   LIG    1       24.527 -29.288  11.220  0.00  0.00    -0.001 C 
ATOM     23  C   LIG    1       25.956 -28.924  10.653  0.00  0.00    +0.005 C 
ATOM     24  C   LIG    1       26.645 -29.788   9.482  0.00  0.00    +0.010 C 
ENDROOT
BRANCH   3  25
ATOM     25  O   LIG    1       24.316 -31.913   6.980  0.00  0.00    -0.388 OA
ATOM     26  H   LIG    1       24.465 -32.424   6.162  0.00  0.00    +0.210 HD
ENDBRANCH   3  25
TORSDOF 1
ENDMDL
MODEL 5
REMARK VINA RESULT:      -5.4      9.897     11.978
REMARK  Name = *****
REMARK                            x       y       z     vdW  Elec       q    Type
REMARK                         _______ _______ _______ _____ _____    ______ ____
ROOT
ATOM      1  C   LIG    1       28.621 -19.231   9.239  0.00  0.00    +0.014 C 
ATOM      2  C   LIG    1       28.966 -19.641   7.807  0.00  0.00    -0.000 C 
ATOM      3  C   LIG    1       30.545 -19.394   7.556  0.00  0.00    +0.069 C 
ATOM      4  C   LIG    1       31.254 -18.336   8.384  0.00  0.00    +0.042 C 
ATOM      5  C   LIG    1       30.588 -19.520   6.052  0.00  0.00    +0.035 C 
ATOM      6  C   LIG    1       29.700 -20.825   5.887  0.00  0.00    +0.007 C 
ATOM      7  C   LIG    1       28.973 -21.082   7.331  0.00  0.00    +0.001 C 
ATOM      8  C   LIG    1       27.639 -21.829   7.437  0.00  0.00    -0.004 C 
ATOM      9  C   LIG    1       26.805 -21.701   8.754  0.00  0.00    +0.004 C 
ATOM     10  C   LIG    1       25.406 -21.031   8.603  0.00  0.00    +0.005 C 
ATOM     11  C   LIG    1       24.513 -21.735   7.541  0.00  0.00    +0.001 C 
ATOM     12  C   LIG    1       25.409 -22.284   6.353  0.00  0.00    -0.022 C 
ATOM     13  C   LIG    1       25.613 -23.810   6.661  0.00  0.00    +0.012 C 
ATOM     14  C   LIG    1       24.752 -22.268   4.950  0.00  0.00    +0.045 C 
ATOM     15  C   LIG    1       24.051 -20.994   4.752  0.00  0.00    -0.006 A 
ATOM     16  C   LIG    1       23.299 -20.456   5.737  0.00  0.00    +0.040 A 
ATOM     17  N   LIG    1       22.661 -19.370   5.180  0.00  0.00    -0.281 N 
ATOM     18  H   LIG    1       21.910 -18.824   5.528  0.00  0.00    +0.189 HD
ATOM     19  N   LIG    1       23.226 -19.037   3.992  0.00  0.00    -0.182 NA
ATOM     20  C   LIG    1       24.098 -20.016   3.745  0.00  0.00    +0.138 A 
ATOM     21  C   LIG    1       23.211 -20.947   7.138  0.00  0.00    +0.059 C 
ATOM     22  C   LIG    1       26.783 -21.481   6.257  0.00  0.00    -0.001 C 
ATOM     23  C   LIG    1       26.771 -19.909   6.098  0.00  0.00    +0.005 C 
ATOM     24  C   LIG    1       27.838 -18.975   6.860  0.00  0.00    +0.010 C 
ENDROOT
BRANCH   3  25
ATOM     25  O   LIG    1       31.372 -20.542   7.980  0.00  0.00    -0.388 OA
ATOM     26  H   LIG    1       32.120 -20.189   8.500  0.00  0.00    +0.210 HD
ENDBRANCH   3  25
TORSDOF 1
ENDMDL
MODEL 6
REMARK VINA RESULT:      -5.4      2.926      4.596
REMARK  Name = *****
REMARK                            x       y       z     vdW  Elec       q    Type
REMARK                         _______ _______ _______ _____ _____    ______ ____
ROOT
ATOM      1  C   LIG    1       26.621 -29.411   9.214  0.00  0.00    +0.014 C 
ATOM      2  C   LIG    1       25.788 -30.494   9.901  0.00  0.00    -0.000 C 
ATOM      3  C   LIG    1       26.002 -31.895   9.119  0.00  0.00    +0.069 C 
ATOM      4  C   LIG    1       26.390 -31.854   7.651  0.00  0.00    +0.042 C 
ATOM      5  C   LIG    1       24.870 -32.696   9.715  0.00  0.00    +0.035 C 
ATOM      6  C   LIG    1       25.074 -32.315  11.242  0.00  0.00    +0.007 C 
ATOM      7  C   LIG    1       26.113 -31.050  11.275  0.00  0.00    +0.001 C 
ATOM      8  C   LIG    1       26.111 -30.037  12.425  0.00  0.00    -0.004 C 
ATOM      9  C   LIG    1       26.823 -28.659  12.219  0.00  0.00    +0.004 C 
ATOM     10  C   LIG    1       25.899 -27.407  12.287  0.00  0.00    +0.005 C 
ATOM     11  C   LIG    1       25.086 -27.330  13.612  0.00  0.00    +0.001 C 
ATOM     12  C   LIG    1       24.705 -28.789  14.104  0.00  0.00    -0.022 C 
ATOM     13  C   LIG    1       25.768 -29.144  15.202  0.00  0.00    +0.012 C 
ATOM     14  C   LIG    1       23.347 -28.918  14.839  0.00  0.00    +0.045 C 
ATOM     15  C   LIG    1       22.327 -28.145  14.122  0.00  0.00    -0.006 A 
ATOM     16  C   LIG    1       22.600 -26.909  13.648  0.00  0.00    +0.040 A 
ATOM     17  N   LIG    1       21.404 -26.405  13.185  0.00  0.00    -0.281 N 
ATOM     18  H   LIG    1       21.162 -25.481  12.919  0.00  0.00    +0.189 HD
ATOM     19  N   LIG    1       20.478 -27.391  13.070  0.00  0.00    -0.182 NA
ATOM     20  C   LIG    1       21.055 -28.463  13.617  0.00  0.00    +0.138 A 
ATOM     21  C   LIG    1       23.935 -26.255  13.626  0.00  0.00    +0.059 C 
ATOM     22  C   LIG    1       24.702 -29.817  12.886  0.00  0.00    -0.001 C 
ATOM     23  C   LIG    1       23.801 -29.540  11.618  0.00  0.00    +0.005 C 
ATOM     24  C   LIG    1       24.319 -29.861  10.128  0.00  0.00    +0.010 C 
ENDROOT
BRANCH   3  25
ATOM     25  O   LIG    1       27.185 -32.636   9.600  0.00  0.00    -0.388 OA
ATOM     26  H   LIG    1       27.327 -32.391  10.534  0.00  0.00    +0.210 HD
ENDBRANCH   3  25
TORSDOF 1
ENDMDL
MODEL 7
REMARK VINA RESULT:      -5.4      2.320      3.801
REMARK  Name = *****
REMARK                            x       y       z     vdW  Elec       q    Type
REMARK                         _______ _______ _______ _____ _____    ______ ____
ROOT
ATOM      1  C   LIG    1       25.230 -30.067   7.765  0.00  0.00    +0.014 C 
ATOM      2  C   LIG    1       24.597 -30.955   8.836  0.00  0.00    -0.000 C 
ATOM      3  C   LIG    1       24.043 -32.306   8.138  0.00  0.00    +0.069 C 
ATOM      4  C   LIG    1       23.662 -32.259   6.668  0.00  0.00    +0.042 C 
ATOM      5  C   LIG    1       23.185 -32.841   9.259  0.00  0.00    +0.035 C 
ATOM      6  C   LIG    1       24.195 -32.632  10.465  0.00  0.00    +0.007 C 
ATOM      7  C   LIG    1       25.398 -31.671   9.908  0.00  0.00    +0.001 C 
ATOM      8  C   LIG    1       26.210 -30.774  10.848  0.00  0.00    -0.004 C 
ATOM      9  C   LIG    1       27.052 -29.606  10.236  0.00  0.00    +0.004 C 
ATOM     10  C   LIG    1       26.627 -28.171  10.669  0.00  0.00    +0.005 C 
ATOM     11  C   LIG    1       26.613 -27.989  12.215  0.00  0.00    +0.001 C 
ATOM     12  C   LIG    1       26.166 -29.338  12.918  0.00  0.00    -0.022 C 
ATOM     13  C   LIG    1       27.502 -30.024  13.377  0.00  0.00    +0.012 C 
ATOM     14  C   LIG    1       25.356 -29.178  14.229  0.00  0.00    +0.045 C 
ATOM     15  C   LIG    1       24.348 -28.126  14.056  0.00  0.00    -0.006 A 
ATOM     16  C   LIG    1       24.656 -26.966  13.434  0.00  0.00    +0.040 A 
ATOM     17  N   LIG    1       23.557 -26.149  13.584  0.00  0.00    -0.281 N 
ATOM     18  H   LIG    1       23.457 -25.178  13.415  0.00  0.00    +0.189 HD
ATOM     19  N   LIG    1       22.479 -26.863  13.997  0.00  0.00    -0.182 NA
ATOM     20  C   LIG    1       22.958 -28.081  14.257  0.00  0.00    +0.138 A 
ATOM     21  C   LIG    1       25.926 -26.665  12.722  0.00  0.00    +0.059 C 
ATOM     22  C   LIG    1       25.312 -30.244  11.923  0.00  0.00    -0.001 C 
ATOM     23  C   LIG    1       24.011 -29.662  11.243  0.00  0.00    +0.005 C 
ATOM     24  C   LIG    1       23.637 -29.995   9.713  0.00  0.00    +0.010 C 
ENDROOT
BRANCH   3  25
ATOM     25  O   LIG    1       25.080 -33.351   8.024  0.00  0.00    -0.388 OA
ATOM     26  H   LIG    1       24.857 -33.903   7.250  0.00  0.00    +0.210 HD
ENDBRANCH   3  25
TORSDOF 1
ENDMDL
MODEL 8
REMARK VINA RESULT:      -5.3      2.258      3.872
REMARK  Name = *****
REMARK                            x       y       z     vdW  Elec       q    Type
REMARK                         _______ _______ _______ _____ _____    ______ ____
ROOT
ATOM      1  C   LIG    1       25.801 -28.685   8.166  0.00  0.00    +0.014 C 
ATOM      2  C   LIG    1       25.593 -30.071   8.776  0.00  0.00    -0.000 C 
ATOM      3  C   LIG    1       25.602 -31.174   7.592  0.00  0.00    +0.069 C 
ATOM      4  C   LIG    1       25.201 -30.738   6.192  0.00  0.00    +0.042 C 
ATOM      5  C   LIG    1       25.050 -32.361   8.343  0.00  0.00    +0.035 C 
ATOM      6  C   LIG    1       25.922 -32.246   9.663  0.00  0.00    +0.007 C 
ATOM      7  C   LIG    1       26.635 -30.772   9.627  0.00  0.00    +0.001 C 
ATOM      8  C   LIG    1       27.049 -30.048  10.913  0.00  0.00    -0.004 C 
ATOM      9  C   LIG    1       27.347 -28.514  10.852  0.00  0.00    +0.004 C 
ATOM     10  C   LIG    1       26.400 -27.609  11.696  0.00  0.00    +0.005 C 
ATOM     11  C   LIG    1       26.349 -28.025  13.195  0.00  0.00    +0.001 C 
ATOM     12  C   LIG    1       26.487 -29.599  13.329  0.00  0.00    -0.022 C 
ATOM     13  C   LIG    1       27.995 -29.852  13.687  0.00  0.00    +0.012 C 
ATOM     14  C   LIG    1       25.709 -30.246  14.502  0.00  0.00    +0.045 C 
ATOM     15  C   LIG    1       24.364 -29.665  14.576  0.00  0.00    -0.006 A 
ATOM     16  C   LIG    1       24.175 -28.334  14.436  0.00  0.00    +0.040 A 
ATOM     17  N   LIG    1       22.846 -28.105  14.719  0.00  0.00    -0.281 N 
ATOM     18  H   LIG    1       22.367 -27.253  14.883  0.00  0.00    +0.189 HD
ATOM     19  N   LIG    1       22.147 -29.268  14.721  0.00  0.00    -0.182 NA
ATOM     20  C   LIG    1       23.074 -30.221  14.604  0.00  0.00    +0.138 A 
ATOM     21  C   LIG    1       25.208 -27.341  14.037  0.00  0.00    +0.059 C 
ATOM     22  C   LIG    1       26.038 -30.327  11.983  0.00  0.00    -0.001 C 
ATOM     23  C   LIG    1       24.598 -30.070  11.388  0.00  0.00    +0.005 C 
ATOM     24  C   LIG    1       24.352 -29.933   9.802  0.00  0.00    +0.010 C 
ENDROOT
BRANCH   3  25
ATOM     25  O   LIG    1       26.965 -31.633   7.256  0.00  0.00    -0.388 OA
ATOM     26  H   LIG    1       27.182 -31.286   6.370  0.00  0.00    +0.210 HD
ENDBRANCH   3  25
TORSDOF 1
ENDMDL
MODEL 9
REMARK VINA RESULT:      -5.3      3.272      6.154
REMARK  Name = *****
REMARK                            x       y       z     vdW  Elec       q    Type
REMARK                         _______ _______ _______ _____ _____    ______ ____
ROOT
ATOM      1  C   LIG    1       28.617 -29.457  12.886  0.00  0.00    +0.014 C 
ATOM      2  C   LIG    1       27.256 -28.783  13.062  0.00  0.00    -0.000 C 
ATOM      3  C   LIG    1       27.396 -27.594  14.151  0.00  0.00    +0.069 C 
ATOM      4  C   LIG    1       28.492 -27.696  15.199  0.00  0.00    +0.042 C 
ATOM      5  C   LIG    1       25.936 -27.320  14.419  0.00  0.00    +0.035 C 
ATOM      6  C   LIG    1       25.409 -27.302  12.922  0.00  0.00    +0.007 C 
ATOM      7  C   LIG    1       26.610 -27.919  11.995  0.00  0.00    +0.001 C 
ATOM      8  C   LIG    1       26.319 -28.610  10.659  0.00  0.00    -0.004 C 
ATOM      9  C   LIG    1       27.424 -29.516  10.021  0.00  0.00    +0.004 C 
ATOM     10  C   LIG    1       27.055 -31.022   9.871  0.00  0.00    +0.005 C 
ATOM     11  C   LIG    1       25.739 -31.243   9.071  0.00  0.00    +0.001 C 
ATOM     12  C   LIG    1       24.718 -30.066   9.366  0.00  0.00    -0.022 C 
ATOM     13  C   LIG    1       24.861 -29.082   8.152  0.00  0.00    +0.012 C 
ATOM     14  C   LIG    1       23.219 -30.457   9.358  0.00  0.00    +0.045 C 
ATOM     15  C   LIG    1       23.039 -31.722  10.080  0.00  0.00    -0.006 A 
ATOM     16  C   LIG    1       23.895 -32.751   9.898  0.00  0.00    +0.040 A 
ATOM     17  N   LIG    1       23.357 -33.820  10.582  0.00  0.00    -0.281 N 
ATOM     18  H   LIG    1       23.598 -34.781  10.555  0.00  0.00    +0.189 HD
ATOM     19  N   LIG    1       22.378 -33.408  11.426  0.00  0.00    -0.182 NA
ATOM     20  C   LIG    1       22.204 -32.116  11.139  0.00  0.00    +0.138 A 
ATOM     21  C   LIG    1       25.164 -32.708   9.126  0.00  0.00    +0.059 C 
ATOM     22  C   LIG    1       25.035 -29.375  10.767  0.00  0.00    -0.001 C 
ATOM     23  C   LIG    1       25.084 -30.244  12.085  0.00  0.00    +0.005 C 
ATOM     24  C   LIG    1       26.179 -29.975  13.234  0.00  0.00    +0.010 C 
ENDROOT
BRANCH   3  25
ATOM     25  O   LIG    1       27.839 -26.322  13.547  0.00  0.00    -0.388 OA
ATOM     26  H   LIG    1       27.665 -26.375  12.588  0.00  0.00    +0.210 HD
ENDBRANCH   3  25
TORSDOF 1
ENDMDL
