MODEL 1
REMARK VINA RESULT:      -9.7      0.000      0.000
REMARK  Name = *****
REMARK                            x       y       z     vdW  Elec       q    Type
REMARK                         _______ _______ _______ _____ _____    ______ ____
ROOT
ATOM      1  C   LIG    1       24.742 -29.789   6.524  0.00  0.00    +0.299 A 
ATOM      2  N   LIG    1       25.472 -28.968   7.402  0.00  0.00    -0.289 N 
ATOM      3  C   LIG    1       25.067 -29.369   8.686  0.00  0.00    +0.086 A 
ATOM      4  C   LIG    1       23.831 -29.964   8.441  0.00  0.00    +0.093 A 
ATOM      5  C   LIG    1       22.967 -30.256   9.509  0.00  0.00    +0.030 A 
ATOM      6  C   LIG    1       23.384 -30.034  10.823  0.00  0.00    +0.003 A 
ATOM      7  C   LIG    1       24.672 -29.613  11.079  0.00  0.00    +0.017 A 
ATOM      8  C   LIG    1       25.541 -29.322  10.026  0.00  0.00    +0.085 A 
ATOM      9  N   LIG    1       23.669 -30.253   7.122  0.00  0.00    -0.195 NA
ENDROOT
BRANCH   8  10
ATOM     10  C   LIG    1       26.879 -28.939  10.394  0.00  0.00    +0.342 C 
ATOM     11  O   LIG    1       27.701 -29.729  10.174  0.00  0.00    -0.245 OA
BRANCH  10  12
ATOM     12  O   LIG    1       26.989 -27.713  10.955  0.00  0.00    -0.453 OA
BRANCH  12  13
ATOM     13  C   LIG    1       27.058 -27.528  12.395  0.00  0.00    +0.310 C 
BRANCH  13  14
ATOM     14  C   LIG    1       26.248 -26.447  13.066  0.00  0.00    +0.187 A 
ATOM     15  C   LIG    1       24.984 -26.324  13.438  0.00  0.00    +0.151 A 
ATOM     16  C   LIG    1       23.815 -27.221  13.428  0.00  0.00    +0.090 C 
ATOM     17  O   LIG    1       24.739 -25.119  14.060  0.00  0.00    -0.396 OA
ATOM     18  C   LIG    1       25.967 -24.508  13.989  0.00  0.00    +0.521 A 
ATOM     19  O   LIG    1       26.175 -23.393  14.446  0.00  0.00    -0.202 OA
ATOM     20  O   LIG    1       26.929 -25.263  13.340  0.00  0.00    -0.392 OA
ENDBRANCH  13  14
ENDBRANCH  12  13
ENDBRANCH  10  12
ENDBRANCH   8  10
BRANCH   1  21
ATOM     21  O   LIG    1       24.979 -30.129   5.243  0.00  0.00    -0.464 OA
BRANCH  21  23
ATOM     22  C   LIG    1       25.536 -32.450   4.446  0.00  0.00    +0.048 C 
ATOM     23  C   LIG    1       25.928 -31.150   5.083  0.00  0.00    +0.229 C 
ENDBRANCH  21  23
ENDBRANCH   1  21
BRANCH   2  24
ATOM     24  C   LIG    1       26.347 -27.824   7.065  0.00  0.00    +0.162 C 
BRANCH  24  25
ATOM     25  C   LIG    1       25.669 -26.476   6.872  0.00  0.00    -0.028 A 
ATOM     26  C   LIG    1       24.448 -26.322   6.237  0.00  0.00    +0.006 A 
ATOM     27  C   LIG    1       23.809 -25.061   6.223  0.00  0.00    +0.009 A 
ATOM     28  C   LIG    1       24.444 -23.838   6.541  0.00  0.00    -0.017 A 
ATOM     29  C   LIG    1       25.724 -24.002   7.063  0.00  0.00    +0.009 A 
ATOM     30  C   LIG    1       26.286 -25.287   7.266  0.00  0.00    +0.006 A 
BRANCH  28  31
ATOM     31  C   LIG    1       23.766 -22.520   6.208  0.00  0.00    -0.007 A 
ATOM     32  C   LIG    1       24.128 -21.197   6.599  0.00  0.00    +0.028 A 
ATOM     33  C   LIG    1       23.347 -20.086   6.165  0.00  0.00    +0.012 A 
ATOM     34  C   LIG    1       22.176 -20.236   5.430  0.00  0.00    +0.001 A 
ATOM     35  C   LIG    1       21.775 -21.506   5.074  0.00  0.00    +0.001 A 
ATOM     36  C   LIG    1       22.569 -22.608   5.426  0.00  0.00    +0.009 A 
BRANCH  32  37
ATOM     37  C   LIG    1       25.250 -20.805   7.491  0.00  0.00    +0.183 C 
ATOM     38  N   LIG    1       26.454 -20.483   6.975  0.00  0.00    -0.271 N 
ATOM     39  H   LIG    1       26.769 -20.429   6.023  0.00  0.00    +0.174 HD
ATOM     40  C   LIG    1       27.289 -20.294   8.007  0.00  0.00    +0.440 C 
ATOM     41  O   LIG    1       28.488 -20.087   7.923  0.00  0.00    -0.221 OA
ATOM     42  O   LIG    1       26.571 -20.406   9.165  0.00  0.00    -0.295 OA
ATOM     43  N   LIG    1       25.247 -20.775   8.779  0.00  0.00    -0.054 NA
ENDBRANCH  32  37
ENDBRANCH  28  31
ENDBRANCH  24  25
ENDBRANCH   2  24
TORSDOF 10
ENDMDL
MODEL 2
REMARK VINA RESULT:      -8.2      2.177      6.452
REMARK  Name = *****
REMARK                            x       y       z     vdW  Elec       q    Type
REMARK                         _______ _______ _______ _____ _____    ______ ____
ROOT
ATOM      1  C   LIG    1       26.227 -29.148   9.118  0.00  0.00    +0.299 A 
ATOM      2  N   LIG    1       25.838 -29.529   7.821  0.00  0.00    -0.289 N 
ATOM      3  C   LIG    1       25.394 -30.855   7.957  0.00  0.00    +0.086 A 
ATOM      4  C   LIG    1       26.029 -31.269   9.126  0.00  0.00    +0.093 A 
ATOM      5  C   LIG    1       26.061 -32.632   9.464  0.00  0.00    +0.030 A 
ATOM      6  C   LIG    1       25.379 -33.561   8.678  0.00  0.00    +0.003 A 
ATOM      7  C   LIG    1       24.601 -33.136   7.621  0.00  0.00    +0.017 A 
ATOM      8  C   LIG    1       24.559 -31.784   7.276  0.00  0.00    +0.085 A 
ATOM      9  N   LIG    1       26.492 -30.210   9.843  0.00  0.00    -0.195 NA
ENDROOT
BRANCH   8  10
ATOM     10  C   LIG    1       23.680 -31.432   6.192  0.00  0.00    +0.342 C 
ATOM     11  O   LIG    1       23.389 -30.309   6.131  0.00  0.00    -0.245 OA
BRANCH  10  12
ATOM     12  O   LIG    1       23.306 -32.464   5.401  0.00  0.00    -0.453 OA
BRANCH  12  13
ATOM     13  C   LIG    1       24.217 -33.544   5.060  0.00  0.00    +0.310 C 
BRANCH  13  14
ATOM     14  C   LIG    1       25.385 -33.296   4.139  0.00  0.00    +0.187 A 
ATOM     15  C   LIG    1       26.696 -33.217   4.295  0.00  0.00    +0.151 A 
ATOM     16  C   LIG    1       27.612 -33.408   5.435  0.00  0.00    +0.090 C 
ATOM     17  O   LIG    1       27.352 -33.002   3.102  0.00  0.00    -0.396 OA
ATOM     18  C   LIG    1       26.307 -32.915   2.216  0.00  0.00    +0.521 A 
ATOM     19  O   LIG    1       26.473 -32.728   1.019  0.00  0.00    -0.202 OA
ATOM     20  O   LIG    1       25.061 -33.041   2.807  0.00  0.00    -0.392 OA
ENDBRANCH  13  14
ENDBRANCH  12  13
ENDBRANCH  10  12
ENDBRANCH   8  10
BRANCH   1  21
ATOM     21  O   LIG    1       26.360 -27.927   9.668  0.00  0.00    -0.464 OA
BRANCH  21  23
ATOM     22  C   LIG    1       26.437 -27.152  12.061  0.00  0.00    +0.048 C 
ATOM     23  C   LIG    1       27.012 -27.922  10.910  0.00  0.00    +0.229 C 
ENDBRANCH  21  23
ENDBRANCH   1  21
BRANCH   2  24
ATOM     24  C   LIG    1       26.006 -28.775   6.560  0.00  0.00    +0.162 C 
BRANCH  24  25
ATOM     25  C   LIG    1       25.531 -27.330   6.557  0.00  0.00    -0.028 A 
ATOM     26  C   LIG    1       24.266 -26.945   6.149  0.00  0.00    +0.006 A 
ATOM     27  C   LIG    1       23.843 -25.606   6.311  0.00  0.00    +0.009 A 
ATOM     28  C   LIG    1       24.709 -24.520   6.582  0.00  0.00    -0.017 A 
ATOM     29  C   LIG    1       26.013 -24.916   6.870  0.00  0.00    +0.009 A 
ATOM     30  C   LIG    1       26.386 -26.282   6.905  0.00  0.00    +0.006 A 
BRANCH  28  31
ATOM     31  C   LIG    1       24.208 -23.094   6.441  0.00  0.00    -0.007 A 
ATOM     32  C   LIG    1       24.859 -21.872   6.783  0.00  0.00    +0.028 A 
ATOM     33  C   LIG    1       24.203 -20.626   6.559  0.00  0.00    +0.012 A 
ATOM     34  C   LIG    1       22.897 -20.543   6.088  0.00  0.00    +0.001 A 
ATOM     35  C   LIG    1       22.224 -21.708   5.790  0.00  0.00    +0.001 A 
ATOM     36  C   LIG    1       22.877 -22.941   5.932  0.00  0.00    +0.009 A 
BRANCH  32  37
ATOM     37  C   LIG    1       26.191 -21.719   7.425  0.00  0.00    +0.183 C 
ATOM     38  N   LIG    1       27.277 -21.417   6.683  0.00  0.00    -0.271 N 
ATOM     39  H   LIG    1       27.373 -21.236   5.700  0.00  0.00    +0.174 HD
ATOM     40  C   LIG    1       28.339 -21.463   7.500  0.00  0.00    +0.440 C 
ATOM     41  O   LIG    1       29.504 -21.343   7.160  0.00  0.00    -0.221 OA
ATOM     42  O   LIG    1       27.893 -21.701   8.771  0.00  0.00    -0.295 OA
ATOM     43  N   LIG    1       26.482 -21.895   8.667  0.00  0.00    -0.054 NA
ENDBRANCH  32  37
ENDBRANCH  28  31
ENDBRANCH  24  25
ENDBRANCH   2  24
TORSDOF 10
ENDMDL
MODEL 3
REMARK VINA RESULT:      -8.1      2.860      9.050
REMARK  Name = *****
REMARK                            x       y       z     vdW  Elec       q    Type
REMARK                         _______ _______ _______ _____ _____    ______ ____
ROOT
ATOM      1  C   LIG    1       23.850 -23.063   5.679  0.00  0.00    +0.299 A 
ATOM      2  N   LIG    1       25.212 -22.800   5.916  0.00  0.00    -0.289 N 
ATOM      3  C   LIG    1       25.430 -21.526   5.366  0.00  0.00    +0.086 A 
ATOM      4  C   LIG    1       24.388 -21.409   4.449  0.00  0.00    +0.093 A 
ATOM      5  C   LIG    1       24.406 -20.383   3.491  0.00  0.00    +0.030 A 
ATOM      6  C   LIG    1       25.421 -19.426   3.514  0.00  0.00    +0.003 A 
ATOM      7  C   LIG    1       26.356 -19.432   4.528  0.00  0.00    +0.017 A 
ATOM      8  C   LIG    1       26.346 -20.445   5.489  0.00  0.00    +0.085 A 
ATOM      9  N   LIG    1       23.412 -22.328   4.683  0.00  0.00    -0.195 NA
ENDROOT
BRANCH   8  10
ATOM     10  C   LIG    1       27.329 -20.337   6.535  0.00  0.00    +0.342 C 
ATOM     11  O   LIG    1       26.904 -20.304   7.616  0.00  0.00    -0.245 OA
BRANCH  10  12
ATOM     12  O   LIG    1       28.612 -20.278   6.111  0.00  0.00    -0.453 OA
BRANCH  12  13
ATOM     13  C   LIG    1       29.568 -19.338   6.672  0.00  0.00    +0.310 C 
BRANCH  13  14
ATOM     14  C   LIG    1       30.508 -19.769   7.770  0.00  0.00    +0.187 A 
ATOM     15  C   LIG    1       31.414 -19.158   8.515  0.00  0.00    +0.151 A 
ATOM     16  C   LIG    1       31.861 -17.760   8.654  0.00  0.00    +0.090 C 
ATOM     17  O   LIG    1       31.998 -20.008   9.429  0.00  0.00    -0.396 OA
ATOM     18  C   LIG    1       31.388 -21.203   9.134  0.00  0.00    +0.521 A 
ATOM     19  O   LIG    1       31.635 -22.235   9.742  0.00  0.00    -0.202 OA
ATOM     20  O   LIG    1       30.490 -21.127   8.083  0.00  0.00    -0.392 OA
ENDBRANCH  13  14
ENDBRANCH  12  13
ENDBRANCH  10  12
ENDBRANCH   8  10
BRANCH   1  21
ATOM     21  O   LIG    1       23.005 -23.914   6.290  0.00  0.00    -0.464 OA
BRANCH  21  23
ATOM     22  C   LIG    1       22.628 -22.035   7.921  0.00  0.00    +0.048 C 
ATOM     23  C   LIG    1       22.204 -23.322   7.277  0.00  0.00    +0.229 C 
ENDBRANCH  21  23
ENDBRANCH   1  21
BRANCH   2  24
ATOM     24  C   LIG    1       26.235 -23.714   6.469  0.00  0.00    +0.162 C 
BRANCH  24  25
ATOM     25  C   LIG    1       25.949 -25.205   6.367  0.00  0.00    -0.028 A 
ATOM     26  C   LIG    1       26.078 -26.080   7.432  0.00  0.00    +0.006 A 
ATOM     27  C   LIG    1       25.656 -27.423   7.304  0.00  0.00    +0.009 A 
ATOM     28  C   LIG    1       25.381 -28.062   6.072  0.00  0.00    -0.017 A 
ATOM     29  C   LIG    1       25.377 -27.187   4.988  0.00  0.00    +0.009 A 
ATOM     30  C   LIG    1       25.602 -25.798   5.151  0.00  0.00    +0.006 A 
BRANCH  28  31
ATOM     31  C   LIG    1       25.228 -29.571   6.015  0.00  0.00    -0.007 A 
ATOM     32  C   LIG    1       24.799 -30.473   7.034  0.00  0.00    +0.028 A 
ATOM     33  C   LIG    1       24.720 -31.871   6.764  0.00  0.00    +0.012 A 
ATOM     34  C   LIG    1       25.128 -32.423   5.554  0.00  0.00    +0.001 A 
ATOM     35  C   LIG    1       25.589 -31.582   4.564  0.00  0.00    +0.001 A 
ATOM     36  C   LIG    1       25.604 -30.196   4.782  0.00  0.00    +0.009 A 
BRANCH  32  37
ATOM     37  C   LIG    1       24.449 -30.133   8.437  0.00  0.00    +0.183 C 
ATOM     38  N   LIG    1       25.417 -29.902   9.348  0.00  0.00    -0.271 N 
ATOM     39  H   LIG    1       26.417 -29.890   9.256  0.00  0.00    +0.174 HD
ATOM     40  C   LIG    1       24.815 -29.743  10.535  0.00  0.00    +0.440 C 
ATOM     41  O   LIG    1       25.379 -29.616  11.609  0.00  0.00    -0.221 OA
ATOM     42  O   LIG    1       23.462 -29.781  10.338  0.00  0.00    -0.295 OA
ATOM     43  N   LIG    1       23.270 -30.073   8.953  0.00  0.00    -0.054 NA
ENDBRANCH  32  37
ENDBRANCH  28  31
ENDBRANCH  24  25
ENDBRANCH   2  24
TORSDOF 10
ENDMDL
MODEL 4
REMARK VINA RESULT:      -8.0      2.464      9.175
REMARK  Name = *****
REMARK                            x       y       z     vdW  Elec       q    Type
REMARK                         _______ _______ _______ _____ _____    ______ ____
ROOT
ATOM      1  C   LIG    1       24.092 -21.808   7.496  0.00  0.00    +0.299 A 
ATOM      2  N   LIG    1       24.837 -21.780   6.303  0.00  0.00    -0.289 N 
ATOM      3  C   LIG    1       24.313 -20.695   5.581  0.00  0.00    +0.086 A 
ATOM      4  C   LIG    1       23.045 -20.543   6.138  0.00  0.00    +0.093 A 
ATOM      5  C   LIG    1       22.091 -19.732   5.504  0.00  0.00    +0.030 A 
ATOM      6  C   LIG    1       22.440 -19.005   4.365  0.00  0.00    +0.003 A 
ATOM      7  C   LIG    1       23.743 -19.011   3.912  0.00  0.00    +0.017 A 
ATOM      8  C   LIG    1       24.702 -19.812   4.535  0.00  0.00    +0.085 A 
ATOM      9  N   LIG    1       22.943 -21.194   7.329  0.00  0.00    -0.195 NA
ENDROOT
BRANCH   8  10
ATOM     10  C   LIG    1       26.043 -19.712   4.022  0.00  0.00    +0.342 C 
ATOM     11  O   LIG    1       26.126 -19.466   2.890  0.00  0.00    -0.245 OA
BRANCH  10  12
ATOM     12  O   LIG    1       27.021 -19.931   4.931  0.00  0.00    -0.453 OA
BRANCH  12  13
ATOM     13  C   LIG    1       28.142 -19.020   5.091  0.00  0.00    +0.310 C 
BRANCH  13  14
ATOM     14  C   LIG    1       29.168 -19.255   6.172  0.00  0.00    +0.187 A 
ATOM     15  C   LIG    1       29.409 -20.229   7.034  0.00  0.00    +0.151 A 
ATOM     16  C   LIG    1       28.823 -21.560   7.274  0.00  0.00    +0.090 C 
ATOM     17  O   LIG    1       30.517 -19.975   7.812  0.00  0.00    -0.396 OA
ATOM     18  C   LIG    1       30.897 -18.733   7.368  0.00  0.00    +0.521 A 
ATOM     19  O   LIG    1       31.869 -18.142   7.817  0.00  0.00    -0.202 OA
ATOM     20  O   LIG    1       30.070 -18.214   6.386  0.00  0.00    -0.392 OA
ENDBRANCH  13  14
ENDBRANCH  12  13
ENDBRANCH  10  12
ENDBRANCH   8  10
BRANCH   1  21
ATOM     21  O   LIG    1       24.379 -22.350   8.694  0.00  0.00    -0.464 OA
BRANCH  21  23
ATOM     22  C   LIG    1       26.058 -20.505   9.020  0.00  0.00    +0.048 C 
ATOM     23  C   LIG    1       25.588 -21.910   9.252  0.00  0.00    +0.229 C 
ENDBRANCH  21  23
ENDBRANCH   1  21
BRANCH   2  24
ATOM     24  C   LIG    1       25.835 -22.762   5.828  0.00  0.00    +0.162 C 
BRANCH  24  25
ATOM     25  C   LIG    1       25.545 -24.228   6.114  0.00  0.00    -0.028 A 
ATOM     26  C   LIG    1       26.522 -25.143   6.466  0.00  0.00    +0.006 A 
ATOM     27  C   LIG    1       26.162 -26.452   6.860  0.00  0.00    +0.009 A 
ATOM     28  C   LIG    1       24.890 -27.032   6.642  0.00  0.00    -0.017 A 
ATOM     29  C   LIG    1       23.946 -26.125   6.168  0.00  0.00    +0.009 A 
ATOM     30  C   LIG    1       24.262 -24.759   5.965  0.00  0.00    +0.006 A 
BRANCH  28  31
ATOM     31  C   LIG    1       24.694 -28.526   6.826  0.00  0.00    -0.007 A 
ATOM     32  C   LIG    1       25.056 -29.354   7.930  0.00  0.00    +0.028 A 
ATOM     33  C   LIG    1       24.770 -30.750   7.899  0.00  0.00    +0.012 A 
ATOM     34  C   LIG    1       24.217 -31.376   6.788  0.00  0.00    +0.001 A 
ATOM     35  C   LIG    1       23.896 -30.612   5.687  0.00  0.00    +0.001 A 
ATOM     36  C   LIG    1       24.100 -29.224   5.724  0.00  0.00    +0.009 A 
BRANCH  32  37
ATOM     37  C   LIG    1       25.777 -28.936   9.160  0.00  0.00    +0.183 C 
ATOM     38  N   LIG    1       25.178 -29.019  10.366  0.00  0.00    -0.271 N 
ATOM     39  H   LIG    1       24.269 -29.357  10.627  0.00  0.00    +0.174 HD
ATOM     40  C   LIG    1       26.010 -28.467  11.260  0.00  0.00    +0.440 C 
ATOM     41  O   LIG    1       25.763 -28.274  12.439  0.00  0.00    -0.221 OA
ATOM     42  O   LIG    1       27.169 -28.130  10.616  0.00  0.00    -0.295 OA
ATOM     43  N   LIG    1       26.957 -28.424   9.235  0.00  0.00    -0.054 NA
ENDBRANCH  32  37
ENDBRANCH  28  31
ENDBRANCH  24  25
ENDBRANCH   2  24
TORSDOF 10
ENDMDL
MODEL 5
REMARK VINA RESULT:      -7.1      1.748      2.378
REMARK  Name = *****
REMARK                            x       y       z     vdW  Elec       q    Type
REMARK                         _______ _______ _______ _____ _____    ______ ____
ROOT
ATOM      1  C   LIG    1       25.146 -28.371   5.330  0.00  0.00    +0.299 A 
ATOM      2  N   LIG    1       25.006 -28.274   6.726  0.00  0.00    -0.289 N 
ATOM      3  C   LIG    1       25.402 -29.532   7.212  0.00  0.00    +0.086 A 
ATOM      4  C   LIG    1       25.225 -30.355   6.101  0.00  0.00    +0.093 A 
ATOM      5  C   LIG    1       25.253 -31.751   6.249  0.00  0.00    +0.030 A 
ATOM      6  C   LIG    1       25.547 -32.314   7.492  0.00  0.00    +0.003 A 
ATOM      7  C   LIG    1       25.898 -31.506   8.553  0.00  0.00    +0.017 A 
ATOM      8  C   LIG    1       25.877 -30.117   8.418  0.00  0.00    +0.085 A 
ATOM      9  N   LIG    1       25.115 -29.629   4.956  0.00  0.00    -0.195 NA
ENDROOT
BRANCH   8  10
ATOM     10  C   LIG    1       26.307 -29.361   9.565  0.00  0.00    +0.342 C 
ATOM     11  O   LIG    1       27.413 -29.006   9.541  0.00  0.00    -0.245 OA
BRANCH  10  12
ATOM     12  O   LIG    1       25.364 -29.179  10.517  0.00  0.00    -0.453 OA
BRANCH  12  13
ATOM     13  C   LIG    1       25.705 -29.018  11.920  0.00  0.00    +0.310 C 
BRANCH  13  14
ATOM     14  C   LIG    1       25.744 -27.645  12.544  0.00  0.00    +0.187 A 
ATOM     15  C   LIG    1       24.870 -26.886  13.185  0.00  0.00    +0.151 A 
ATOM     16  C   LIG    1       23.481 -27.075  13.641  0.00  0.00    +0.090 C 
ATOM     17  O   LIG    1       25.421 -25.692  13.598  0.00  0.00    -0.396 OA
ATOM     18  C   LIG    1       26.699 -25.784  13.106  0.00  0.00    +0.521 A 
ATOM     19  O   LIG    1       27.532 -24.903  13.269  0.00  0.00    -0.202 OA
ATOM     20  O   LIG    1       26.945 -26.951  12.402  0.00  0.00    -0.392 OA
ENDBRANCH  13  14
ENDBRANCH  12  13
ENDBRANCH  10  12
ENDBRANCH   8  10
BRANCH   1  21
ATOM     21  O   LIG    1       25.288 -27.411   4.396  0.00  0.00    -0.464 OA
BRANCH  21  23
ATOM     22  C   LIG    1       27.680 -27.199   5.148  0.00  0.00    +0.048 C 
ATOM     23  C   LIG    1       26.620 -27.095   4.092  0.00  0.00    +0.229 C 
ENDBRANCH  21  23
ENDBRANCH   1  21
BRANCH   2  24
ATOM     24  C   LIG    1       24.420 -27.165   7.510  0.00  0.00    +0.162 C 
BRANCH  24  25
ATOM     25  C   LIG    1       24.574 -25.764   6.935  0.00  0.00    -0.028 A 
ATOM     26  C   LIG    1       23.570 -25.112   6.241  0.00  0.00    +0.006 A 
ATOM     27  C   LIG    1       23.730 -23.759   5.863  0.00  0.00    +0.009 A 
ATOM     28  C   LIG    1       24.965 -23.069   5.862  0.00  0.00    -0.017 A 
ATOM     29  C   LIG    1       25.998 -23.790   6.454  0.00  0.00    +0.009 A 
ATOM     30  C   LIG    1       25.785 -25.073   7.016  0.00  0.00    +0.006 A 
BRANCH  28  31
ATOM     31  C   LIG    1       25.086 -21.727   5.162  0.00  0.00    -0.007 A 
ATOM     32  C   LIG    1       25.955 -20.634   5.453  0.00  0.00    +0.028 A 
ATOM     33  C   LIG    1       25.908 -19.453   4.656  0.00  0.00    +0.012 A 
ATOM     34  C   LIG    1       24.980 -19.276   3.635  0.00  0.00    +0.001 A 
ATOM     35  C   LIG    1       24.096 -20.296   3.358  0.00  0.00    +0.001 A 
ATOM     36  C   LIG    1       24.174 -21.496   4.081  0.00  0.00    +0.009 A 
BRANCH  32  37
ATOM     37  C   LIG    1       26.927 -20.540   6.573  0.00  0.00    +0.183 C 
ATOM     38  N   LIG    1       28.252 -20.651   6.340  0.00  0.00    -0.271 N 
ATOM     39  H   LIG    1       28.761 -20.773   5.483  0.00  0.00    +0.174 HD
ATOM     40  C   LIG    1       28.864 -20.649   7.532  0.00  0.00    +0.440 C 
ATOM     41  O   LIG    1       30.056 -20.832   7.721  0.00  0.00    -0.221 OA
ATOM     42  O   LIG    1       27.920 -20.439   8.499  0.00  0.00    -0.295 OA
ATOM     43  N   LIG    1       26.661 -20.408   7.826  0.00  0.00    -0.054 NA
ENDBRANCH  32  37
ENDBRANCH  28  31
ENDBRANCH  24  25
ENDBRANCH   2  24
TORSDOF 10
ENDMDL
MODEL 6
REMARK VINA RESULT:      -7.1      2.692      9.302
REMARK  Name = *****
REMARK                            x       y       z     vdW  Elec       q    Type
REMARK                         _______ _______ _______ _____ _____    ______ ____
ROOT
ATOM      1  C   LIG    1       23.838 -20.348   5.608  0.00  0.00    +0.299 A 
ATOM      2  N   LIG    1       24.669 -20.881   6.610  0.00  0.00    -0.289 N 
ATOM      3  C   LIG    1       25.949 -20.385   6.313  0.00  0.00    +0.086 A 
ATOM      4  C   LIG    1       25.848 -20.078   4.957  0.00  0.00    +0.093 A 
ATOM      5  C   LIG    1       27.005 -19.806   4.210  0.00  0.00    +0.030 A 
ATOM      6  C   LIG    1       28.248 -19.754   4.843  0.00  0.00    +0.003 A 
ATOM      7  C   LIG    1       28.332 -19.880   6.214  0.00  0.00    +0.017 A 
ATOM      8  C   LIG    1       27.189 -20.148   6.969  0.00  0.00    +0.085 A 
ATOM      9  N   LIG    1       24.550 -20.017   4.556  0.00  0.00    -0.195 NA
ENDROOT
BRANCH   8  10
ATOM     10  C   LIG    1       27.370 -20.212   8.395  0.00  0.00    +0.342 C 
ATOM     11  O   LIG    1       26.404 -20.400   9.012  0.00  0.00    -0.245 OA
BRANCH  10  12
ATOM     12  O   LIG    1       28.642 -20.034   8.819  0.00  0.00    -0.453 OA
BRANCH  12  13
ATOM     13  C   LIG    1       29.075 -18.804   9.463  0.00  0.00    +0.310 C 
BRANCH  13  14
ATOM     14  C   LIG    1       30.376 -18.152   9.067  0.00  0.00    +0.187 A 
ATOM     15  C   LIG    1       31.333 -18.432   8.197  0.00  0.00    +0.151 A 
ATOM     16  C   LIG    1       31.519 -19.473   7.170  0.00  0.00    +0.090 C 
ATOM     17  O   LIG    1       32.327 -17.478   8.190  0.00  0.00    -0.396 OA
ATOM     18  C   LIG    1       31.901 -16.618   9.172  0.00  0.00    +0.521 A 
ATOM     19  O   LIG    1       32.521 -15.609   9.478  0.00  0.00    -0.202 OA
ATOM     20  O   LIG    1       30.722 -17.009   9.785  0.00  0.00    -0.392 OA
ENDBRANCH  13  14
ENDBRANCH  12  13
ENDBRANCH  10  12
ENDBRANCH   8  10
BRANCH   1  21
ATOM     21  O   LIG    1       22.506 -20.156   5.586  0.00  0.00    -0.464 OA
BRANCH  21  23
ATOM     22  C   LIG    1       22.120 -17.877   4.591  0.00  0.00    +0.048 C 
ATOM     23  C   LIG    1       22.053 -19.374   4.514  0.00  0.00    +0.229 C 
ENDBRANCH  21  23
ENDBRANCH   1  21
BRANCH   2  24
ATOM     24  C   LIG    1       24.322 -21.874   7.650  0.00  0.00    +0.162 C 
BRANCH  24  25
ATOM     25  C   LIG    1       24.503 -23.340   7.286  0.00  0.00    -0.028 A 
ATOM     26  C   LIG    1       25.721 -23.995   7.349  0.00  0.00    +0.006 A 
ATOM     27  C   LIG    1       25.788 -25.391   7.138  0.00  0.00    +0.009 A 
ATOM     28  C   LIG    1       24.755 -26.164   6.560  0.00  0.00    -0.017 A 
ATOM     29  C   LIG    1       23.569 -25.455   6.387  0.00  0.00    +0.009 A 
ATOM     30  C   LIG    1       23.444 -24.103   6.789  0.00  0.00    +0.006 A 
BRANCH  28  31
ATOM     31  C   LIG    1       25.033 -27.585   6.102  0.00  0.00    -0.007 A 
ATOM     32  C   LIG    1       25.345 -28.738   6.882  0.00  0.00    +0.028 A 
ATOM     33  C   LIG    1       25.566 -29.994   6.243  0.00  0.00    +0.012 A 
ATOM     34  C   LIG    1       25.573 -30.138   4.860  0.00  0.00    +0.001 A 
ATOM     35  C   LIG    1       25.319 -29.032   4.076  0.00  0.00    +0.001 A 
ATOM     36  C   LIG    1       25.025 -27.804   4.686  0.00  0.00    +0.009 A 
BRANCH  32  37
ATOM     37  C   LIG    1       25.527 -28.797   8.355  0.00  0.00    +0.183 C 
ATOM     38  N   LIG    1       26.613 -28.242   8.933  0.00  0.00    -0.271 N 
ATOM     39  H   LIG    1       27.381 -27.732   8.536  0.00  0.00    +0.174 HD
ATOM     40  C   LIG    1       26.570 -28.553  10.236  0.00  0.00    +0.440 C 
ATOM     41  O   LIG    1       27.439 -28.306  11.057  0.00  0.00    -0.221 OA
ATOM     42  O   LIG    1       25.402 -29.221  10.480  0.00  0.00    -0.295 OA
ATOM     43  N   LIG    1       24.767 -29.388   9.211  0.00  0.00    -0.054 NA
ENDBRANCH  32  37
ENDBRANCH  28  31
ENDBRANCH  24  25
ENDBRANCH   2  24
TORSDOF 10
ENDMDL
MODEL 7
REMARK VINA RESULT:      -7.1      4.219      7.997
REMARK  Name = *****
REMARK                            x       y       z     vdW  Elec       q    Type
REMARK                         _______ _______ _______ _____ _____    ______ ____
ROOT
ATOM      1  C   LIG    1       25.462 -29.340  14.917  0.00  0.00    +0.299 A 
ATOM      2  N   LIG    1       24.413 -29.555  14.005  0.00  0.00    -0.289 N 
ATOM      3  C   LIG    1       23.911 -30.826  14.333  0.00  0.00    +0.086 A 
ATOM      4  C   LIG    1       24.986 -31.414  14.996  0.00  0.00    +0.093 A 
ATOM      5  C   LIG    1       24.984 -32.795  15.250  0.00  0.00    +0.030 A 
ATOM      6  C   LIG    1       23.867 -33.564  14.920  0.00  0.00    +0.003 A 
ATOM      7  C   LIG    1       22.731 -32.958  14.426  0.00  0.00    +0.017 A 
ATOM      8  C   LIG    1       22.718 -31.585  14.172  0.00  0.00    +0.085 A 
ATOM      9  N   LIG    1       25.901 -30.485  15.384  0.00  0.00    -0.195 NA
ENDROOT
BRANCH   8  10
ATOM     10  C   LIG    1       21.472 -31.037  13.707  0.00  0.00    +0.342 C 
ATOM     11  O   LIG    1       20.977 -31.605  12.823  0.00  0.00    -0.245 OA
BRANCH  10  12
ATOM     12  O   LIG    1       21.056 -29.927  14.359  0.00  0.00    -0.453 OA
BRANCH  12  13
ATOM     13  C   LIG    1       19.646 -29.636  14.565  0.00  0.00    +0.310 C 
BRANCH  13  14
ATOM     14  C   LIG    1       19.109 -28.248  14.319  0.00  0.00    +0.187 A 
ATOM     15  C   LIG    1       19.598 -27.140  13.786  0.00  0.00    +0.151 A 
ATOM     16  C   LIG    1       20.867 -26.787  13.126  0.00  0.00    +0.090 C 
ATOM     17  O   LIG    1       18.670 -26.121  13.761  0.00  0.00    -0.396 OA
ATOM     18  C   LIG    1       17.588 -26.707  14.370  0.00  0.00    +0.521 A 
ATOM     19  O   LIG    1       16.530 -26.119  14.541  0.00  0.00    -0.202 OA
ATOM     20  O   LIG    1       17.816 -28.010  14.781  0.00  0.00    -0.392 OA
ENDBRANCH  13  14
ENDBRANCH  12  13
ENDBRANCH  10  12
ENDBRANCH   8  10
BRANCH   1  21
ATOM     21  O   LIG    1       26.036 -28.196  15.334  0.00  0.00    -0.464 OA
BRANCH  21  23
ATOM     22  C   LIG    1       27.070 -26.920  13.427  0.00  0.00    +0.048 C 
ATOM     23  C   LIG    1       27.183 -27.830  14.614  0.00  0.00    +0.229 C 
ENDBRANCH  21  23
ENDBRANCH   1  21
BRANCH   2  24
ATOM     24  C   LIG    1       24.021 -28.718  12.850  0.00  0.00    +0.162 C 
BRANCH  24  25
ATOM     25  C   LIG    1       24.323 -29.274  11.467  0.00  0.00    -0.028 A 
ATOM     26  C   LIG    1       23.412 -30.006  10.725  0.00  0.00    +0.006 A 
ATOM     27  C   LIG    1       23.708 -30.366   9.390  0.00  0.00    +0.009 A 
ATOM     28  C   LIG    1       24.999 -30.309   8.813  0.00  0.00    -0.017 A 
ATOM     29  C   LIG    1       25.937 -29.679   9.625  0.00  0.00    +0.009 A 
ATOM     30  C   LIG    1       25.586 -29.136  10.886  0.00  0.00    +0.006 A 
BRANCH  28  31
ATOM     31  C   LIG    1       25.268 -30.992   7.484  0.00  0.00    -0.007 A 
ATOM     32  C   LIG    1       25.339 -30.425   6.177  0.00  0.00    +0.028 A 
ATOM     33  C   LIG    1       25.613 -31.257   5.052  0.00  0.00    +0.012 A 
ATOM     34  C   LIG    1       25.738 -32.638   5.155  0.00  0.00    +0.001 A 
ATOM     35  C   LIG    1       25.631 -33.222   6.399  0.00  0.00    +0.001 A 
ATOM     36  C   LIG    1       25.435 -32.415   7.530  0.00  0.00    +0.009 A 
BRANCH  32  37
ATOM     37  C   LIG    1       25.103 -29.006   5.805  0.00  0.00    +0.183 C 
ATOM     38  N   LIG    1       26.142 -28.164   5.627  0.00  0.00    -0.271 N 
ATOM     39  H   LIG    1       27.132 -28.321   5.678  0.00  0.00    +0.174 HD
ATOM     40  C   LIG    1       25.629 -26.942   5.423  0.00  0.00    +0.440 C 
ATOM     41  O   LIG    1       26.270 -25.908   5.323  0.00  0.00    -0.221 OA
ATOM     42  O   LIG    1       24.267 -27.049   5.379  0.00  0.00    -0.295 OA
ATOM     43  N   LIG    1       23.966 -28.415   5.669  0.00  0.00    -0.054 NA
ENDBRANCH  32  37
ENDBRANCH  28  31
ENDBRANCH  24  25
ENDBRANCH   2  24
TORSDOF 10
ENDMDL
MODEL 8
REMARK VINA RESULT:      -6.9      2.746      5.099
REMARK  Name = *****
REMARK                            x       y       z     vdW  Elec       q    Type
REMARK                         _______ _______ _______ _____ _____    ______ ____
ROOT
ATOM      1  C   LIG    1       26.469 -29.002   8.903  0.00  0.00    +0.299 A 
ATOM      2  N   LIG    1       26.095 -29.532   7.655  0.00  0.00    -0.289 N 
ATOM      3  C   LIG    1       26.031 -30.921   7.862  0.00  0.00    +0.086 A 
ATOM      4  C   LIG    1       26.844 -31.098   8.980  0.00  0.00    +0.093 A 
ATOM      5  C   LIG    1       27.262 -32.386   9.348  0.00  0.00    +0.030 A 
ATOM      6  C   LIG    1       26.792 -33.498   8.648  0.00  0.00    +0.003 A 
ATOM      7  C   LIG    1       25.849 -33.343   7.654  0.00  0.00    +0.017 A 
ATOM      8  C   LIG    1       25.422 -32.067   7.281  0.00  0.00    +0.085 A 
ATOM      9  N   LIG    1       27.063 -29.921   9.627  0.00  0.00    -0.195 NA
ENDROOT
BRANCH   8  10
ATOM     10  C   LIG    1       24.398 -32.010   6.270  0.00  0.00    +0.342 C 
ATOM     11  O   LIG    1       24.780 -31.871   5.182  0.00  0.00    -0.245 OA
BRANCH  10  12
ATOM     12  O   LIG    1       23.131 -32.116   6.733  0.00  0.00    -0.453 OA
BRANCH  12  13
ATOM     13  C   LIG    1       22.729 -33.175   7.644  0.00  0.00    +0.310 C 
BRANCH  13  14
ATOM     14  C   LIG    1       22.250 -32.843   9.035  0.00  0.00    +0.187 A 
ATOM     15  C   LIG    1       22.419 -31.824   9.861  0.00  0.00    +0.151 A 
ATOM     16  C   LIG    1       23.095 -30.518   9.762  0.00  0.00    +0.090 C 
ATOM     17  O   LIG    1       21.723 -31.987  11.040  0.00  0.00    -0.396 OA
ATOM     18  C   LIG    1       21.154 -33.224  10.864  0.00  0.00    +0.521 A 
ATOM     19  O   LIG    1       20.435 -33.744  11.706  0.00  0.00    -0.202 OA
ATOM     20  O   LIG    1       21.483 -33.825   9.661  0.00  0.00    -0.392 OA
ENDBRANCH  13  14
ENDBRANCH  12  13
ENDBRANCH  10  12
ENDBRANCH   8  10
BRANCH   1  21
ATOM     21  O   LIG    1       26.316 -27.764   9.409  0.00  0.00    -0.464 OA
BRANCH  21  23
ATOM     22  C   LIG    1       25.790 -28.227  11.826  0.00  0.00    +0.048 C 
ATOM     23  C   LIG    1       26.671 -27.645  10.760  0.00  0.00    +0.229 C 
ENDBRANCH  21  23
ENDBRANCH   1  21
BRANCH   2  24
ATOM     24  C   LIG    1       25.957 -28.821   6.366  0.00  0.00    +0.162 C 
BRANCH  24  25
ATOM     25  C   LIG    1       25.523 -27.364   6.430  0.00  0.00    -0.028 A 
ATOM     26  C   LIG    1       24.204 -26.957   6.318  0.00  0.00    +0.006 A 
ATOM     27  C   LIG    1       23.858 -25.603   6.533  0.00  0.00    +0.009 A 
ATOM     28  C   LIG    1       24.784 -24.534   6.560  0.00  0.00    -0.017 A 
ATOM     29  C   LIG    1       26.111 -24.956   6.547  0.00  0.00    +0.009 A 
ATOM     30  C   LIG    1       26.456 -26.330   6.535  0.00  0.00    +0.006 A 
BRANCH  28  31
ATOM     31  C   LIG    1       24.292 -23.099   6.497  0.00  0.00    -0.007 A 
ATOM     32  C   LIG    1       24.958 -21.900   6.888  0.00  0.00    +0.028 A 
ATOM     33  C   LIG    1       24.308 -20.640   6.735  0.00  0.00    +0.012 A 
ATOM     34  C   LIG    1       22.995 -20.525   6.290  0.00  0.00    +0.001 A 
ATOM     35  C   LIG    1       22.309 -21.670   5.946  0.00  0.00    +0.001 A 
ATOM     36  C   LIG    1       22.955 -22.913   6.018  0.00  0.00    +0.009 A 
BRANCH  32  37
ATOM     37  C   LIG    1       26.300 -21.788   7.514  0.00  0.00    +0.183 C 
ATOM     38  N   LIG    1       27.365 -21.393   6.785  0.00  0.00    -0.271 N 
ATOM     39  H   LIG    1       27.436 -21.114   5.823  0.00  0.00    +0.174 HD
ATOM     40  C   LIG    1       28.445 -21.502   7.571  0.00  0.00    +0.440 C 
ATOM     41  O   LIG    1       29.601 -21.327   7.221  0.00  0.00    -0.221 OA
ATOM     42  O   LIG    1       28.031 -21.873   8.820  0.00  0.00    -0.295 OA
ATOM     43  N   LIG    1       26.621 -22.082   8.726  0.00  0.00    -0.054 NA
ENDBRANCH  32  37
ENDBRANCH  28  31
ENDBRANCH  24  25
ENDBRANCH   2  24
TORSDOF 10
ENDMDL
MODEL 9
REMARK VINA RESULT:      -6.8      2.555      3.579
REMARK  Name = *****
REMARK                            x       y       z     vdW  Elec       q    Type
REMARK                         _______ _______ _______ _____ _____    ______ ____
ROOT
ATOM      1  C   LIG    1       25.017 -28.266   5.304  0.00  0.00    +0.299 A 
ATOM      2  N   LIG    1       24.980 -28.252   6.710  0.00  0.00    -0.289 N 
ATOM      3  C   LIG    1       25.186 -29.591   7.084  0.00  0.00    +0.086 A 
ATOM      4  C   LIG    1       24.807 -30.288   5.939  0.00  0.00    +0.093 A 
ATOM      5  C   LIG    1       24.609 -31.677   5.995  0.00  0.00    +0.030 A 
ATOM      6  C   LIG    1       24.878 -32.372   7.174  0.00  0.00    +0.003 A 
ATOM      7  C   LIG    1       25.422 -31.715   8.257  0.00  0.00    +0.017 A 
ATOM      8  C   LIG    1       25.628 -30.335   8.213  0.00  0.00    +0.085 A 
ATOM      9  N   LIG    1       24.753 -29.470   4.853  0.00  0.00    -0.195 NA
ENDROOT
BRANCH   8  10
ATOM     10  C   LIG    1       26.248 -29.748   9.372  0.00  0.00    +0.342 C 
ATOM     11  O   LIG    1       27.054 -28.942   9.151  0.00  0.00    -0.245 OA
BRANCH  10  12
ATOM     12  O   LIG    1       25.809 -30.226  10.560  0.00  0.00    -0.453 OA
BRANCH  12  13
ATOM     13  C   LIG    1       24.945 -29.449  11.432  0.00  0.00    +0.310 C 
BRANCH  13  14
ATOM     14  C   LIG    1       23.452 -29.668  11.421  0.00  0.00    +0.187 A 
ATOM     15  C   LIG    1       22.431 -29.171  12.098  0.00  0.00    +0.151 A 
ATOM     16  C   LIG    1       22.289 -28.121  13.124  0.00  0.00    +0.090 C 
ATOM     17  O   LIG    1       21.225 -29.687  11.677  0.00  0.00    -0.396 OA
ATOM     18  C   LIG    1       21.619 -30.577  10.710  0.00  0.00    +0.521 A 
ATOM     19  O   LIG    1       20.823 -31.253  10.073  0.00  0.00    -0.202 OA
ATOM     20  O   LIG    1       22.992 -30.645  10.539  0.00  0.00    -0.392 OA
ENDBRANCH  13  14
ENDBRANCH  12  13
ENDBRANCH  10  12
ENDBRANCH   8  10
BRANCH   1  21
ATOM     21  O   LIG    1       25.262 -27.275   4.426  0.00  0.00    -0.464 OA
BRANCH  21  23
ATOM     22  C   LIG    1       27.695 -27.218   5.069  0.00  0.00    +0.048 C 
ATOM     23  C   LIG    1       26.606 -27.167   4.038  0.00  0.00    +0.229 C 
ENDBRANCH  21  23
ENDBRANCH   1  21
BRANCH   2  24
ATOM     24  C   LIG    1       24.637 -27.124   7.603  0.00  0.00    +0.162 C 
BRANCH  24  25
ATOM     25  C   LIG    1       24.725 -25.727   7.006  0.00  0.00    -0.028 A 
ATOM     26  C   LIG    1       23.665 -25.102   6.373  0.00  0.00    +0.006 A 
ATOM     27  C   LIG    1       23.773 -23.750   5.974  0.00  0.00    +0.009 A 
ATOM     28  C   LIG    1       24.992 -23.037   5.883  0.00  0.00    -0.017 A 
ATOM     29  C   LIG    1       26.076 -23.732   6.413  0.00  0.00    +0.009 A 
ATOM     30  C   LIG    1       25.925 -25.012   7.000  0.00  0.00    +0.006 A 
BRANCH  28  31
ATOM     31  C   LIG    1       25.040 -21.700   5.165  0.00  0.00    -0.007 A 
ATOM     32  C   LIG    1       25.884 -20.577   5.407  0.00  0.00    +0.028 A 
ATOM     33  C   LIG    1       25.766 -19.407   4.599  0.00  0.00    +0.012 A 
ATOM     34  C   LIG    1       24.791 -19.272   3.617  0.00  0.00    +0.001 A 
ATOM     35  C   LIG    1       23.929 -20.324   3.389  0.00  0.00    +0.001 A 
ATOM     36  C   LIG    1       24.077 -21.512   4.121  0.00  0.00    +0.009 A 
BRANCH  32  37
ATOM     37  C   LIG    1       26.899 -20.438   6.483  0.00  0.00    +0.183 C 
ATOM     38  N   LIG    1       28.216 -20.441   6.187  0.00  0.00    -0.271 N 
ATOM     39  H   LIG    1       28.692 -20.502   5.305  0.00  0.00    +0.174 HD
ATOM     40  C   LIG    1       28.883 -20.424   7.350  0.00  0.00    +0.440 C 
ATOM     41  O   LIG    1       30.092 -20.521   7.479  0.00  0.00    -0.221 OA
ATOM     42  O   LIG    1       27.973 -20.312   8.365  0.00  0.00    -0.295 OA
ATOM     43  N   LIG    1       26.684 -20.359   7.751  0.00  0.00    -0.054 NA
ENDBRANCH  32  37
ENDBRANCH  28  31
ENDBRANCH  24  25
ENDBRANCH   2  24
TORSDOF 10
ENDMDL
