MODEL 1
REMARK VINA RESULT:      11.6      0.000      0.000
REMARK  Name = *****
REMARK                            x       y       z     vdW  Elec       q    Type
REMARK                         _______ _______ _______ _____ _____    ______ ____
ROOT
ATOM      1  C   LIG    1       26.257 -19.760   3.312  0.00  0.00    +0.165 C 
ENDROOT
BRANCH   1   3
ATOM      2  C   LIG    1       25.942 -17.330   2.748  0.00  0.00    +0.219 C 
ATOM      3  N   LIG    1       26.758 -18.360   3.169  0.00  0.00    -0.303 N 
ATOM      4  H   LIG    1       27.654 -18.138   3.590  0.00  0.00    +0.149 HD
ATOM      5  O   LIG    1       24.809 -17.543   2.321  0.00  0.00    -0.275 OA
BRANCH   2   6
ATOM      6  C   LIG    1       26.542 -15.901   2.782  0.00  0.00    +0.100 C 
BRANCH   6   7
ATOM      7  C   LIG    1       26.935 -15.589   4.271  0.00  0.00    +0.049 C 
BRANCH   7   8
ATOM      8  C   LIG    1       27.793 -14.378   4.647  0.00  0.00    -0.047 A 
ATOM      9  C   LIG    1       28.596 -13.667   3.747  0.00  0.00    +0.003 A 
ATOM     10  C   LIG    1       29.151 -12.424   4.053  0.00  0.00    +0.000 A 
ATOM     11  C   LIG    1       28.945 -11.862   5.298  0.00  0.00    +0.000 A 
ATOM     12  C   LIG    1       28.217 -12.571   6.247  0.00  0.00    +0.000 A 
ATOM     13  C   LIG    1       27.643 -13.812   5.926  0.00  0.00    +0.003 A 
ENDBRANCH   7   8
ENDBRANCH   6   7
BRANCH   6  14
ATOM     14  C   LIG    1       25.541 -14.864   2.238  0.00  0.00    +0.179 C 
BRANCH  14  15
ATOM     15  S   LIG    1       24.534 -13.998   3.406  0.00  0.00    -0.025 S 
ATOM     16  O   LIG    1       23.130 -14.259   3.052  0.00  0.00    -0.174 OA
ATOM     17  O   LIG    1       25.056 -14.360   4.678  0.00  0.00    -0.174 OA
BRANCH  15  19
ATOM     18  C   LIG    1       23.731 -11.513   2.429  0.00  0.00    +0.035 C 
ATOM     19  C   LIG    1       24.875 -12.196   3.191  0.00  0.00    +0.080 C 
ATOM     20  C   LIG    1       24.979 -11.510   4.569  0.00  0.00    +0.035 C 
ATOM     21  C   LIG    1       26.241 -12.036   2.499  0.00  0.00    +0.035 C 
ENDBRANCH  15  19
ENDBRANCH  14  15
ENDBRANCH   6  14
ENDBRANCH   2   6
ENDBRANCH   1   3
BRANCH   1  22
ATOM     22  C   LIG    1       24.706 -19.875   2.968  0.00  0.00    +0.234 C 
ATOM     23  N   LIG    1       23.827 -19.797   4.046  0.00  0.00    -0.308 N 
ATOM     24  H   LIG    1       24.193 -19.848   4.991  0.00  0.00    +0.149 HD
ATOM     25  O   LIG    1       24.295 -19.987   1.812  0.00  0.00    -0.274 OA
BRANCH  23  26
ATOM     26  C   LIG    1       22.339 -19.878   3.944  0.00  0.00    +0.104 C 
BRANCH  26  27
ATOM     27  C   LIG    1       21.679 -18.458   4.022  0.00  0.00    +0.163 C 
BRANCH  27  28
ATOM     28  O   LIG    1       20.261 -18.561   4.275  0.00  0.00    -0.387 OA
ATOM     29  H   LIG    1       19.841 -18.125   3.504  0.00  0.00    +0.210 HD
ENDBRANCH  27  28
BRANCH  27  30
ATOM     30  C   LIG    1       22.307 -17.471   5.051  0.00  0.00    +0.148 C 
BRANCH  30  31
ATOM     31  C   LIG    1       21.501 -16.228   5.299  0.00  0.00    +0.020 C 
ATOM     32  C   LIG    1       21.304 -15.638   6.673  0.00  0.00    +0.006 C 
ATOM     33  C   LIG    1       22.227 -14.965   5.715  0.00  0.00    +0.006 C 
ENDBRANCH  30  31
BRANCH  30  34
ATOM     34  O   LIG    1       23.582 -17.062   4.511  0.00  0.00    -0.389 OA
ATOM     35  H   LIG    1       23.574 -16.091   4.421  0.00  0.00    +0.210 HD
ENDBRANCH  30  34
ENDBRANCH  27  30
ENDBRANCH  26  27
BRANCH  26  36
ATOM     36  C   LIG    1       21.827 -20.875   5.040  0.00  0.00    +0.028 C 
BRANCH  36  37
ATOM     37  C   LIG    1       22.349 -20.710   6.498  0.00  0.00    -0.009 C 
ATOM     38  C   LIG    1       23.573 -21.571   6.844  0.00  0.00    +0.003 C 
ATOM     39  C   LIG    1       24.866 -21.046   6.228  0.00  0.00    +0.000 C 
ATOM     40  C   LIG    1       25.156 -19.633   6.717  0.00  0.00    +0.000 C 
ATOM     41  C   LIG    1       23.999 -18.690   6.403  0.00  0.00    +0.000 C 
ATOM     42  C   LIG    1       22.643 -19.232   6.870  0.00  0.00    +0.003 C 
ENDBRANCH  36  37
ENDBRANCH  26  36
ENDBRANCH  23  26
ENDBRANCH   1  22
BRANCH   1  43
ATOM     43  C   LIG    1       26.463 -20.268   4.749  0.00  0.00    +0.086 C 
BRANCH  43  44
ATOM     44  C   LIG    1       27.695 -19.968   5.523  0.00  0.00    +0.037 A 
ATOM     45  N   LIG    1       28.487 -18.881   5.338  0.00  0.00    -0.348 N 
ATOM     46  H   LIG    1       28.290 -18.081   4.742  0.00  0.00    +0.167 HD
ATOM     47  C   LIG    1       29.474 -18.904   6.282  0.00  0.00    +0.196 A 
ATOM     48  N   LIG    1       29.386 -19.968   7.043  0.00  0.00    -0.244 NA
ATOM     49  C   LIG    1       28.278 -20.632   6.587  0.00  0.00    +0.133 A 
ENDBRANCH  43  44
ENDBRANCH   1  43
TORSDOF 18
ENDMDL
