MODEL 1
REMARK VINA RESULT:      -5.4      0.000      0.000
REMARK  Name = *****
REMARK                            x       y       z     vdW  Elec       q    Type
REMARK                         _______ _______ _______ _____ _____    ______ ____
ROOT
ATOM      1  C   LIG    1       25.249 -21.198   4.645  0.00  0.00    +0.025 C 
ATOM      2  C   LIG    1       24.190 -21.429   5.739  0.00  0.00    +0.042 C 
ATOM      3  CA  LIG    1       24.292 -22.857   6.331  0.00  0.00    +0.201 C 
ATOM      4  N   LIG    1       25.216 -22.799   7.476  0.00  0.00    -0.271 N 
ATOM      5  C   LIG    1       25.303 -21.521   8.218  0.00  0.00    +0.165 C 
ATOM      6  CA  LIG    1       26.841 -21.688   8.214  0.00  0.00    +0.190 C 
ATOM      7  C   LIG    1       26.564 -22.837   7.234  0.00  0.00    +0.240 C 
ATOM      8  O   LIG    1       27.195 -23.467   6.404  0.00  0.00    -0.273 OA
ATOM      9  S   LIG    1       24.564 -20.256   7.122  0.00  0.00    -0.127 S 
ATOM     10  C   LIG    1       22.821 -21.056   5.158  0.00  0.00    +0.025 C 
ENDROOT
BRANCH   6  11
ATOM     11  N   LIG    1       27.637 -20.546   7.721  0.00  0.00    -0.300 N 
ATOM     12  H   LIG    1       27.238 -19.772   7.194  0.00  0.00    +0.150 HD
ATOM     13  C   LIG    1       29.010 -20.537   7.828  0.00  0.00    +0.234 C 
ATOM     14  O   LIG    1       29.617 -21.457   8.368  0.00  0.00    -0.274 OA
BRANCH  13  15
ATOM     15  C   LIG    1       29.672 -19.233   7.283  0.00  0.00    +0.094 C 
ATOM     16  C   LIG    1       29.309 -18.053   8.202  0.00  0.00    +0.031 C 
ATOM     17  C   LIG    1       30.023 -18.125   9.553  0.00  0.00    +0.002 C 
ATOM     18  C   LIG    1       31.536 -18.245   9.390  0.00  0.00    +0.000 C 
ATOM     19  C   LIG    1       31.933 -19.411   8.492  0.00  0.00    +0.002 C 
ATOM     20  C   LIG    1       31.197 -19.388   7.150  0.00  0.00    +0.031 C 
BRANCH  15  21
ATOM     21  N   LIG    1       29.086 -18.964   5.935  0.00  0.00    -0.317 NA
ATOM     22  H   LIG    1       28.250 -18.389   6.049  0.00  0.00    +0.119 HD
ATOM     23  H   LIG    1       29.741 -18.379   5.409  0.00  0.00    +0.119 HD
ENDBRANCH  15  21
ENDBRANCH  13  15
ENDBRANCH   6  11
BRANCH   3  24
ATOM     24  C   LIG    1       22.962 -23.484   6.777  0.00  0.00    +0.327 C 
ATOM     25  O   LIG    1       22.056 -22.867   7.319  0.00  0.00    -0.249 OA
BRANCH  24  26
ATOM     26  OXT LIG    1       22.842 -24.801   6.478  0.00  0.00    -0.479 OA
ATOM     27  HXT LIG    1       23.660 -25.281   6.717  0.00  0.00    +0.295 HD
ENDBRANCH  24  26
ENDBRANCH   3  24
TORSDOF 5
ENDMDL
MODEL 2
REMARK VINA RESULT:      -5.4      7.967     10.451
REMARK  Name = *****
REMARK                            x       y       z     vdW  Elec       q    Type
REMARK                         _______ _______ _______ _____ _____    ______ ____
ROOT
ATOM      1  C   LIG    1       23.157 -29.707  11.206  0.00  0.00    +0.025 C 
ATOM      2  C   LIG    1       24.526 -29.887  11.888  0.00  0.00    +0.042 C 
ATOM      3  CA  LIG    1       24.946 -31.378  11.928  0.00  0.00    +0.201 C 
ATOM      4  N   LIG    1       25.710 -31.657  10.702  0.00  0.00    -0.271 N 
ATOM      5  C   LIG    1       26.468 -30.537  10.100  0.00  0.00    +0.165 C 
ATOM      6  CA  LIG    1       25.931 -30.990   8.721  0.00  0.00    +0.190 C 
ATOM      7  C   LIG    1       25.024 -31.915   9.544  0.00  0.00    +0.240 C 
ATOM      8  O   LIG    1       23.987 -32.528   9.367  0.00  0.00    -0.273 OA
ATOM      9  S   LIG    1       25.780 -29.014  10.842  0.00  0.00    -0.127 S 
ATOM     10  C   LIG    1       24.471 -29.183  13.249  0.00  0.00    +0.025 C 
ENDROOT
BRANCH   6  11
ATOM     11  N   LIG    1       25.280 -29.960   7.886  0.00  0.00    -0.300 N 
ATOM     12  H   LIG    1       24.680 -29.230   8.264  0.00  0.00    +0.150 HD
ATOM     13  C   LIG    1       25.337 -30.019   6.511  0.00  0.00    +0.234 C 
ATOM     14  O   LIG    1       25.960 -30.904   5.932  0.00  0.00    -0.274 OA
BRANCH  13  15
ATOM     15  C   LIG    1       24.619 -28.827   5.803  0.00  0.00    +0.094 C 
ATOM     16  C   LIG    1       24.429 -27.676   6.808  0.00  0.00    +0.031 C 
ATOM     17  C   LIG    1       25.747 -26.979   7.151  0.00  0.00    +0.002 C 
ATOM     18  C   LIG    1       26.478 -26.497   5.901  0.00  0.00    +0.000 C 
ATOM     19  C   LIG    1       26.693 -27.615   4.886  0.00  0.00    +0.002 C 
ATOM     20  C   LIG    1       25.396 -28.360   4.560  0.00  0.00    +0.031 C 
BRANCH  15  21
ATOM     21  N   LIG    1       23.266 -29.304   5.387  0.00  0.00    -0.317 NA
ATOM     22  H   LIG    1       22.776 -28.537   4.924  0.00  0.00    +0.119 HD
ATOM     23  H   LIG    1       23.384 -30.019   4.664  0.00  0.00    +0.119 HD
ENDBRANCH  15  21
ENDBRANCH  13  15
ENDBRANCH   6  11
BRANCH   3  24
ATOM     24  C   LIG    1       25.771 -31.798  13.154  0.00  0.00    +0.327 C 
ATOM     25  O   LIG    1       26.887 -31.372  13.414  0.00  0.00    -0.249 OA
BRANCH  24  26
ATOM     26  OXT LIG    1       25.136 -32.670  13.977  0.00  0.00    -0.479 OA
ATOM     27  HXT LIG    1       24.887 -32.229  14.814  0.00  0.00    +0.295 HD
ENDBRANCH  24  26
ENDBRANCH   3  24
TORSDOF 5
ENDMDL
MODEL 3
REMARK VINA RESULT:      -5.3      9.182     10.577
REMARK  Name = *****
REMARK                            x       y       z     vdW  Elec       q    Type
REMARK                         _______ _______ _______ _____ _____    ______ ____
ROOT
ATOM      1  C   LIG    1       22.889 -30.876   9.650  0.00  0.00    +0.025 C 
ATOM      2  C   LIG    1       23.496 -32.042   8.847  0.00  0.00    +0.042 C 
ATOM      3  CA  LIG    1       24.177 -31.540   7.549  0.00  0.00    +0.201 C 
ATOM      4  N   LIG    1       25.584 -31.250   7.870  0.00  0.00    -0.271 N 
ATOM      5  C   LIG    1       26.213 -32.035   8.956  0.00  0.00    +0.165 C 
ATOM      6  CA  LIG    1       26.820 -30.713   9.484  0.00  0.00    +0.190 C 
ATOM      7  C   LIG    1       25.891 -30.050   8.457  0.00  0.00    +0.240 C 
ATOM      8  O   LIG    1       25.417 -28.943   8.273  0.00  0.00    -0.273 OA
ATOM      9  S   LIG    1       24.832 -32.789   9.889  0.00  0.00    -0.127 S 
ATOM     10  C   LIG    1       22.403 -33.098   8.648  0.00  0.00    +0.025 C 
ENDROOT
BRANCH   6  11
ATOM     11  N   LIG    1       26.600 -30.397  10.909  0.00  0.00    -0.300 N 
ATOM     12  H   LIG    1       25.744 -30.630  11.408  0.00  0.00    +0.150 HD
ATOM     13  C   LIG    1       27.500 -29.631  11.616  0.00  0.00    +0.234 C 
ATOM     14  O   LIG    1       28.533 -29.216  11.099  0.00  0.00    -0.274 OA
BRANCH  13  15
ATOM     15  C   LIG    1       27.114 -29.433  13.115  0.00  0.00    +0.094 C 
ATOM     16  C   LIG    1       27.574 -28.040  13.581  0.00  0.00    +0.031 C 
ATOM     17  C   LIG    1       26.732 -26.915  12.976  0.00  0.00    +0.002 C 
ATOM     18  C   LIG    1       25.242 -27.115  13.241  0.00  0.00    +0.000 C 
ATOM     19  C   LIG    1       24.748 -28.483  12.782  0.00  0.00    +0.002 C 
ATOM     20  C   LIG    1       25.603 -29.625  13.337  0.00  0.00    +0.031 C 
BRANCH  15  21
ATOM     21  N   LIG    1       27.861 -30.454  13.908  0.00  0.00    -0.317 NA
ATOM     22  H   LIG    1       28.367 -31.064  13.265  0.00  0.00    +0.119 HD
ATOM     23  H   LIG    1       28.588 -29.975  14.447  0.00  0.00    +0.119 HD
ENDBRANCH  15  21
ENDBRANCH  13  15
ENDBRANCH   6  11
BRANCH   3  24
ATOM     24  C   LIG    1       24.112 -32.502   6.354  0.00  0.00    +0.327 C 
ATOM     25  O   LIG    1       24.748 -33.543   6.270  0.00  0.00    -0.249 OA
BRANCH  24  26
ATOM     26  OXT LIG    1       23.237 -32.127   5.388  0.00  0.00    -0.479 OA
ATOM     27  HXT LIG    1       23.133 -31.155   5.380  0.00  0.00    +0.295 HD
ENDBRANCH  24  26
ENDBRANCH   3  24
TORSDOF 5
ENDMDL
MODEL 4
REMARK VINA RESULT:      -5.3      9.019     10.636
REMARK  Name = *****
REMARK                            x       y       z     vdW  Elec       q    Type
REMARK                         _______ _______ _______ _____ _____    ______ ____
ROOT
ATOM      1  C   LIG    1       26.348 -32.687   8.859  0.00  0.00    +0.025 C 
ATOM      2  C   LIG    1       25.656 -31.881   7.744  0.00  0.00    +0.042 C 
ATOM      3  CA  LIG    1       24.179 -32.314   7.568  0.00  0.00    +0.201 C 
ATOM      4  N   LIG    1       23.360 -31.470   8.453  0.00  0.00    -0.271 N 
ATOM      5  C   LIG    1       23.857 -30.107   8.748  0.00  0.00    +0.165 C 
ATOM      6  CA  LIG    1       23.486 -30.354  10.230  0.00  0.00    +0.190 C 
ATOM      7  C   LIG    1       23.267 -31.805   9.779  0.00  0.00    +0.240 C 
ATOM      8  O   LIG    1       23.205 -32.900  10.308  0.00  0.00    -0.273 OA
ATOM      9  S   LIG    1       25.626 -30.110   8.283  0.00  0.00    -0.127 S 
ATOM     10  C   LIG    1       26.523 -31.978   6.483  0.00  0.00    +0.025 C 
ENDROOT
BRANCH   6  11
ATOM     11  N   LIG    1       24.539 -30.103  11.234  0.00  0.00    -0.300 N 
ATOM     12  H   LIG    1       25.426 -30.602  11.252  0.00  0.00    +0.150 HD
ATOM     13  C   LIG    1       24.317 -29.264  12.304  0.00  0.00    +0.234 C 
ATOM     14  O   LIG    1       23.253 -28.669  12.441  0.00  0.00    -0.274 OA
BRANCH  13  15
ATOM     15  C   LIG    1       25.556 -29.098  13.237  0.00  0.00    +0.094 C 
ATOM     16  C   LIG    1       26.824 -28.935  12.379  0.00  0.00    +0.031 C 
ATOM     17  C   LIG    1       26.882 -27.578  11.676  0.00  0.00    +0.002 C 
ATOM     18  C   LIG    1       26.738 -26.421  12.661  0.00  0.00    +0.000 C 
ATOM     19  C   LIG    1       25.486 -26.544  13.523  0.00  0.00    +0.002 C 
ATOM     20  C   LIG    1       25.380 -27.912  14.202  0.00  0.00    +0.031 C 
BRANCH  15  21
ATOM     21  N   LIG    1       25.693 -30.358  14.027  0.00  0.00    -0.317 NA
ATOM     22  H   LIG    1       25.695 -30.124  15.021  0.00  0.00    +0.119 HD
ATOM     23  H   LIG    1       24.848 -30.919  13.889  0.00  0.00    +0.119 HD
ENDBRANCH  15  21
ENDBRANCH  13  15
ENDBRANCH   6  11
BRANCH   3  24
ATOM     24  C   LIG    1       23.634 -32.234   6.134  0.00  0.00    +0.327 C 
ATOM     25  O   LIG    1       23.441 -33.203   5.413  0.00  0.00    -0.249 OA
BRANCH  24  26
ATOM     26  OXT LIG    1       23.331 -30.977   5.726  0.00  0.00    -0.479 OA
ATOM     27  HXT LIG    1       24.100 -30.385   5.843  0.00  0.00    +0.295 HD
ENDBRANCH  24  26
ENDBRANCH   3  24
TORSDOF 5
ENDMDL
MODEL 5
REMARK VINA RESULT:      -5.2      8.661     11.018
REMARK  Name = *****
REMARK                            x       y       z     vdW  Elec       q    Type
REMARK                         _______ _______ _______ _____ _____    ______ ____
ROOT
ATOM      1  C   LIG    1       26.004 -30.969  13.286  0.00  0.00    +0.025 C 
ATOM      2  C   LIG    1       25.866 -29.497  13.717  0.00  0.00    +0.042 C 
ATOM      3  CA  LIG    1       27.229 -28.762  13.666  0.00  0.00    +0.201 C 
ATOM      4  N   LIG    1       27.370 -28.179  12.322  0.00  0.00    -0.271 N 
ATOM      5  C   LIG    1       26.129 -27.798  11.610  0.00  0.00    +0.165 C 
ATOM      6  CA  LIG    1       26.724 -28.455  10.340  0.00  0.00    +0.190 C 
ATOM      7  C   LIG    1       27.801 -28.983  11.299  0.00  0.00    +0.240 C 
ATOM      8  O   LIG    1       28.628 -29.876  11.298  0.00  0.00    -0.273 OA
ATOM      9  S   LIG    1       24.771 -28.662  12.479  0.00  0.00    -0.127 S 
ATOM     10  C   LIG    1       25.155 -29.467  15.075  0.00  0.00    +0.025 C 
ENDROOT
BRANCH   6  11
ATOM     11  N   LIG    1       25.882 -29.448   9.644  0.00  0.00    -0.300 N 
ATOM     12  H   LIG    1       25.681 -30.372  10.019  0.00  0.00    +0.150 HD
ATOM     13  C   LIG    1       25.432 -29.225   8.361  0.00  0.00    +0.234 C 
ATOM     14  O   LIG    1       25.682 -28.181   7.767  0.00  0.00    -0.274 OA
BRANCH  13  15
ATOM     15  C   LIG    1       24.531 -30.371   7.806  0.00  0.00    +0.094 C 
ATOM     16  C   LIG    1       24.134 -30.051   6.353  0.00  0.00    +0.031 C 
ATOM     17  C   LIG    1       25.309 -30.192   5.384  0.00  0.00    +0.002 C 
ATOM     18  C   LIG    1       25.963 -31.568   5.480  0.00  0.00    +0.000 C 
ATOM     19  C   LIG    1       26.378 -31.916   6.906  0.00  0.00    +0.002 C 
ATOM     20  C   LIG    1       25.232 -31.738   7.904  0.00  0.00    +0.031 C 
BRANCH  15  21
ATOM     21  N   LIG    1       23.284 -30.398   8.628  0.00  0.00    -0.317 NA
ATOM     22  H   LIG    1       23.531 -30.634   9.591  0.00  0.00    +0.119 HD
ATOM     23  H   LIG    1       22.909 -29.446   8.676  0.00  0.00    +0.119 HD
ENDBRANCH  15  21
ENDBRANCH  13  15
ENDBRANCH   6  11
BRANCH   3  24
ATOM     24  C   LIG    1       27.429 -27.666  14.724  0.00  0.00    +0.327 C 
ATOM     25  O   LIG    1       26.631 -26.767  14.945  0.00  0.00    -0.249 OA
BRANCH  24  26
ATOM     26  OXT LIG    1       28.568 -27.797  15.449  0.00  0.00    -0.479 OA
ATOM     27  HXT LIG    1       28.374 -27.732  16.405  0.00  0.00    +0.295 HD
ENDBRANCH  24  26
ENDBRANCH   3  24
TORSDOF 5
ENDMDL
MODEL 6
REMARK VINA RESULT:      -4.9     10.034     12.111
REMARK  Name = *****
REMARK                            x       y       z     vdW  Elec       q    Type
REMARK                         _______ _______ _______ _____ _____    ______ ____
ROOT
ATOM      1  C   LIG    1       22.830 -33.670  10.826  0.00  0.00    +0.025 C 
ATOM      2  C   LIG    1       22.238 -32.577  11.735  0.00  0.00    +0.042 C 
ATOM      3  CA  LIG    1       23.318 -31.969  12.665  0.00  0.00    +0.201 C 
ATOM      4  N   LIG    1       23.917 -30.823  11.961  0.00  0.00    -0.271 N 
ATOM      5  C   LIG    1       23.064 -30.093  10.996  0.00  0.00    +0.165 C 
ATOM      6  CA  LIG    1       24.266 -30.092  10.022  0.00  0.00    +0.190 C 
ATOM      7  C   LIG    1       24.896 -31.061  11.032  0.00  0.00    +0.240 C 
ATOM      8  O   LIG    1       25.794 -31.883  11.032  0.00  0.00    -0.273 OA
ATOM      9  S   LIG    1       21.656 -31.204  10.637  0.00  0.00    -0.127 S 
ATOM     10  C   LIG    1       21.015 -33.165  12.448  0.00  0.00    +0.025 C 
ENDROOT
BRANCH   6  11
ATOM     11  N   LIG    1       24.020 -30.594   8.655  0.00  0.00    -0.300 N 
ATOM     12  H   LIG    1       23.436 -31.403   8.453  0.00  0.00    +0.150 HD
ATOM     13  C   LIG    1       24.693 -30.072   7.573  0.00  0.00    +0.234 C 
ATOM     14  O   LIG    1       25.492 -29.149   7.700  0.00  0.00    -0.274 OA
BRANCH  13  15
ATOM     15  C   LIG    1       24.276 -30.707   6.210  0.00  0.00    +0.094 C 
ATOM     16  C   LIG    1       25.517 -30.847   5.310  0.00  0.00    +0.031 C 
ATOM     17  C   LIG    1       26.466 -31.945   5.794  0.00  0.00    +0.002 C 
ATOM     18  C   LIG    1       25.752 -33.285   5.951  0.00  0.00    +0.000 C 
ATOM     19  C   LIG    1       24.520 -33.186   6.845  0.00  0.00    +0.002 C 
ATOM     20  C   LIG    1       23.576 -32.062   6.410  0.00  0.00    +0.031 C 
BRANCH  15  21
ATOM     21  N   LIG    1       23.331 -29.759   5.546  0.00  0.00    -0.317 NA
ATOM     22  H   LIG    1       23.249 -28.920   6.121  0.00  0.00    +0.119 HD
ATOM     23  H   LIG    1       23.756 -29.440   4.671  0.00  0.00    +0.119 HD
ENDBRANCH  15  21
ENDBRANCH  13  15
ENDBRANCH   6  11
BRANCH   3  24
ATOM     24  C   LIG    1       22.823 -31.520  14.048  0.00  0.00    +0.327 C 
ATOM     25  O   LIG    1       22.153 -30.517  14.249  0.00  0.00    -0.249 OA
BRANCH  24  26
ATOM     26  OXT LIG    1       23.153 -32.365  15.056  0.00  0.00    -0.479 OA
ATOM     27  HXT LIG    1       22.456 -32.367  15.742  0.00  0.00    +0.295 HD
ENDBRANCH  24  26
ENDBRANCH   3  24
TORSDOF 5
ENDMDL
MODEL 7
REMARK VINA RESULT:      -4.9      9.217     10.448
REMARK  Name = *****
REMARK                            x       y       z     vdW  Elec       q    Type
REMARK                         _______ _______ _______ _____ _____    ______ ____
ROOT
ATOM      1  C   LIG    1       23.494 -30.081   9.402  0.00  0.00    +0.025 C 
ATOM      2  C   LIG    1       24.477 -31.198   9.004  0.00  0.00    +0.042 C 
ATOM      3  CA  LIG    1       25.689 -30.631   8.223  0.00  0.00    +0.201 C 
ATOM      4  N   LIG    1       26.733 -30.296   9.205  0.00  0.00    -0.271 N 
ATOM      5  C   LIG    1       26.774 -31.087  10.455  0.00  0.00    +0.165 C 
ATOM      6  CA  LIG    1       26.972 -29.757  11.223  0.00  0.00    +0.190 C 
ATOM      7  C   LIG    1       26.647 -29.102   9.873  0.00  0.00    +0.240 C 
ATOM      8  O   LIG    1       26.275 -28.010   9.483  0.00  0.00    -0.273 OA
ATOM      9  S   LIG    1       25.150 -31.921  10.570  0.00  0.00    -0.127 S 
ATOM     10  C   LIG    1       23.682 -32.290   8.279  0.00  0.00    +0.025 C 
ENDROOT
BRANCH   6  11
ATOM     11  N   LIG    1       26.055 -29.493  12.349  0.00  0.00    -0.300 N 
ATOM     12  H   LIG    1       25.252 -30.079  12.567  0.00  0.00    +0.150 HD
ATOM     13  C   LIG    1       26.157 -28.338  13.094  0.00  0.00    +0.234 C 
ATOM     14  O   LIG    1       27.034 -27.508  12.872  0.00  0.00    -0.274 OA
BRANCH  13  15
ATOM     15  C   LIG    1       25.124 -28.251  14.260  0.00  0.00    +0.094 C 
ATOM     16  C   LIG    1       24.942 -26.779  14.672  0.00  0.00    +0.031 C 
ATOM     17  C   LIG    1       24.174 -25.972  13.625  0.00  0.00    +0.002 C 
ATOM     18  C   LIG    1       22.831 -26.613  13.285  0.00  0.00    +0.000 C 
ATOM     19  C   LIG    1       22.974 -28.072  12.862  0.00  0.00    +0.002 C 
ATOM     20  C   LIG    1       23.780 -28.892  13.872  0.00  0.00    +0.031 C 
BRANCH  15  21
ATOM     21  N   LIG    1       25.702 -28.987  15.425  0.00  0.00    -0.317 NA
ATOM     22  H   LIG    1       26.602 -28.569  15.664  0.00  0.00    +0.119 HD
ATOM     23  H   LIG    1       25.106 -28.820  16.240  0.00  0.00    +0.119 HD
ENDBRANCH  15  21
ENDBRANCH  13  15
ENDBRANCH   6  11
BRANCH   3  24
ATOM     24  C   LIG    1       26.275 -31.560   7.149  0.00  0.00    +0.327 C 
ATOM     25  O   LIG    1       26.855 -32.611   7.386  0.00  0.00    -0.249 OA
BRANCH  24  26
ATOM     26  OXT LIG    1       26.059 -31.143   5.877  0.00  0.00    -0.479 OA
ATOM     27  HXT LIG    1       25.707 -31.875   5.332  0.00  0.00    +0.295 HD
ENDBRANCH  24  26
ENDBRANCH   3  24
TORSDOF 5
ENDMDL
MODEL 8
REMARK VINA RESULT:      -4.9      9.593     11.337
REMARK  Name = *****
REMARK                            x       y       z     vdW  Elec       q    Type
REMARK                         _______ _______ _______ _____ _____    ______ ____
ROOT
ATOM      1  C   LIG    1       21.293 -28.799  12.417  0.00  0.00    +0.025 C 
ATOM      2  C   LIG    1       20.548 -30.146  12.487  0.00  0.00    +0.042 C 
ATOM      3  CA  LIG    1       20.365 -30.764  11.078  0.00  0.00    +0.201 C 
ATOM      4  N   LIG    1       21.535 -31.617  10.812  0.00  0.00    -0.271 N 
ATOM      5  C   LIG    1       22.203 -32.242  11.975  0.00  0.00    +0.165 C 
ATOM      6  CA  LIG    1       23.557 -31.838  11.342  0.00  0.00    +0.190 C 
ATOM      7  C   LIG    1       22.690 -31.028  10.368  0.00  0.00    +0.240 C 
ATOM      8  O   LIG    1       22.851 -30.095   9.603  0.00  0.00    -0.273 OA
ATOM      9  S   LIG    1       21.620 -31.317  13.441  0.00  0.00    -0.127 S 
ATOM     10  C   LIG    1       19.256 -29.930  13.282  0.00  0.00    +0.025 C 
ENDROOT
BRANCH   6  11
ATOM     11  N   LIG    1       24.500 -31.093  12.200  0.00  0.00    -0.300 N 
ATOM     12  H   LIG    1       24.217 -30.591  13.039  0.00  0.00    +0.150 HD
ATOM     13  C   LIG    1       25.813 -30.915  11.826  0.00  0.00    +0.234 C 
ATOM     14  O   LIG    1       26.256 -31.400  10.789  0.00  0.00    -0.274 OA
BRANCH  13  15
ATOM     15  C   LIG    1       26.663 -30.131  12.874  0.00  0.00    +0.094 C 
ATOM     16  C   LIG    1       27.867 -29.478  12.171  0.00  0.00    +0.031 C 
ATOM     17  C   LIG    1       27.456 -28.303  11.283  0.00  0.00    +0.002 C 
ATOM     18  C   LIG    1       26.645 -27.264  12.054  0.00  0.00    +0.000 C 
ATOM     19  C   LIG    1       25.437 -27.874  12.757  0.00  0.00    +0.002 C 
ATOM     20  C   LIG    1       25.815 -29.083  13.616  0.00  0.00    +0.031 C 
BRANCH  15  21
ATOM     21  N   LIG    1       27.187 -31.125  13.858  0.00  0.00    -0.317 NA
ATOM     22  H   LIG    1       26.706 -32.014  13.715  0.00  0.00    +0.119 HD
ATOM     23  H   LIG    1       28.168 -31.316  13.633  0.00  0.00    +0.119 HD
ENDBRANCH  15  21
ENDBRANCH  13  15
ENDBRANCH   6  11
BRANCH   3  24
ATOM     24  C   LIG    1       19.079 -31.579  10.877  0.00  0.00    +0.327 C 
ATOM     25  O   LIG    1       18.893 -32.699  11.333  0.00  0.00    -0.249 OA
BRANCH  24  26
ATOM     26  OXT LIG    1       18.117 -30.932  10.174  0.00  0.00    -0.479 OA
ATOM     27  HXT LIG    1       17.309 -30.829  10.715  0.00  0.00    +0.295 HD
ENDBRANCH  24  26
ENDBRANCH   3  24
TORSDOF 5
ENDMDL
MODEL 9
REMARK VINA RESULT:      -4.8      7.831     10.097
REMARK  Name = *****
REMARK                            x       y       z     vdW  Elec       q    Type
REMARK                         _______ _______ _______ _____ _____    ______ ____
ROOT
ATOM      1  C   LIG    1       23.829 -32.870   8.561  0.00  0.00    +0.025 C 
ATOM      2  C   LIG    1       23.464 -32.260   9.927  0.00  0.00    +0.042 C 
ATOM      3  CA  LIG    1       24.616 -32.434  10.949  0.00  0.00    +0.201 C 
ATOM      4  N   LIG    1       25.487 -31.252  10.844  0.00  0.00    -0.271 N 
ATOM      5  C   LIG    1       24.862 -29.979  10.419  0.00  0.00    +0.165 C 
ATOM      6  CA  LIG    1       26.072 -29.765   9.478  0.00  0.00    +0.190 C 
ATOM      7  C   LIG    1       26.423 -31.214   9.844  0.00  0.00    +0.240 C 
ATOM      8  O   LIG    1       27.111 -32.104   9.379  0.00  0.00    -0.273 OA
ATOM      9  S   LIG    1       23.254 -30.437   9.676  0.00  0.00    -0.127 S 
ATOM     10  C   LIG    1       22.111 -32.838  10.357  0.00  0.00    +0.025 C 
ENDROOT
BRANCH   6  11
ATOM     11  N   LIG    1       25.774 -29.470   8.062  0.00  0.00    -0.300 N 
ATOM     12  H   LIG    1       25.501 -30.182   7.388  0.00  0.00    +0.150 HD
ATOM     13  C   LIG    1       25.990 -28.216   7.536  0.00  0.00    +0.234 C 
ATOM     14  O   LIG    1       26.401 -27.291   8.230  0.00  0.00    -0.274 OA
BRANCH  13  15
ATOM     15  C   LIG    1       25.586 -28.089   6.034  0.00  0.00    +0.094 C 
ATOM     16  C   LIG    1       24.137 -27.576   5.937  0.00  0.00    +0.031 C 
ATOM     17  C   LIG    1       24.013 -26.104   6.333  0.00  0.00    +0.002 C 
ATOM     18  C   LIG    1       24.961 -25.217   5.531  0.00  0.00    +0.000 C 
ATOM     19  C   LIG    1       26.409 -25.690   5.612  0.00  0.00    +0.002 C 
ATOM     20  C   LIG    1       26.555 -27.174   5.265  0.00  0.00    +0.031 C 
BRANCH  15  21
ATOM     21  N   LIG    1       25.630 -29.459   5.441  0.00  0.00    -0.317 NA
ATOM     22  H   LIG    1       26.175 -30.065   6.056  0.00  0.00    +0.119 HD
ATOM     23  H   LIG    1       24.682 -29.848   5.458  0.00  0.00    +0.119 HD
ENDBRANCH  15  21
ENDBRANCH  13  15
ENDBRANCH   6  11
BRANCH   3  24
ATOM     24  C   LIG    1       24.178 -32.620  12.410  0.00  0.00    +0.327 C 
ATOM     25  O   LIG    1       24.144 -33.697  12.988  0.00  0.00    -0.249 OA
BRANCH  24  26
ATOM     26  OXT LIG    1       23.866 -31.464  13.047  0.00  0.00    -0.479 OA
ATOM     27  HXT LIG    1       23.134 -31.610  13.679  0.00  0.00    +0.295 HD
ENDBRANCH  24  26
ENDBRANCH   3  24
TORSDOF 5
ENDMDL
