MODEL 1
REMARK VINA RESULT:      -4.6      0.000      0.000
REMARK  Name = *****
REMARK                            x       y       z     vdW  Elec       q    Type
REMARK                         _______ _______ _______ _____ _____    ______ ____
ROOT
ATOM      1  C   LIG    1       25.132 -13.743   3.524  0.00  0.00    +0.126 C 
ATOM      2  C   LIG    1       25.132 -12.710   4.655  0.00  0.00    +0.236 C 
ATOM      3  O   LIG    1       24.206 -11.935   4.883  0.00  0.00    -0.274 OA
ATOM      4  N   LIG    1       26.223 -12.731   5.480  0.00  0.00    -0.239 N 
ATOM      5  H   LIG    1       26.207 -12.060   6.236  0.00  0.00    +0.159 HD
ATOM      6  C   LIG    1       27.468 -13.093   5.073  0.00  0.00    +0.312 C 
ATOM      7  O   LIG    1       28.472 -12.699   5.658  0.00  0.00    -0.252 OA
ATOM      8  N   LIG    1       27.554 -13.817   3.926  0.00  0.00    -0.239 N 
ATOM      9  H   LIG    1       28.494 -13.927   3.566  0.00  0.00    +0.159 HD
ATOM     10  C   LIG    1       26.560 -13.877   2.989  0.00  0.00    +0.236 C 
ATOM     11  O   LIG    1       26.839 -14.088   1.812  0.00  0.00    -0.274 OA
ENDROOT
BRANCH   1  12
ATOM     12  C   LIG    1       24.722 -15.143   4.153  0.00  0.00    +0.010 C 
ATOM     13  C   LIG    1       25.232 -16.338   3.325  0.00  0.00    +0.009 C 
BRANCH  12  15
ATOM     14  C   LIG    1       22.708 -16.722   4.456  0.00  0.00    +0.004 C 
ATOM     15  C   LIG    1       23.194 -15.278   4.384  0.00  0.00    +0.001 C 
ENDBRANCH  12  15
ENDBRANCH   1  12
BRANCH   1  16
ATOM     16  C   LIG    1       24.163 -13.309   2.393  0.00  0.00    +0.022 C 
ATOM     17  C   LIG    1       24.423 -11.917   1.813  0.00  0.00    +0.005 C 
ENDBRANCH   1  16
TORSDOF 3
ENDMDL
MODEL 2
REMARK VINA RESULT:      -3.6      1.648      2.218
REMARK  Name = *****
REMARK                            x       y       z     vdW  Elec       q    Type
REMARK                         _______ _______ _______ _____ _____    ______ ____
ROOT
ATOM      1  C   LIG    1       25.234 -13.581   3.905  0.00  0.00    +0.126 C 
ATOM      2  C   LIG    1       26.253 -13.634   5.047  0.00  0.00    +0.236 C 
ATOM      3  O   LIG    1       25.959 -13.572   6.238  0.00  0.00    -0.274 OA
ATOM      4  N   LIG    1       27.554 -13.829   4.674  0.00  0.00    -0.239 N 
ATOM      5  H   LIG    1       28.218 -13.883   5.434  0.00  0.00    +0.159 HD
ATOM      6  C   LIG    1       28.075 -13.389   3.499  0.00  0.00    +0.312 C 
ATOM      7  O   LIG    1       29.277 -13.177   3.371  0.00  0.00    -0.252 OA
ATOM      8  N   LIG    1       27.195 -13.090   2.508  0.00  0.00    -0.239 N 
ATOM      9  H   LIG    1       27.600 -12.613   1.712  0.00  0.00    +0.159 HD
ATOM     10  C   LIG    1       25.867 -12.843   2.722  0.00  0.00    +0.236 C 
ATOM     11  O   LIG    1       25.247 -12.113   1.952  0.00  0.00    -0.274 OA
ENDROOT
BRANCH   1  12
ATOM     12  C   LIG    1       24.954 -15.074   3.442  0.00  0.00    +0.010 C 
ATOM     13  C   LIG    1       23.785 -15.725   4.206  0.00  0.00    +0.009 C 
BRANCH  12  15
ATOM     14  C   LIG    1       25.916 -17.462   3.315  0.00  0.00    +0.004 C 
ATOM     15  C   LIG    1       26.209 -15.981   3.533  0.00  0.00    +0.001 C 
ENDBRANCH  12  15
ENDBRANCH   1  12
BRANCH   1  16
ATOM     16  C   LIG    1       23.937 -12.864   4.366  0.00  0.00    +0.022 C 
ATOM     17  C   LIG    1       24.138 -11.450   4.915  0.00  0.00    +0.005 C 
ENDBRANCH   1  16
TORSDOF 3
ENDMDL
MODEL 3
REMARK VINA RESULT:      -3.2      1.371      3.367
REMARK  Name = *****
REMARK                            x       y       z     vdW  Elec       q    Type
REMARK                         _______ _______ _______ _____ _____    ______ ____
ROOT
ATOM      1  C   LIG    1       25.579 -13.891   3.941  0.00  0.00    +0.126 C 
ATOM      2  C   LIG    1       26.589 -13.970   2.793  0.00  0.00    +0.236 C 
ATOM      3  O   LIG    1       26.484 -14.728   1.832  0.00  0.00    -0.274 OA
ATOM      4  N   LIG    1       27.624 -13.078   2.850  0.00  0.00    -0.239 N 
ATOM      5  H   LIG    1       28.277 -13.123   2.078  0.00  0.00    +0.159 HD
ATOM      6  C   LIG    1       28.154 -12.611   4.010  0.00  0.00    +0.312 C 
ATOM      7  O   LIG    1       29.306 -12.191   4.065  0.00  0.00    -0.252 OA
ATOM      8  N   LIG    1       27.392 -12.733   5.128  0.00  0.00    -0.239 N 
ATOM      9  H   LIG    1       27.875 -12.530   5.994  0.00  0.00    +0.159 HD
ATOM     10  C   LIG    1       26.338 -13.598   5.238  0.00  0.00    +0.236 C 
ATOM     11  O   LIG    1       26.021 -14.041   6.339  0.00  0.00    -0.274 OA
ENDROOT
BRANCH   1  12
ATOM     12  C   LIG    1       24.625 -12.654   3.656  0.00  0.00    +0.010 C 
ATOM     13  C   LIG    1       24.895 -11.997   2.288  0.00  0.00    +0.009 C 
BRANCH  12  15
ATOM     14  C   LIG    1       23.380 -11.447   5.563  0.00  0.00    +0.004 C 
ATOM     15  C   LIG    1       24.678 -11.578   4.773  0.00  0.00    +0.001 C 
ENDBRANCH  12  15
ENDBRANCH   1  12
BRANCH   1  16
ATOM     16  C   LIG    1       24.786 -15.220   4.060  0.00  0.00    +0.022 C 
ATOM     17  C   LIG    1       23.309 -15.063   4.430  0.00  0.00    +0.005 C 
ENDBRANCH   1  16
TORSDOF 3
ENDMDL
MODEL 4
REMARK VINA RESULT:      -3.1      1.624      3.321
REMARK  Name = *****
REMARK                            x       y       z     vdW  Elec       q    Type
REMARK                         _______ _______ _______ _____ _____    ______ ____
ROOT
ATOM      1  C   LIG    1       26.360 -13.778   3.659  0.00  0.00    +0.126 C 
ATOM      2  C   LIG    1       25.673 -12.660   2.869  0.00  0.00    +0.236 C 
ATOM      3  O   LIG    1       26.098 -12.200   1.812  0.00  0.00    -0.274 OA
ATOM      4  N   LIG    1       24.480 -12.221   3.374  0.00  0.00    -0.239 N 
ATOM      5  H   LIG    1       24.023 -11.497   2.837  0.00  0.00    +0.159 HD
ATOM      6  C   LIG    1       24.180 -12.215   4.699  0.00  0.00    +0.312 C 
ATOM      7  O   LIG    1       23.343 -11.447   5.162  0.00  0.00    -0.252 OA
ATOM      8  N   LIG    1       24.925 -13.018   5.503  0.00  0.00    -0.239 N 
ATOM      9  H   LIG    1       24.788 -12.867   6.495  0.00  0.00    +0.159 HD
ATOM     10  C   LIG    1       26.150 -13.517   5.153  0.00  0.00    +0.236 C 
ATOM     11  O   LIG    1       26.976 -13.781   6.022  0.00  0.00    -0.274 OA
ENDROOT
BRANCH   1  12
ATOM     12  C   LIG    1       25.624 -15.139   3.303  0.00  0.00    +0.010 C 
ATOM     13  C   LIG    1       24.308 -15.326   4.083  0.00  0.00    +0.009 C 
BRANCH  12  15
ATOM     14  C   LIG    1       25.796 -17.711   3.317  0.00  0.00    +0.004 C 
ATOM     15  C   LIG    1       26.529 -16.385   3.495  0.00  0.00    +0.001 C 
ENDBRANCH  12  15
ENDBRANCH   1  12
BRANCH   1  16
ATOM     16  C   LIG    1       27.874 -13.831   3.321  0.00  0.00    +0.022 C 
ATOM     17  C   LIG    1       28.702 -12.666   3.867  0.00  0.00    +0.005 C 
ENDBRANCH   1  16
TORSDOF 3
ENDMDL
MODEL 5
REMARK VINA RESULT:      -3.0      1.563      3.491
REMARK  Name = *****
REMARK                            x       y       z     vdW  Elec       q    Type
REMARK                         _______ _______ _______ _____ _____    ______ ____
ROOT
ATOM      1  C   LIG    1       25.964 -13.914   4.028  0.00  0.00    +0.126 C 
ATOM      2  C   LIG    1       26.070 -13.760   2.508  0.00  0.00    +0.236 C 
ATOM      3  O   LIG    1       27.015 -14.167   1.837  0.00  0.00    -0.274 OA
ATOM      4  N   LIG    1       24.993 -13.186   1.891  0.00  0.00    -0.239 N 
ATOM      5  H   LIG    1       25.062 -13.105   0.886  0.00  0.00    +0.159 HD
ATOM      6  C   LIG    1       24.197 -12.254   2.479  0.00  0.00    +0.312 C 
ATOM      7  O   LIG    1       23.548 -11.454   1.812  0.00  0.00    -0.252 OA
ATOM      8  N   LIG    1       24.238 -12.176   3.835  0.00  0.00    -0.239 N 
ATOM      9  H   LIG    1       23.765 -11.371   4.226  0.00  0.00    +0.159 HD
ATOM     10  C   LIG    1       25.259 -12.678   4.593  0.00  0.00    +0.236 C 
ATOM     11  O   LIG    1       25.520 -12.173   5.682  0.00  0.00    -0.274 OA
ENDROOT
BRANCH   1  12
ATOM     12  C   LIG    1       25.035 -15.169   4.319  0.00  0.00    +0.010 C 
ATOM     13  C   LIG    1       25.242 -16.311   3.305  0.00  0.00    +0.009 C 
BRANCH  12  15
ATOM     14  C   LIG    1       22.623 -15.986   4.722  0.00  0.00    +0.004 C 
ATOM     15  C   LIG    1       23.529 -14.803   4.395  0.00  0.00    +0.001 C 
ENDBRANCH  12  15
ENDBRANCH   1  12
BRANCH   1  16
ATOM     16  C   LIG    1       27.373 -14.077   4.658  0.00  0.00    +0.022 C 
ATOM     17  C   LIG    1       28.417 -13.065   4.182  0.00  0.00    +0.005 C 
ENDBRANCH   1  16
TORSDOF 3
ENDMDL
MODEL 6
REMARK VINA RESULT:      -2.7      2.018      3.968
REMARK  Name = *****
REMARK                            x       y       z     vdW  Elec       q    Type
REMARK                         _______ _______ _______ _____ _____    ______ ____
ROOT
ATOM      1  C   LIG    1       25.803 -14.629   3.775  0.00  0.00    +0.126 C 
ATOM      2  C   LIG    1       24.293 -14.411   3.915  0.00  0.00    +0.236 C 
ATOM      3  O   LIG    1       23.507 -15.263   4.320  0.00  0.00    -0.274 OA
ATOM      4  N   LIG    1       23.844 -13.153   3.621  0.00  0.00    -0.239 N 
ATOM      5  H   LIG    1       22.850 -13.011   3.734  0.00  0.00    +0.159 HD
ATOM      6  C   LIG    1       24.429 -12.340   2.703  0.00  0.00    +0.312 C 
ATOM      7  O   LIG    1       23.799 -11.447   2.145  0.00  0.00    -0.252 OA
ATOM      8  N   LIG    1       25.710 -12.629   2.351  0.00  0.00    -0.239 N 
ATOM      9  H   LIG    1       26.056 -12.111   1.553  0.00  0.00    +0.159 HD
ATOM     10  C   LIG    1       26.295 -13.848   2.554  0.00  0.00    +0.236 C 
ATOM     11  O   LIG    1       27.199 -14.225   1.812  0.00  0.00    -0.274 OA
ENDROOT
BRANCH   1  12
ATOM     12  C   LIG    1       26.499 -14.001   5.057  0.00  0.00    +0.010 C 
ATOM     13  C   LIG    1       25.847 -12.677   5.500  0.00  0.00    +0.009 C 
BRANCH  12  15
ATOM     14  C   LIG    1       28.438 -12.341   4.699  0.00  0.00    +0.004 C 
ATOM     15  C   LIG    1       28.027 -13.799   4.878  0.00  0.00    +0.001 C 
ENDBRANCH  12  15
ENDBRANCH   1  12
BRANCH   1  16
ATOM     16  C   LIG    1       26.122 -16.140   3.623  0.00  0.00    +0.022 C 
ATOM     17  C   LIG    1       27.568 -16.533   3.932  0.00  0.00    +0.005 C 
ENDBRANCH   1  16
TORSDOF 3
ENDMDL
MODEL 7
REMARK VINA RESULT:      -2.5      1.988      3.723
REMARK  Name = *****
REMARK                            x       y       z     vdW  Elec       q    Type
REMARK                         _______ _______ _______ _____ _____    ______ ____
ROOT
ATOM      1  C   LIG    1       25.757 -13.995   3.970  0.00  0.00    +0.126 C 
ATOM      2  C   LIG    1       24.596 -14.993   3.967  0.00  0.00    +0.236 C 
ATOM      3  O   LIG    1       23.482 -14.759   4.428  0.00  0.00    -0.274 OA
ATOM      4  N   LIG    1       24.839 -16.186   3.344  0.00  0.00    -0.239 N 
ATOM      5  H   LIG    1       24.062 -16.833   3.328  0.00  0.00    +0.159 HD
ATOM      6  C   LIG    1       26.064 -16.774   3.293  0.00  0.00    +0.312 C 
ATOM      7  O   LIG    1       26.186 -17.985   3.140  0.00  0.00    -0.252 OA
ATOM      8  N   LIG    1       27.139 -15.977   3.529  0.00  0.00    -0.239 N 
ATOM      9  H   LIG    1       28.014 -16.473   3.647  0.00  0.00    +0.159 HD
ATOM     10  C   LIG    1       27.063 -14.768   4.164  0.00  0.00    +0.236 C 
ATOM     11  O   LIG    1       28.031 -14.343   4.791  0.00  0.00    -0.274 OA
ENDROOT
BRANCH   1  12
ATOM     12  C   LIG    1       25.811 -13.317   2.535  0.00  0.00    +0.010 C 
ATOM     13  C   LIG    1       26.727 -12.079   2.495  0.00  0.00    +0.009 C 
BRANCH  12  15
ATOM     14  C   LIG    1       24.185 -11.447   1.824  0.00  0.00    +0.004 C 
ATOM     15  C   LIG    1       24.407 -12.948   1.987  0.00  0.00    +0.001 C 
ENDBRANCH  12  15
ENDBRANCH   1  12
BRANCH   1  16
ATOM     16  C   LIG    1       25.569 -12.947   5.100  0.00  0.00    +0.022 C 
ATOM     17  C   LIG    1       24.215 -12.235   5.106  0.00  0.00    +0.005 C 
ENDBRANCH   1  16
TORSDOF 3
ENDMDL
MODEL 8
REMARK VINA RESULT:      -2.5      2.040      4.155
REMARK  Name = *****
REMARK                            x       y       z     vdW  Elec       q    Type
REMARK                         _______ _______ _______ _____ _____    ______ ____
ROOT
ATOM      1  C   LIG    1       25.542 -13.922   3.699  0.00  0.00    +0.126 C 
ATOM      2  C   LIG    1       26.473 -14.679   2.747  0.00  0.00    +0.236 C 
ATOM      3  O   LIG    1       27.154 -14.144   1.877  0.00  0.00    -0.274 OA
ATOM      4  N   LIG    1       26.571 -16.027   2.958  0.00  0.00    -0.239 N 
ATOM      5  H   LIG    1       27.202 -16.517   2.338  0.00  0.00    +0.159 HD
ATOM      6  C   LIG    1       25.558 -16.788   3.449  0.00  0.00    +0.312 C 
ATOM      7  O   LIG    1       25.496 -17.993   3.224  0.00  0.00    -0.252 OA
ATOM      8  N   LIG    1       24.562 -16.138   4.106  0.00  0.00    -0.239 N 
ATOM      9  H   LIG    1       23.751 -16.707   4.313  0.00  0.00    +0.159 HD
ATOM     10  C   LIG    1       24.319 -14.798   3.981  0.00  0.00    +0.236 C 
ATOM     11  O   LIG    1       23.183 -14.363   4.152  0.00  0.00    -0.274 OA
ENDROOT
BRANCH   1  12
ATOM     12  C   LIG    1       26.317 -13.726   5.072  0.00  0.00    +0.010 C 
ATOM     13  C   LIG    1       25.884 -12.451   5.821  0.00  0.00    +0.009 C 
BRANCH  12  15
ATOM     14  C   LIG    1       28.477 -12.346   4.799  0.00  0.00    +0.004 C 
ATOM     15  C   LIG    1       27.859 -13.737   4.903  0.00  0.00    +0.001 C 
ENDBRANCH  12  15
ENDBRANCH   1  12
BRANCH   1  16
ATOM     16  C   LIG    1       25.113 -12.567   3.076  0.00  0.00    +0.022 C 
ATOM     17  C   LIG    1       24.257 -12.676   1.812  0.00  0.00    +0.005 C 
ENDBRANCH   1  16
TORSDOF 3
ENDMDL
MODEL 9
REMARK VINA RESULT:      -1.9      2.016      4.250
REMARK  Name = *****
REMARK                            x       y       z     vdW  Elec       q    Type
REMARK                         _______ _______ _______ _____ _____    ______ ____
ROOT
ATOM      1  C   LIG    1       25.500 -13.261   3.776  0.00  0.00    +0.126 C 
ATOM      2  C   LIG    1       25.196 -14.514   2.949  0.00  0.00    +0.236 C 
ATOM      3  O   LIG    1       25.625 -14.715   1.816  0.00  0.00    -0.274 OA
ATOM      4  N   LIG    1       24.449 -15.473   3.576  0.00  0.00    -0.239 N 
ATOM      5  H   LIG    1       24.269 -16.306   3.032  0.00  0.00    +0.159 HD
ATOM      6  C   LIG    1       23.508 -15.199   4.517  0.00  0.00    +0.312 C 
ATOM      7  O   LIG    1       22.578 -15.970   4.736  0.00  0.00    -0.252 OA
ATOM      8  N   LIG    1       23.581 -13.987   5.126  0.00  0.00    -0.239 N 
ATOM      9  H   LIG    1       22.777 -13.751   5.696  0.00  0.00    +0.159 HD
ATOM     10  C   LIG    1       24.265 -12.920   4.613  0.00  0.00    +0.236 C 
ATOM     11  O   LIG    1       23.910 -11.776   4.885  0.00  0.00    -0.274 OA
ENDROOT
BRANCH   1  12
ATOM     12  C   LIG    1       26.675 -13.623   4.781  0.00  0.00    +0.010 C 
ATOM     13  C   LIG    1       26.934 -12.513   5.817  0.00  0.00    +0.009 C 
BRANCH  12  15
ATOM     14  C   LIG    1       28.976 -12.818   3.941  0.00  0.00    +0.004 C 
ATOM     15  C   LIG    1       28.000 -13.985   4.058  0.00  0.00    +0.001 C 
ENDBRANCH  12  15
ENDBRANCH   1  12
BRANCH   1  16
ATOM     16  C   LIG    1       25.876 -12.076   2.847  0.00  0.00    +0.022 C 
ATOM     17  C   LIG    1       24.761 -11.608   1.909  0.00  0.00    +0.005 C 
ENDBRANCH   1  16
TORSDOF 3
ENDMDL
