MODEL 1
REMARK VINA RESULT:       7.9      0.000      0.000
REMARK  Name = *****
REMARK                            x       y       z     vdW  Elec       q    Type
REMARK                         _______ _______ _______ _____ _____    ______ ____
ROOT
ATOM      1  C   LIG    1       25.304 -15.680   3.466  0.00  0.00    +0.136 A 
ATOM      2  C   LIG    1       24.054 -15.605   4.068  0.00  0.00    +0.094 A 
ATOM      3  C   LIG    1       23.740 -14.385   4.621  0.00  0.00    +0.131 A 
ATOM      4  N   LIG    1       24.584 -13.329   4.637  0.00  0.00    -0.222 NA
ATOM      5  C   LIG    1       25.788 -13.481   4.072  0.00  0.00    +0.220 A 
ATOM      6  N   LIG    1       26.161 -14.639   3.495  0.00  0.00    -0.199 NA
ENDROOT
BRANCH   5   7
ATOM      7  N   LIG    1       26.694 -12.419   4.092  0.00  0.00    -0.294 N 
ATOM      8  C   LIG    1       27.987 -12.718   4.755  0.00  0.00    +0.102 C 
ATOM      9  C   LIG    1       29.059 -12.322   3.724  0.00  0.00    +0.026 C 
ATOM     10  C   LIG    1       28.319 -12.270   2.399  0.00  0.00    +0.021 C 
ATOM     11  C   LIG    1       26.939 -11.771   2.799  0.00  0.00    +0.108 C 
BRANCH   8  12
ATOM     12  C   LIG    1       28.115 -11.912   6.059  0.00  0.00    +0.178 C 
BRANCH  12  13
ATOM     13  O   LIG    1       29.475 -11.563   6.324  0.00  0.00    -0.393 OA
ATOM     14  H   LIG    1       29.482 -10.586   6.337  0.00  0.00    +0.209 HD
ENDBRANCH  12  13
ENDBRANCH   8  12
ENDBRANCH   5   7
BRANCH   1  15
ATOM     15  N   LIG    1       25.727 -16.885   2.838  0.00  0.00    -0.324 N 
ATOM     16  H   LIG    1       25.322 -16.910   1.899  0.00  0.00    +0.148 HD
BRANCH  15  17
ATOM     17  C   LIG    1       27.188 -17.035   2.768  0.00  0.00    +0.138 C 
BRANCH  17  22
ATOM     18  C   LIG    1       28.698 -19.389   6.087  0.00  0.00    +0.138 A 
ATOM     19  C   LIG    1       27.482 -19.719   5.476  0.00  0.00    +0.083 A 
ATOM     20 CL   LIG    1       26.569 -21.102   5.969  0.00  0.00    -0.080 Cl
ATOM     21  C   LIG    1       26.982 -18.942   4.424  0.00  0.00    +0.028 A 
ATOM     22  C   LIG    1       27.683 -17.814   3.970  0.00  0.00    -0.029 A 
ATOM     23  C   LIG    1       28.840 -17.428   4.660  0.00  0.00    +0.009 A 
ATOM     24  C   LIG    1       29.334 -18.202   5.717  0.00  0.00    +0.047 A 
BRANCH  18  26
ATOM     25  C   LIG    1       28.698 -21.571   7.040  0.00  0.00    +0.277 C 
ATOM     26  O   LIG    1       29.187 -20.230   7.051  0.00  0.00    -0.494 OA
ENDBRANCH  18  26
ENDBRANCH  17  22
ENDBRANCH  15  17
ENDBRANCH   1  15
BRANCH   2  27
ATOM     27  C   LIG    1       23.119 -16.737   4.262  0.00  0.00    +0.220 C 
ATOM     28  N   LIG    1       23.224 -17.860   3.659  0.00  0.00    -0.242 NA
BRANCH  27  29
ATOM     29  O   LIG    1       22.077 -16.457   5.079  0.00  0.00    -0.492 OA
ATOM     30  H   LIG    1       21.812 -17.217   5.642  0.00  0.00    +0.294 HD
ENDBRANCH  27  29
BRANCH  28  31
ATOM     31  C   LIG    1       22.123 -18.832   3.881  0.00  0.00    +0.221 C 
BRANCH  31  32
ATOM     32  C   LIG    1       22.349 -19.847   4.995  0.00  0.00    +0.150 A 
ATOM     33  N   LIG    1       21.329 -20.651   5.362  0.00  0.00    -0.238 NA
ATOM     34  C   LIG    1       21.566 -21.501   6.378  0.00  0.00    +0.114 A 
ATOM     35  C   LIG    1       22.760 -21.571   7.052  0.00  0.00    +0.039 A 
ATOM     36  C   LIG    1       23.733 -20.702   6.621  0.00  0.00    +0.114 A 
ATOM     37  N   LIG    1       23.557 -19.834   5.607  0.00  0.00    -0.238 NA
ENDBRANCH  31  32
ENDBRANCH  28  31
ENDBRANCH   2  27
TORSDOF 11
ENDMDL
MODEL 2
REMARK VINA RESULT:       8.9      2.506      4.321
REMARK  Name = *****
REMARK                            x       y       z     vdW  Elec       q    Type
REMARK                         _______ _______ _______ _____ _____    ______ ____
ROOT
ATOM      1  C   LIG    1       24.315 -16.441   3.387  0.00  0.00    +0.136 A 
ATOM      2  C   LIG    1       23.349 -17.082   4.153  0.00  0.00    +0.094 A 
ATOM      3  C   LIG    1       22.389 -16.260   4.696  0.00  0.00    +0.131 A 
ATOM      4  N   LIG    1       22.384 -14.916   4.554  0.00  0.00    -0.222 NA
ATOM      5  C   LIG    1       23.365 -14.359   3.834  0.00  0.00    +0.220 A 
ATOM      6  N   LIG    1       24.331 -15.098   3.256  0.00  0.00    -0.199 NA
ENDROOT
BRANCH   5   7
ATOM      7  N   LIG    1       23.405 -12.971   3.686  0.00  0.00    -0.294 N 
ATOM      8  C   LIG    1       24.540 -12.305   4.371  0.00  0.00    +0.102 C 
ATOM      9  C   LIG    1       25.213 -11.453   3.282  0.00  0.00    +0.026 C 
ATOM     10  C   LIG    1       24.717 -12.039   1.972  0.00  0.00    +0.021 C 
ATOM     11  C   LIG    1       23.300 -12.477   2.309  0.00  0.00    +0.108 C 
BRANCH   8  12
ATOM     12  C   LIG    1       24.027 -11.448   5.540  0.00  0.00    +0.178 C 
BRANCH  12  13
ATOM     13  O   LIG    1       22.618 -11.607   5.722  0.00  0.00    -0.393 OA
ATOM     14  H   LIG    1       22.216 -11.159   4.953  0.00  0.00    +0.209 HD
ENDBRANCH  12  13
ENDBRANCH   8  12
ENDBRANCH   5   7
BRANCH   1  15
ATOM     15  N   LIG    1       25.344 -17.193   2.753  0.00  0.00    -0.324 N 
ATOM     16  H   LIG    1       25.458 -16.833   1.803  0.00  0.00    +0.148 HD
BRANCH  15  17
ATOM     17  C   LIG    1       26.629 -17.159   3.469  0.00  0.00    +0.138 C 
BRANCH  17  22
ATOM     18  C   LIG    1       28.130 -13.120   3.989  0.00  0.00    +0.138 A 
ATOM     19  C   LIG    1       27.488 -13.782   5.044  0.00  0.00    +0.083 A 
ATOM     20 CL   LIG    1       27.322 -13.051   6.602  0.00  0.00    -0.080 Cl
ATOM     21  C   LIG    1       26.979 -15.074   4.865  0.00  0.00    +0.028 A 
ATOM     22  C   LIG    1       27.092 -15.726   3.627  0.00  0.00    -0.029 A 
ATOM     23  C   LIG    1       27.636 -15.014   2.549  0.00  0.00    +0.009 A 
ATOM     24  C   LIG    1       28.137 -13.718   2.727  0.00  0.00    +0.047 A 
BRANCH  18  26
ATOM     25  C   LIG    1       29.132 -11.652   5.573  0.00  0.00    +0.277 C 
ATOM     26  O   LIG    1       28.688 -11.895   4.239  0.00  0.00    -0.494 OA
ENDBRANCH  18  26
ENDBRANCH  17  22
ENDBRANCH  15  17
ENDBRANCH   1  15
BRANCH   2  27
ATOM     27  C   LIG    1       23.350 -18.517   4.519  0.00  0.00    +0.220 C 
ATOM     28  N   LIG    1       22.307 -19.158   4.891  0.00  0.00    -0.242 NA
BRANCH  27  29
ATOM     29  O   LIG    1       24.577 -19.088   4.511  0.00  0.00    -0.492 OA
ATOM     30  H   LIG    1       25.292 -18.471   4.780  0.00  0.00    +0.294 HD
ENDBRANCH  27  29
BRANCH  28  31
ATOM     31  C   LIG    1       22.521 -20.557   5.343  0.00  0.00    +0.221 C 
BRANCH  31  32
ATOM     32  C   LIG    1       23.968 -20.953   5.611  0.00  0.00    +0.150 A 
ATOM     33  N   LIG    1       24.433 -20.909   6.878  0.00  0.00    -0.238 NA
ATOM     34  C   LIG    1       25.727 -21.228   7.058  0.00  0.00    +0.114 A 
ATOM     35  C   LIG    1       26.579 -21.567   6.036  0.00  0.00    +0.039 A 
ATOM     36  C   LIG    1       26.023 -21.567   4.780  0.00  0.00    +0.114 A 
ATOM     37  N   LIG    1       24.733 -21.264   4.539  0.00  0.00    -0.238 NA
ENDBRANCH  31  32
ENDBRANCH  28  31
ENDBRANCH   2  27
TORSDOF 11
ENDMDL
