MODEL 1
REMARK VINA RESULT:      -8.6      0.000      0.000
REMARK  Name = *****
REMARK                            x       y       z     vdW  Elec       q    Type
REMARK                         _______ _______ _______ _____ _____    ______ ____
ROOT
ATOM      1  C   LIG    1       24.760 -20.805   6.288  0.00  0.00    +0.083 C 
ENDROOT
BRANCH   1   6
ATOM      2 CL   LIG    1       24.112 -26.836   6.334  0.00  0.00    -0.084 Cl
ATOM      3  C   LIG    1       24.304 -25.126   6.336  0.00  0.00    +0.041 A 
ATOM      4  C   LIG    1       25.544 -24.571   6.045  0.00  0.00    +0.020 A 
ATOM      5  C   LIG    1       25.700 -23.183   6.033  0.00  0.00    +0.006 A 
ATOM      6  C   LIG    1       24.617 -22.334   6.322  0.00  0.00    -0.037 A 
ATOM      7  C   LIG    1       23.374 -22.917   6.623  0.00  0.00    +0.006 A 
ATOM      8  C   LIG    1       23.217 -24.306   6.626  0.00  0.00    +0.020 A 
ENDBRANCH   1   6
BRANCH   1   9
ATOM      9  C   LIG    1       26.220 -20.390   6.533  0.00  0.00    -0.019 A 
ATOM     10  C   LIG    1       26.779 -20.370   7.826  0.00  0.00    +0.045 A 
ATOM     11 CL   LIG    1       25.874 -20.801   9.237  0.00  0.00    -0.083 Cl
ATOM     12  C   LIG    1       28.114 -19.995   8.028  0.00  0.00    +0.020 A 
ATOM     13  C   LIG    1       28.920 -19.649   6.946  0.00  0.00    +0.001 A 
ATOM     14  C   LIG    1       28.396 -19.679   5.661  0.00  0.00    +0.000 A 
ATOM     15  C   LIG    1       27.063 -20.045   5.455  0.00  0.00    +0.006 A 
ENDBRANCH   1   9
BRANCH   1  16
ATOM     16  C   LIG    1       24.102 -20.200   5.013  0.00  0.00    +0.183 C 
ATOM     17 CL   LIG    1       22.406 -19.686   5.304  0.00  0.00    -0.104 Cl
ATOM     18 CL   LIG    1       24.065 -21.378   3.654  0.00  0.00    -0.104 Cl
ENDBRANCH   1  16
TORSDOF 3
ENDMDL
MODEL 2
REMARK VINA RESULT:      -8.1      2.151      5.336
REMARK  Name = *****
REMARK                            x       y       z     vdW  Elec       q    Type
REMARK                         _______ _______ _______ _____ _____    ______ ____
ROOT
ATOM      1  C   LIG    1       24.961 -22.418   7.536  0.00  0.00    +0.083 C 
ENDROOT
BRANCH   1   6
ATOM      2 CL   LIG    1       22.823 -18.541   3.391  0.00  0.00    -0.084 Cl
ATOM      3  C   LIG    1       23.436 -19.627   4.575  0.00  0.00    +0.041 A 
ATOM      4  C   LIG    1       22.803 -19.732   5.808  0.00  0.00    +0.020 A 
ATOM      5  C   LIG    1       23.291 -20.623   6.768  0.00  0.00    +0.006 A 
ATOM      6  C   LIG    1       24.424 -21.413   6.507  0.00  0.00    -0.037 A 
ATOM      7  C   LIG    1       25.054 -21.285   5.256  0.00  0.00    +0.006 A 
ATOM      8  C   LIG    1       24.560 -20.399   4.294  0.00  0.00    +0.020 A 
ENDBRANCH   1   6
BRANCH   1   9
ATOM      9  C   LIG    1       25.000 -23.836   6.942  0.00  0.00    -0.019 A 
ATOM     10  C   LIG    1       23.827 -24.506   6.540  0.00  0.00    +0.045 A 
ATOM     11 CL   LIG    1       22.256 -23.796   6.686  0.00  0.00    -0.083 Cl
ATOM     12  C   LIG    1       23.885 -25.795   5.995  0.00  0.00    +0.020 A 
ATOM     13  C   LIG    1       25.111 -26.434   5.825  0.00  0.00    +0.001 A 
ATOM     14  C   LIG    1       26.281 -25.787   6.197  0.00  0.00    +0.000 A 
ATOM     15  C   LIG    1       26.229 -24.504   6.749  0.00  0.00    +0.006 A 
ENDBRANCH   1   9
BRANCH   1  16
ATOM     16  C   LIG    1       26.295 -21.926   8.171  0.00  0.00    +0.183 C 
ATOM     17 CL   LIG    1       26.085 -20.400   9.093  0.00  0.00    -0.104 Cl
ATOM     18 CL   LIG    1       27.555 -21.614   6.925  0.00  0.00    -0.104 Cl
ENDBRANCH   1  16
TORSDOF 3
ENDMDL
MODEL 3
REMARK VINA RESULT:      -7.9      2.194      3.601
REMARK  Name = *****
REMARK                            x       y       z     vdW  Elec       q    Type
REMARK                         _______ _______ _______ _____ _____    ______ ____
ROOT
ATOM      1  C   LIG    1       25.974 -22.205   6.291  0.00  0.00    +0.083 C 
ENDROOT
BRANCH   1   6
ATOM      2 CL   LIG    1       24.482 -28.047   5.629  0.00  0.00    -0.084 Cl
ATOM      3  C   LIG    1       24.892 -26.388   5.827  0.00  0.00    +0.041 A 
ATOM      4  C   LIG    1       25.508 -25.965   6.999  0.00  0.00    +0.020 A 
ATOM      5  C   LIG    1       25.854 -24.621   7.158  0.00  0.00    +0.006 A 
ATOM      6  C   LIG    1       25.578 -23.682   6.148  0.00  0.00    -0.037 A 
ATOM      7  C   LIG    1       24.947 -24.129   4.975  0.00  0.00    +0.006 A 
ATOM      8  C   LIG    1       24.609 -25.476   4.814  0.00  0.00    +0.020 A 
ENDBRANCH   1   6
BRANCH   1   9
ATOM      9  C   LIG    1       24.895 -21.292   5.686  0.00  0.00    -0.019 A 
ATOM     10  C   LIG    1       23.564 -21.309   6.148  0.00  0.00    +0.045 A 
ATOM     11 CL   LIG    1       23.035 -22.358   7.420  0.00  0.00    -0.083 Cl
ATOM     12  C   LIG    1       22.596 -20.464   5.589  0.00  0.00    +0.020 A 
ATOM     13  C   LIG    1       22.939 -19.576   4.573  0.00  0.00    +0.001 A 
ATOM     14  C   LIG    1       24.249 -19.528   4.114  0.00  0.00    +0.000 A 
ATOM     15  C   LIG    1       25.216 -20.374   4.663  0.00  0.00    +0.006 A 
ENDBRANCH   1   9
BRANCH   1  16
ATOM     16  C   LIG    1       26.390 -21.865   7.752  0.00  0.00    +0.183 C 
ATOM     17 CL   LIG    1       25.618 -20.355   8.342  0.00  0.00    -0.104 Cl
ATOM     18 CL   LIG    1       28.168 -21.638   7.908  0.00  0.00    -0.104 Cl
ENDBRANCH   1  16
TORSDOF 3
ENDMDL
MODEL 4
REMARK VINA RESULT:      -7.8      2.238      3.953
REMARK  Name = *****
REMARK                            x       y       z     vdW  Elec       q    Type
REMARK                         _______ _______ _______ _____ _____    ______ ____
ROOT
ATOM      1  C   LIG    1       25.813 -22.369   6.346  0.00  0.00    +0.083 C 
ENDROOT
BRANCH   1   6
ATOM      2 CL   LIG    1       24.866 -28.303   5.523  0.00  0.00    -0.084 Cl
ATOM      3  C   LIG    1       25.120 -26.619   5.767  0.00  0.00    +0.041 A 
ATOM      4  C   LIG    1       25.636 -26.168   6.976  0.00  0.00    +0.020 A 
ATOM      5  C   LIG    1       25.856 -24.802   7.172  0.00  0.00    +0.006 A 
ATOM      6  C   LIG    1       25.554 -23.871   6.162  0.00  0.00    -0.037 A 
ATOM      7  C   LIG    1       25.025 -24.349   4.950  0.00  0.00    +0.006 A 
ATOM      8  C   LIG    1       24.813 -25.717   4.752  0.00  0.00    +0.020 A 
ENDBRANCH   1   6
BRANCH   1   9
ATOM      9  C   LIG    1       24.624 -21.544   5.825  0.00  0.00    -0.019 A 
ATOM     10  C   LIG    1       24.809 -20.379   5.055  0.00  0.00    +0.045 A 
ATOM     11 CL   LIG    1       26.379 -19.780   4.639  0.00  0.00    -0.083 Cl
ATOM     12  C   LIG    1       23.713 -19.645   4.584  0.00  0.00    +0.020 A 
ATOM     13  C   LIG    1       22.414 -20.066   4.857  0.00  0.00    +0.001 A 
ATOM     14  C   LIG    1       22.206 -21.221   5.599  0.00  0.00    +0.000 A 
ATOM     15  C   LIG    1       23.296 -21.953   6.078  0.00  0.00    +0.006 A 
ENDBRANCH   1   9
BRANCH   1  16
ATOM     16  C   LIG    1       26.261 -22.043   7.801  0.00  0.00    +0.183 C 
ATOM     17 CL   LIG    1       25.387 -20.628   8.478  0.00  0.00    -0.104 Cl
ATOM     18 CL   LIG    1       28.018 -21.663   7.892  0.00  0.00    -0.104 Cl
ENDBRANCH   1  16
TORSDOF 3
ENDMDL
MODEL 5
REMARK VINA RESULT:      -7.6      1.703      2.621
REMARK  Name = *****
REMARK                            x       y       z     vdW  Elec       q    Type
REMARK                         _______ _______ _______ _____ _____    ______ ____
ROOT
ATOM      1  C   LIG    1       25.019 -22.572   7.075  0.00  0.00    +0.083 C 
ENDROOT
BRANCH   1   6
ATOM      2 CL   LIG    1       25.910 -28.125   4.805  0.00  0.00    -0.084 Cl
ATOM      3  C   LIG    1       25.672 -26.545   5.441  0.00  0.00    +0.041 A 
ATOM      4  C   LIG    1       25.181 -25.537   4.618  0.00  0.00    +0.020 A 
ATOM      5  C   LIG    1       24.975 -24.256   5.135  0.00  0.00    +0.006 A 
ATOM      6  C   LIG    1       25.265 -23.966   6.480  0.00  0.00    -0.037 A 
ATOM      7  C   LIG    1       25.768 -24.997   7.292  0.00  0.00    +0.006 A 
ATOM      8  C   LIG    1       25.966 -26.281   6.776  0.00  0.00    +0.020 A 
ENDBRANCH   1   6
BRANCH   1   9
ATOM      9  C   LIG    1       26.246 -21.668   6.867  0.00  0.00    -0.019 A 
ATOM     10  C   LIG    1       26.352 -20.802   5.761  0.00  0.00    +0.045 A 
ATOM     11 CL   LIG    1       25.121 -20.689   4.549  0.00  0.00    -0.083 Cl
ATOM     12  C   LIG    1       27.475 -19.981   5.593  0.00  0.00    +0.020 A 
ATOM     13  C   LIG    1       28.504 -19.996   6.531  0.00  0.00    +0.001 A 
ATOM     14  C   LIG    1       28.414 -20.828   7.639  0.00  0.00    +0.000 A 
ATOM     15  C   LIG    1       27.300 -21.654   7.807  0.00  0.00    +0.006 A 
ENDBRANCH   1   9
BRANCH   1  16
ATOM     16  C   LIG    1       23.665 -21.976   6.590  0.00  0.00    +0.183 C 
ATOM     17 CL   LIG    1       23.239 -20.465   7.462  0.00  0.00    -0.104 Cl
ATOM     18 CL   LIG    1       22.301 -23.123   6.835  0.00  0.00    -0.104 Cl
ENDBRANCH   1  16
TORSDOF 3
ENDMDL
MODEL 6
REMARK VINA RESULT:      -7.6      2.002      3.360
REMARK  Name = *****
REMARK                            x       y       z     vdW  Elec       q    Type
REMARK                         _______ _______ _______ _____ _____    ______ ____
ROOT
ATOM      1  C   LIG    1       25.600 -22.149   6.830  0.00  0.00    +0.083 C 
ENDROOT
BRANCH   1   6
ATOM      2 CL   LIG    1       24.283 -27.993   5.884  0.00  0.00    -0.084 Cl
ATOM      3  C   LIG    1       24.652 -26.332   6.136  0.00  0.00    +0.041 A 
ATOM      4  C   LIG    1       23.622 -25.418   6.324  0.00  0.00    +0.020 A 
ATOM      5  C   LIG    1       23.918 -24.070   6.542  0.00  0.00    +0.006 A 
ATOM      6  C   LIG    1       25.251 -23.620   6.565  0.00  0.00    -0.037 A 
ATOM      7  C   LIG    1       26.276 -24.561   6.364  0.00  0.00    +0.006 A 
ATOM      8  C   LIG    1       25.978 -25.910   6.155  0.00  0.00    +0.020 A 
ENDBRANCH   1   6
BRANCH   1   9
ATOM      9  C   LIG    1       25.341 -21.294   5.578  0.00  0.00    -0.019 A 
ATOM     10  C   LIG    1       26.215 -20.258   5.192  0.00  0.00    +0.045 A 
ATOM     11 CL   LIG    1       27.638 -19.860   6.093  0.00  0.00    -0.083 Cl
ATOM     12  C   LIG    1       25.965 -19.496   4.044  0.00  0.00    +0.020 A 
ATOM     13  C   LIG    1       24.851 -19.760   3.251  0.00  0.00    +0.001 A 
ATOM     14  C   LIG    1       23.986 -20.788   3.601  0.00  0.00    +0.000 A 
ATOM     15  C   LIG    1       24.226 -21.547   4.750  0.00  0.00    +0.006 A 
ENDBRANCH   1   9
BRANCH   1  16
ATOM     16  C   LIG    1       24.932 -21.631   8.138  0.00  0.00    +0.183 C 
ATOM     17 CL   LIG    1       23.401 -20.750   7.813  0.00  0.00    -0.104 Cl
ATOM     18 CL   LIG    1       26.004 -20.500   9.037  0.00  0.00    -0.104 Cl
ENDBRANCH   1  16
TORSDOF 3
ENDMDL
MODEL 7
REMARK VINA RESULT:      -7.6      2.155      5.259
REMARK  Name = *****
REMARK                            x       y       z     vdW  Elec       q    Type
REMARK                         _______ _______ _______ _____ _____    ______ ____
ROOT
ATOM      1  C   LIG    1       25.865 -21.644   6.562  0.00  0.00    +0.083 C 
ENDROOT
BRANCH   1   6
ATOM      2 CL   LIG    1       31.385 -19.190   7.105  0.00  0.00    -0.084 Cl
ATOM      3  C   LIG    1       29.812 -19.872   6.959  0.00  0.00    +0.041 A 
ATOM      4  C   LIG    1       28.931 -19.377   6.005  0.00  0.00    +0.020 A 
ATOM      5  C   LIG    1       27.658 -19.937   5.876  0.00  0.00    +0.006 A 
ATOM      6  C   LIG    1       27.249 -20.996   6.706  0.00  0.00    -0.037 A 
ATOM      7  C   LIG    1       28.153 -21.476   7.670  0.00  0.00    +0.006 A 
ATOM      8  C   LIG    1       29.429 -20.920   7.793  0.00  0.00    +0.020 A 
ENDBRANCH   1   6
BRANCH   1   9
ATOM      9  C   LIG    1       24.945 -20.775   5.689  0.00  0.00    -0.019 A 
ATOM     10  C   LIG    1       23.609 -20.511   6.051  0.00  0.00    +0.045 A 
ATOM     11 CL   LIG    1       22.895 -21.144   7.495  0.00  0.00    -0.083 Cl
ATOM     12  C   LIG    1       22.789 -19.710   5.246  0.00  0.00    +0.020 A 
ATOM     13  C   LIG    1       23.287 -19.145   4.074  0.00  0.00    +0.001 A 
ATOM     14  C   LIG    1       24.606 -19.376   3.706  0.00  0.00    +0.000 A 
ATOM     15  C   LIG    1       25.426 -20.180   4.503  0.00  0.00    +0.006 A 
ENDBRANCH   1   9
BRANCH   1  16
ATOM     16  C   LIG    1       25.977 -23.136   6.129  0.00  0.00    +0.183 C 
ATOM     17 CL   LIG    1       24.728 -23.585   4.920  0.00  0.00    -0.104 Cl
ATOM     18 CL   LIG    1       25.780 -24.256   7.524  0.00  0.00    -0.104 Cl
ENDBRANCH   1  16
TORSDOF 3
ENDMDL
MODEL 8
REMARK VINA RESULT:      -7.2      2.038      5.093
REMARK  Name = *****
REMARK                            x       y       z     vdW  Elec       q    Type
REMARK                         _______ _______ _______ _____ _____    ______ ____
ROOT
ATOM      1  C   LIG    1       25.579 -20.951   4.915  0.00  0.00    +0.083 C 
ENDROOT
BRANCH   1   6
ATOM      2 CL   LIG    1       29.931 -19.101   8.713  0.00  0.00    -0.084 Cl
ATOM      3  C   LIG    1       28.692 -19.609   7.633  0.00  0.00    +0.041 A 
ATOM      4  C   LIG    1       28.878 -19.482   6.261  0.00  0.00    +0.020 A 
ATOM      5  C   LIG    1       27.879 -19.906   5.381  0.00  0.00    +0.006 A 
ATOM      6  C   LIG    1       26.678 -20.454   5.865  0.00  0.00    -0.037 A 
ATOM      7  C   LIG    1       26.507 -20.565   7.256  0.00  0.00    +0.006 A 
ATOM      8  C   LIG    1       27.511 -20.149   8.135  0.00  0.00    +0.020 A 
ENDBRANCH   1   6
BRANCH   1   9
ATOM      9  C   LIG    1       24.761 -22.076   5.572  0.00  0.00    -0.019 A 
ATOM     10  C   LIG    1       23.590 -21.810   6.309  0.00  0.00    +0.045 A 
ATOM     11 CL   LIG    1       22.983 -20.206   6.542  0.00  0.00    -0.083 Cl
ATOM     12  C   LIG    1       22.855 -22.850   6.893  0.00  0.00    +0.020 A 
ATOM     13  C   LIG    1       23.262 -24.172   6.741  0.00  0.00    +0.001 A 
ATOM     14  C   LIG    1       24.403 -24.461   6.003  0.00  0.00    +0.000 A 
ATOM     15  C   LIG    1       25.144 -23.427   5.425  0.00  0.00    +0.006 A 
ENDBRANCH   1   9
BRANCH   1  16
ATOM     16  C   LIG    1       24.742 -19.768   4.343  0.00  0.00    +0.183 C 
ATOM     17 CL   LIG    1       23.569 -20.309   3.096  0.00  0.00    -0.104 Cl
ATOM     18 CL   LIG    1       25.785 -18.520   3.573  0.00  0.00    -0.104 Cl
ENDBRANCH   1  16
TORSDOF 3
ENDMDL
MODEL 9
REMARK VINA RESULT:      -7.1      1.787      4.077
REMARK  Name = *****
REMARK                            x       y       z     vdW  Elec       q    Type
REMARK                         _______ _______ _______ _____ _____    ______ ____
ROOT
ATOM      1  C   LIG    1       25.772 -21.679   6.004  0.00  0.00    +0.083 C 
ENDROOT
BRANCH   1   6
ATOM      2 CL   LIG    1       21.442 -18.046   3.805  0.00  0.00    -0.084 Cl
ATOM      3  C   LIG    1       22.676 -19.064   4.439  0.00  0.00    +0.041 A 
ATOM      4  C   LIG    1       22.540 -19.601   5.714  0.00  0.00    +0.020 A 
ATOM      5  C   LIG    1       23.534 -20.438   6.227  0.00  0.00    +0.006 A 
ATOM      6  C   LIG    1       24.681 -20.740   5.471  0.00  0.00    -0.037 A 
ATOM      7  C   LIG    1       24.802 -20.179   4.188  0.00  0.00    +0.006 A 
ATOM      8  C   LIG    1       23.803 -19.349   3.673  0.00  0.00    +0.020 A 
ENDBRANCH   1   6
BRANCH   1   9
ATOM      9  C   LIG    1       26.955 -20.873   6.568  0.00  0.00    -0.019 A 
ATOM     10  C   LIG    1       27.001 -20.467   7.916  0.00  0.00    +0.045 A 
ATOM     11 CL   LIG    1       25.736 -20.831   9.040  0.00  0.00    -0.083 Cl
ATOM     12  C   LIG    1       28.091 -19.740   8.412  0.00  0.00    +0.020 A 
ATOM     13  C   LIG    1       29.161 -19.418   7.581  0.00  0.00    +0.001 A 
ATOM     14  C   LIG    1       29.146 -19.824   6.253  0.00  0.00    +0.000 A 
ATOM     15  C   LIG    1       28.058 -20.543   5.751  0.00  0.00    +0.006 A 
ENDBRANCH   1   9
BRANCH   1  16
ATOM     16  C   LIG    1       25.181 -22.752   6.965  0.00  0.00    +0.183 C 
ATOM     17 CL   LIG    1       26.171 -24.250   6.999  0.00  0.00    -0.104 Cl
ATOM     18 CL   LIG    1       23.516 -23.238   6.486  0.00  0.00    -0.104 Cl
ENDBRANCH   1  16
TORSDOF 3
ENDMDL
