MODEL 1
REMARK VINA RESULT:      59.1      0.000      0.000
REMARK  Name = *****
REMARK                            x       y       z     vdW  Elec       q    Type
REMARK                         _______ _______ _______ _____ _____    ______ ____
ROOT
ATOM      1  C   LIG    1       25.338 -19.965   4.847  0.00  0.00    +0.178 C 
ATOM      2  C   LIG    1       24.468 -18.946   4.081  0.00  0.00    +0.151 C 
ATOM      3  C   LIG    1       24.007 -19.535   2.771  0.00  0.00    +0.095 C 
ATOM      4  C   LIG    1       23.443 -20.934   2.980  0.00  0.00    +0.253 C 
ATOM      5  O   LIG    1       23.341 -21.335   4.338  0.00  0.00    -0.346 OA
ATOM      6  C   LIG    1       24.468 -21.181   5.188  0.00  0.00    +0.150 C 
ATOM      7  C   LIG    1       23.945 -21.045   6.617  0.00  0.00    +0.040 C 
ENDROOT
BRANCH   2   8
ATOM      8  O   LIG    1       25.147 -17.720   3.778  0.00  0.00    -0.389 OA
ATOM      9  H   LIG    1       25.989 -17.712   4.271  0.00  0.00    +0.210 HD
ENDBRANCH   2   8
BRANCH   1  10
ATOM     10  O   LIG    1       26.465 -20.375   4.051  0.00  0.00    -0.343 OA
BRANCH  10  14
ATOM     11  C   LIG    1       28.408 -16.951   5.343  0.00  0.00    +0.178 C 
ATOM     12  C   LIG    1       26.934 -17.238   4.978  0.00  0.00    +0.151 C 
ATOM     13  C   LIG    1       26.946 -18.076   3.709  0.00  0.00    +0.095 C 
ATOM     14  C   LIG    1       27.553 -19.430   4.053  0.00  0.00    +0.254 C 
ATOM     15  O   LIG    1       28.212 -19.455   5.317  0.00  0.00    -0.346 OA
ATOM     16  C   LIG    1       29.077 -18.339   5.599  0.00  0.00    +0.150 C 
ATOM     17  C   LIG    1       29.475 -18.512   7.061  0.00  0.00    +0.040 C 
BRANCH  12  18
ATOM     18  O   LIG    1       26.127 -16.074   4.889  0.00  0.00    -0.389 OA
ATOM     19  H   LIG    1       26.718 -15.299   4.978  0.00  0.00    +0.210 HD
ENDBRANCH  12  18
BRANCH  11  20
ATOM     20  O   LIG    1       29.197 -16.379   4.271  0.00  0.00    -0.343 OA
BRANCH  20  26
ATOM     21  C   LIG    1       29.469 -11.879   2.920  0.00  0.00    +0.040 C 
ATOM     22  C   LIG    1       28.591 -13.116   2.771  0.00  0.00    +0.149 C 
ATOM     23  C   LIG    1       27.168 -12.874   3.288  0.00  0.00    +0.171 C 
ATOM     24  C   LIG    1       26.371 -14.184   3.198  0.00  0.00    +0.150 C 
ATOM     25  C   LIG    1       27.123 -15.331   3.859  0.00  0.00    +0.095 C 
ATOM     26  C   LIG    1       28.591 -15.419   3.398  0.00  0.00    +0.254 C 
ATOM     27  O   LIG    1       29.196 -14.143   3.563  0.00  0.00    -0.346 OA
BRANCH  23  28
ATOM     28  O   LIG    1       26.503 -11.850   2.551  0.00  0.00    -0.387 OA
ATOM     29  H   LIG    1       26.250 -11.170   3.207  0.00  0.00    +0.210 HD
ENDBRANCH  23  28
BRANCH  24  30
ATOM     30  O   LIG    1       26.136 -14.481   1.814  0.00  0.00    -0.389 OA
ATOM     31  H   LIG    1       25.444 -13.869   1.500  0.00  0.00    +0.210 HD
ENDBRANCH  24  30
ENDBRANCH  20  26
ENDBRANCH  11  20
ENDBRANCH  10  14
ENDBRANCH   1  10
BRANCH   4  32
ATOM     32  O   LIG    1       22.161 -21.065   2.349  0.00  0.00    -0.348 OA
BRANCH  32  33
ATOM     33  C   LIG    1       21.001 -21.151   3.205  0.00  0.00    +0.122 C 
ATOM     34  C   LIG    1       19.983 -20.012   3.028  0.00  0.00    +0.035 C 
ATOM     35  C   LIG    1       20.693 -18.661   3.192  0.00  0.00    -0.002 C 
ATOM     36  C   LIG    1       19.818 -17.477   2.752  0.00  0.00    +0.004 C 
ATOM     37  C   LIG    1       20.404 -16.114   3.154  0.00  0.00    +0.007 C 
ATOM     38  C   LIG    1       21.909 -16.209   3.370  0.00  0.00    +0.025 C 
ATOM     39  C   LIG    1       22.735 -14.940   3.582  0.00  0.00    +0.075 C 
ATOM     40  C   LIG    1       22.374 -14.142   4.867  0.00  0.00    +0.004 C 
ATOM     41  C   LIG    1       21.077 -13.262   4.747  0.00  0.00    +0.014 C 
ATOM     42  C   LIG    1       23.556 -13.102   4.900  0.00  0.00    +0.027 C 
ATOM     43  C   LIG    1       23.708 -12.765   3.362  0.00  0.00    +0.011 C 
ATOM     44  C   LIG    1       22.117 -15.088   6.061  0.00  0.00    +0.010 C 
ATOM     45  C   LIG    1       22.605 -16.530   5.896  0.00  0.00    +0.005 C 
ATOM     46  C   LIG    1       22.898 -13.832   2.555  0.00  0.00    +0.036 C 
ATOM     47  C   LIG    1       22.251 -17.215   4.542  0.00  0.00    +0.001 C 
ATOM     48  C   LIG    1       21.305 -18.477   4.608  0.00  0.00    -0.026 C 
ATOM     49  C   LIG    1       20.186 -18.350   5.669  0.00  0.00    +0.012 C 
ATOM     50  C   LIG    1       22.174 -19.732   4.961  0.00  0.00    +0.009 C 
ATOM     51  C   LIG    1       21.508 -21.082   4.654  0.00  0.00    +0.032 C 
BRANCH  42  52
ATOM     52  C   LIG    1       24.841 -13.498   5.605  0.00  0.00    -0.022 C 
ATOM     53  C   LIG    1       24.872 -14.605   6.583  0.00  0.00    +0.264 C 
ATOM     54  O   LIG    1       26.285 -14.722   6.938  0.00  0.00    -0.457 OA
ATOM     55  C   LIG    1       27.026 -13.778   6.349  0.00  0.00    +0.332 C 
ATOM     56  O   LIG    1       28.204 -13.632   6.407  0.00  0.00    -0.246 OA
ATOM     57  C   LIG    1       26.067 -12.967   5.532  0.00  0.00    +0.094 C 
ENDBRANCH  42  52
BRANCH  39  58
ATOM     58  O   LIG    1       24.081 -15.479   3.658  0.00  0.00    -0.388 OA
ATOM     59  H   LIG    1       24.302 -15.871   2.792  0.00  0.00    +0.210 HD
ENDBRANCH  39  58
ENDBRANCH  32  33
ENDBRANCH   4  32
TORSDOF 12
ENDMDL
