MODEL 1
REMARK VINA RESULT:      -1.2      0.000      0.000
REMARK  Name = *****
REMARK                            x       y       z     vdW  Elec       q    Type
REMARK                         _______ _______ _______ _____ _____    ______ ____
ROOT
ATOM      1  C   LIG    1       24.651 -19.381   3.870  0.00  0.00    +0.006 C 
ATOM      2  C   LIG    1       25.982 -18.998   3.247  0.00  0.00    +0.107 C 
ATOM      3  S   LIG    1       26.478 -17.314   3.678  0.00  0.00    -0.131 S 
ATOM      4  C   LIG    1       24.945 -16.602   3.022  0.00  0.00    +0.169 C 
ATOM      5  N   LIG    1       23.789 -17.176   3.697  0.00  0.00    -0.249 N 
ATOM      6  C   LIG    1       23.420 -16.037   4.334  0.00  0.00    +0.244 C 
ATOM      7  O   LIG    1       22.566 -15.869   5.174  0.00  0.00    -0.273 OA
ATOM      8  CA  LIG    1       24.542 -15.225   3.635  0.00  0.00    +0.191 C 
ATOM      9  CA  LIG    1       23.632 -18.497   4.056  0.00  0.00    +0.125 C 
ENDROOT
BRANCH   8  10
ATOM     10  N   LIG    1       25.529 -14.577   4.550  0.00  0.00    -0.301 N 
ATOM     11  H   LIG    1       25.728 -15.026   5.441  0.00  0.00    +0.150 HD
ATOM     12  C   LIG    1       26.234 -13.452   4.181  0.00  0.00    +0.228 C 
ATOM     13  O   LIG    1       26.092 -12.928   3.080  0.00  0.00    -0.275 OA
BRANCH  12  14
ATOM     14  C   LIG    1       27.214 -12.945   5.212  0.00  0.00    +0.214 C 
BRANCH  14  15
ATOM     15  C   LIG    1       28.485 -12.599   4.591  0.00  0.00    +0.072 C 
ATOM     16  N   LIG    1       29.475 -12.285   4.054  0.00  0.00    -0.196 NA
ENDBRANCH  14  15
ENDBRANCH  12  14
ENDBRANCH   8  10
BRANCH   9  17
ATOM     17  C   LIG    1       22.282 -18.971   4.584  0.00  0.00    +0.351 C 
ATOM     18  O   LIG    1       21.213 -18.762   4.031  0.00  0.00    -0.244 OA
BRANCH  17  19
ATOM     19  OXT LIG    1       22.297 -19.534   5.808  0.00  0.00    -0.476 OA
ATOM     20  HXT LIG    1       22.257 -20.512   5.824  0.00  0.00    +0.295 HD
ENDBRANCH  17  19
ENDBRANCH   9  17
BRANCH   1  21
ATOM     21  C   LIG    1       24.618 -20.843   4.291  0.00  0.00    +0.266 C 
BRANCH  21  22
ATOM     22  O   LIG    1       25.718 -21.130   5.161  0.00  0.00    -0.460 OA
BRANCH  22  24
ATOM     23  C   LIG    1       26.871 -20.410   7.061  0.00  0.00    +0.136 C 
ATOM     24  C   LIG    1       25.556 -20.798   6.466  0.00  0.00    +0.304 C 
ATOM     25  O   LIG    1       24.489 -20.744   7.061  0.00  0.00    -0.251 OA
ENDBRANCH  22  24
ENDBRANCH  21  22
ENDBRANCH   1  21
TORSDOF 8
ENDMDL
MODEL 2
REMARK VINA RESULT:      -1.2      2.581      7.257
REMARK  Name = *****
REMARK                            x       y       z     vdW  Elec       q    Type
REMARK                         _______ _______ _______ _____ _____    ______ ____
ROOT
ATOM      1  C   LIG    1       24.887 -14.209   4.234  0.00  0.00    +0.006 C 
ATOM      2  C   LIG    1       23.474 -14.752   4.111  0.00  0.00    +0.107 C 
ATOM      3  S   LIG    1       23.400 -16.534   4.407  0.00  0.00    -0.131 S 
ATOM      4  C   LIG    1       24.611 -16.888   3.106  0.00  0.00    +0.169 C 
ATOM      5  N   LIG    1       25.863 -16.195   3.374  0.00  0.00    -0.249 N 
ATOM      6  C   LIG    1       26.591 -17.313   3.621  0.00  0.00    +0.244 C 
ATOM      7  O   LIG    1       27.724 -17.416   4.030  0.00  0.00    -0.273 OA
ATOM      8  CA  LIG    1       25.389 -18.230   3.276  0.00  0.00    +0.191 C 
ATOM      9  CA  LIG    1       25.992 -14.914   3.864  0.00  0.00    +0.125 C 
ENDROOT
BRANCH   8  10
ATOM     10  N   LIG    1       24.940 -19.137   4.374  0.00  0.00    -0.301 N 
ATOM     11  H   LIG    1       24.995 -18.799   5.332  0.00  0.00    +0.150 HD
ATOM     12  C   LIG    1       24.374 -20.367   4.118  0.00  0.00    +0.228 C 
ATOM     13  O   LIG    1       24.205 -20.779   2.973  0.00  0.00    -0.275 OA
BRANCH  12  14
ATOM     14  C   LIG    1       23.946 -21.143   5.340  0.00  0.00    +0.214 C 
BRANCH  14  15
ATOM     15  C   LIG    1       25.051 -21.278   6.280  0.00  0.00    +0.072 C 
ATOM     16  N   LIG    1       25.971 -21.352   6.997  0.00  0.00    -0.196 NA
ENDBRANCH  14  15
ENDBRANCH  12  14
ENDBRANCH   8  10
BRANCH   9  17
ATOM     17  C   LIG    1       27.373 -14.268   3.910  0.00  0.00    +0.351 C 
ATOM     18  O   LIG    1       27.963 -13.972   4.938  0.00  0.00    -0.244 OA
BRANCH  17  19
ATOM     19  OXT LIG    1       27.881 -13.889   2.721  0.00  0.00    -0.476 OA
ATOM     20  HXT LIG    1       28.337 -13.022   2.713  0.00  0.00    +0.295 HD
ENDBRANCH  17  19
ENDBRANCH   9  17
BRANCH   1  21
ATOM     21  C   LIG    1       24.911 -12.819   4.851  0.00  0.00    +0.266 C 
BRANCH  21  22
ATOM     22  O   LIG    1       24.205 -11.896   4.015  0.00  0.00    -0.460 OA
BRANCH  22  24
ATOM     23  C   LIG    1       23.557 -11.469   1.812  0.00  0.00    +0.136 C 
ATOM     24  C   LIG    1       24.684 -11.736   2.756  0.00  0.00    +0.304 C 
ATOM     25  O   LIG    1       25.865 -11.728   2.438  0.00  0.00    -0.251 OA
ENDBRANCH  22  24
ENDBRANCH  21  22
ENDBRANCH   1  21
TORSDOF 8
ENDMDL
MODEL 3
REMARK VINA RESULT:      -0.8      2.925      7.130
REMARK  Name = *****
REMARK                            x       y       z     vdW  Elec       q    Type
REMARK                         _______ _______ _______ _____ _____    ______ ____
ROOT
ATOM      1  C   LIG    1       24.243 -15.065   3.938  0.00  0.00    +0.006 C 
ATOM      2  C   LIG    1       22.910 -15.775   4.094  0.00  0.00    +0.107 C 
ATOM      3  S   LIG    1       23.102 -17.452   4.739  0.00  0.00    -0.131 S 
ATOM      4  C   LIG    1       24.221 -17.934   3.397  0.00  0.00    +0.169 C 
ATOM      5  N   LIG    1       25.390 -17.065   3.373  0.00  0.00    -0.249 N 
ATOM      6  C   LIG    1       26.280 -18.019   3.744  0.00  0.00    +0.244 C 
ATOM      7  O   LIG    1       27.450 -17.908   4.026  0.00  0.00    -0.273 OA
ATOM      8  CA  LIG    1       25.183 -19.116   3.732  0.00  0.00    +0.191 C 
ATOM      9  CA  LIG    1       25.393 -15.704   3.584  0.00  0.00    +0.125 C 
ENDROOT
BRANCH   8  10
ATOM     10  N   LIG    1       24.965 -19.818   5.032  0.00  0.00    -0.301 N 
ATOM     11  H   LIG    1       24.015 -19.886   5.389  0.00  0.00    +0.150 HD
ATOM     12  C   LIG    1       25.992 -20.446   5.702  0.00  0.00    +0.228 C 
ATOM     13  O   LIG    1       27.138 -20.466   5.263  0.00  0.00    -0.275 OA
BRANCH  12  14
ATOM     14  C   LIG    1       25.592 -21.134   6.985  0.00  0.00    +0.214 C 
BRANCH  14  15
ATOM     15  C   LIG    1       24.156 -21.373   7.018  0.00  0.00    +0.072 C 
ATOM     16  N   LIG    1       22.995 -21.505   7.051  0.00  0.00    -0.196 NA
ENDBRANCH  14  15
ENDBRANCH  12  14
ENDBRANCH   8  10
BRANCH   9  17
ATOM     17  C   LIG    1       26.673 -14.913   3.336  0.00  0.00    +0.351 C 
ATOM     18  O   LIG    1       27.441 -14.551   4.214  0.00  0.00    -0.244 OA
BRANCH  17  19
ATOM     19  OXT LIG    1       26.863 -14.488   2.072  0.00  0.00    -0.476 OA
ATOM     20  HXT LIG    1       27.420 -13.687   1.975  0.00  0.00    +0.295 HD
ENDBRANCH  17  19
ENDBRANCH   9  17
BRANCH   1  21
ATOM     21  C   LIG    1       24.141 -13.582   4.264  0.00  0.00    +0.266 C 
BRANCH  21  22
ATOM     22  O   LIG    1       25.231 -12.870   3.671  0.00  0.00    -0.460 OA
BRANCH  22  24
ATOM     23  C   LIG    1       23.533 -11.447   2.931  0.00  0.00    +0.136 C 
ATOM     24  C   LIG    1       24.912 -11.976   2.702  0.00  0.00    +0.304 C 
ATOM     25  O   LIG    1       25.658 -11.589   1.814  0.00  0.00    -0.251 OA
ENDBRANCH  22  24
ENDBRANCH  21  22
ENDBRANCH   1  21
TORSDOF 8
ENDMDL
MODEL 4
REMARK VINA RESULT:      -0.7      1.730      2.167
REMARK  Name = *****
REMARK                            x       y       z     vdW  Elec       q    Type
REMARK                         _______ _______ _______ _____ _____    ______ ____
ROOT
ATOM      1  C   LIG    1       26.157 -19.892   4.950  0.00  0.00    +0.006 C 
ATOM      2  C   LIG    1       27.374 -19.216   4.345  0.00  0.00    +0.107 C 
ATOM      3  S   LIG    1       27.119 -17.442   4.104  0.00  0.00    -0.131 S 
ATOM      4  C   LIG    1       25.643 -17.705   3.086  0.00  0.00    +0.169 C 
ATOM      5  N   LIG    1       24.638 -18.452   3.829  0.00  0.00    -0.249 N 
ATOM      6  C   LIG    1       23.747 -17.434   3.920  0.00  0.00    +0.244 C 
ATOM      7  O   LIG    1       22.712 -17.373   4.543  0.00  0.00    -0.273 OA
ATOM      8  CA  LIG    1       24.642 -16.509   3.055  0.00  0.00    +0.191 C 
ATOM      9  CA  LIG    1       24.878 -19.513   4.674  0.00  0.00    +0.125 C 
ENDROOT
BRANCH   8  10
ATOM     10  N   LIG    1       25.081 -15.242   3.714  0.00  0.00    -0.301 N 
ATOM     11  H   LIG    1       24.885 -15.121   4.705  0.00  0.00    +0.150 HD
ATOM     12  C   LIG    1       25.816 -14.289   3.044  0.00  0.00    +0.228 C 
ATOM     13  O   LIG    1       26.153 -14.433   1.872  0.00  0.00    -0.275 OA
BRANCH  12  14
ATOM     14  C   LIG    1       26.204 -13.085   3.868  0.00  0.00    +0.214 C 
BRANCH  14  15
ATOM     15  C   LIG    1       27.650 -12.911   3.881  0.00  0.00    +0.072 C 
ATOM     16  N   LIG    1       28.802 -12.712   3.893  0.00  0.00    -0.196 NA
ENDBRANCH  14  15
ENDBRANCH  12  14
ENDBRANCH   8  10
BRANCH   9  17
ATOM     17  C   LIG    1       23.699 -20.307   5.228  0.00  0.00    +0.351 C 
ATOM     18  O   LIG    1       23.271 -20.202   6.367  0.00  0.00    -0.244 OA
BRANCH  17  19
ATOM     19  OXT LIG    1       23.213 -21.272   4.423  0.00  0.00    -0.476 OA
ATOM     20  HXT LIG    1       22.611 -21.916   4.852  0.00  0.00    +0.295 HD
ENDBRANCH  17  19
ENDBRANCH   9  17
BRANCH   1  21
ATOM     21  C   LIG    1       26.543 -21.000   5.919  0.00  0.00    +0.266 C 
BRANCH  21  22
ATOM     22  O   LIG    1       27.251 -20.454   7.036  0.00  0.00    -0.460 OA
BRANCH  22  24
ATOM     23  C   LIG    1       29.195 -19.160   6.976  0.00  0.00    +0.136 C 
ATOM     24  C   LIG    1       28.605 -20.532   6.988  0.00  0.00    +0.304 C 
ATOM     25  O   LIG    1       29.261 -21.564   7.028  0.00  0.00    -0.251 OA
ENDBRANCH  22  24
ENDBRANCH  21  22
ENDBRANCH   1  21
TORSDOF 8
ENDMDL
MODEL 5
REMARK VINA RESULT:       0.4      2.723      6.755
REMARK  Name = *****
REMARK                            x       y       z     vdW  Elec       q    Type
REMARK                         _______ _______ _______ _____ _____    ______ ____
ROOT
ATOM      1  C   LIG    1       24.480 -14.736   3.756  0.00  0.00    +0.006 C 
ATOM      2  C   LIG    1       23.093 -15.260   4.083  0.00  0.00    +0.107 C 
ATOM      3  S   LIG    1       23.143 -16.914   4.809  0.00  0.00    -0.131 S 
ATOM      4  C   LIG    1       24.048 -17.601   3.397  0.00  0.00    +0.169 C 
ATOM      5  N   LIG    1       25.306 -16.893   3.206  0.00  0.00    -0.249 N 
ATOM      6  C   LIG    1       26.105 -17.933   3.547  0.00  0.00    +0.244 C 
ATOM      7  O   LIG    1       27.304 -17.961   3.707  0.00  0.00    -0.273 OA
ATOM      8  CA  LIG    1       24.887 -18.879   3.709  0.00  0.00    +0.191 C 
ATOM      9  CA  LIG    1       25.499 -15.534   3.332  0.00  0.00    +0.125 C 
ENDROOT
BRANCH   8  10
ATOM     10  N   LIG    1       24.720 -19.483   5.065  0.00  0.00    -0.301 N 
ATOM     11  H   LIG    1       23.879 -19.259   5.592  0.00  0.00    +0.150 HD
ATOM     12  C   LIG    1       25.619 -20.395   5.572  0.00  0.00    +0.228 C 
ATOM     13  O   LIG    1       26.602 -20.764   4.933  0.00  0.00    -0.275 OA
BRANCH  12  14
ATOM     14  C   LIG    1       25.284 -20.931   6.943  0.00  0.00    +0.214 C 
BRANCH  14  15
ATOM     15  C   LIG    1       23.880 -21.311   7.020  0.00  0.00    +0.072 C 
ATOM     16  N   LIG    1       22.740 -21.567   7.050  0.00  0.00    -0.196 NA
ENDBRANCH  14  15
ENDBRANCH  12  14
ENDBRANCH   8  10
BRANCH   9  17
ATOM     17  C   LIG    1       26.834 -14.928   2.913  0.00  0.00    +0.351 C 
ATOM     18  O   LIG    1       27.028 -14.350   1.854  0.00  0.00    -0.244 OA
BRANCH  17  19
ATOM     19  OXT LIG    1       27.876 -15.186   3.728  0.00  0.00    -0.476 OA
ATOM     20  HXT LIG    1       27.670 -15.197   4.685  0.00  0.00    +0.295 HD
ENDBRANCH  17  19
ENDBRANCH   9  17
BRANCH   1  21
ATOM     21  C   LIG    1       24.596 -13.238   3.998  0.00  0.00    +0.266 C 
BRANCH  21  22
ATOM     22  O   LIG    1       25.096 -12.989   5.316  0.00  0.00    -0.460 OA
BRANCH  22  24
ATOM     23  C   LIG    1       26.839 -13.698   6.701  0.00  0.00    +0.136 C 
ATOM     24  C   LIG    1       26.445 -12.972   5.456  0.00  0.00    +0.304 C 
ATOM     25  O   LIG    1       27.239 -12.506   4.650  0.00  0.00    -0.251 OA
ENDBRANCH  22  24
ENDBRANCH  21  22
ENDBRANCH   1  21
TORSDOF 8
ENDMDL
MODEL 6
REMARK VINA RESULT:       0.5      3.092      7.122
REMARK  Name = *****
REMARK                            x       y       z     vdW  Elec       q    Type
REMARK                         _______ _______ _______ _____ _____    ______ ____
ROOT
ATOM      1  C   LIG    1       25.613 -14.749   3.457  0.00  0.00    +0.006 C 
ATOM      2  C   LIG    1       24.468 -15.664   3.059  0.00  0.00    +0.107 C 
ATOM      3  S   LIG    1       24.585 -17.286   3.849  0.00  0.00    -0.131 S 
ATOM      4  C   LIG    1       26.244 -17.587   3.181  0.00  0.00    +0.169 C 
ATOM      5  N   LIG    1       27.162 -16.542   3.611  0.00  0.00    -0.249 N 
ATOM      6  C   LIG    1       27.915 -17.338   4.409  0.00  0.00    +0.244 C 
ATOM      7  O   LIG    1       28.805 -17.039   5.171  0.00  0.00    -0.273 OA
ATOM      8  CA  LIG    1       27.110 -18.597   3.996  0.00  0.00    +0.191 C 
ATOM      9  CA  LIG    1       26.877 -15.197   3.697  0.00  0.00    +0.125 C 
ENDROOT
BRANCH   8  10
ATOM     10  N   LIG    1       26.432 -19.320   5.114  0.00  0.00    -0.301 N 
ATOM     11  H   LIG    1       25.417 -19.283   5.167  0.00  0.00    +0.150 HD
ATOM     12  C   LIG    1       27.134 -20.099   6.008  0.00  0.00    +0.228 C 
ATOM     13  O   LIG    1       28.351 -20.245   5.929  0.00  0.00    -0.275 OA
BRANCH  12  14
ATOM     14  C   LIG    1       26.292 -20.785   7.057  0.00  0.00    +0.214 C 
BRANCH  14  15
ATOM     15  C   LIG    1       24.878 -20.710   6.716  0.00  0.00    +0.072 C 
ATOM     16  N   LIG    1       23.741 -20.711   6.444  0.00  0.00    -0.196 NA
ENDBRANCH  14  15
ENDBRANCH  12  14
ENDBRANCH   8  10
BRANCH   9  17
ATOM     17  C   LIG    1       28.005 -14.211   3.983  0.00  0.00    +0.351 C 
ATOM     18  O   LIG    1       28.119 -13.574   5.019  0.00  0.00    -0.244 OA
BRANCH  17  19
ATOM     19  OXT LIG    1       28.831 -13.951   2.950  0.00  0.00    -0.476 OA
ATOM     20  HXT LIG    1       28.902 -14.660   2.278  0.00  0.00    +0.295 HD
ENDBRANCH  17  19
ENDBRANCH   9  17
BRANCH   1  21
ATOM     21  C   LIG    1       25.165 -13.301   3.590  0.00  0.00    +0.266 C 
BRANCH  21  22
ATOM     22  O   LIG    1       24.501 -13.104   4.842  0.00  0.00    -0.460 OA
BRANCH  22  24
ATOM     23  C   LIG    1       23.392 -11.448   3.623  0.00  0.00    +0.136 C 
ATOM     24  C   LIG    1       23.786 -11.958   4.970  0.00  0.00    +0.304 C 
ATOM     25  O   LIG    1       23.440 -11.448   6.027  0.00  0.00    -0.251 OA
ENDBRANCH  22  24
ENDBRANCH  21  22
ENDBRANCH   1  21
TORSDOF 8
ENDMDL
MODEL 7
REMARK VINA RESULT:       0.9      3.098      7.020
REMARK  Name = *****
REMARK                            x       y       z     vdW  Elec       q    Type
REMARK                         _______ _______ _______ _____ _____    ______ ____
ROOT
ATOM      1  C   LIG    1       27.634 -17.496   4.328  0.00  0.00    +0.006 C 
ATOM      2  C   LIG    1       26.617 -17.481   3.200  0.00  0.00    +0.107 C 
ATOM      3  S   LIG    1       25.148 -18.458   3.594  0.00  0.00    -0.131 S 
ATOM      4  C   LIG    1       26.120 -19.956   3.902  0.00  0.00    +0.169 C 
ATOM      5  N   LIG    1       27.096 -19.721   4.957  0.00  0.00    -0.249 N 
ATOM      6  C   LIG    1       26.520 -20.546   5.866  0.00  0.00    +0.244 C 
ATOM      7  O   LIG    1       26.793 -20.715   7.032  0.00  0.00    -0.273 OA
ATOM      8  CA  LIG    1       25.444 -20.999   4.845  0.00  0.00    +0.191 C 
ATOM      9  CA  LIG    1       27.843 -18.577   5.130  0.00  0.00    +0.125 C 
ENDROOT
BRANCH   8  10
ATOM     10  N   LIG    1       24.029 -20.732   5.244  0.00  0.00    -0.301 N 
ATOM     11  H   LIG    1       23.858 -20.259   6.128  0.00  0.00    +0.150 HD
ATOM     12  C   LIG    1       22.970 -21.024   4.412  0.00  0.00    +0.228 C 
ATOM     13  O   LIG    1       23.134 -21.513   3.297  0.00  0.00    -0.275 OA
BRANCH  12  14
ATOM     14  C   LIG    1       21.609 -20.661   4.957  0.00  0.00    +0.214 C 
BRANCH  14  15
ATOM     15  C   LIG    1       21.071 -19.495   4.270  0.00  0.00    +0.072 C 
ATOM     16  N   LIG    1       20.696 -18.539   3.712  0.00  0.00    -0.196 NA
ENDBRANCH  14  15
ENDBRANCH  12  14
ENDBRANCH   8  10
BRANCH   9  17
ATOM     17  C   LIG    1       28.957 -18.564   6.171  0.00  0.00    +0.351 C 
ATOM     18  O   LIG    1       29.471 -17.550   6.619  0.00  0.00    -0.244 OA
BRANCH  17  19
ATOM     19  OXT LIG    1       29.475 -19.766   6.490  0.00  0.00    -0.476 OA
ATOM     20  HXT LIG    1       30.404 -19.911   6.218  0.00  0.00    +0.295 HD
ENDBRANCH  17  19
ENDBRANCH   9  17
BRANCH   1  21
ATOM     21  C   LIG    1       28.347 -16.160   4.470  0.00  0.00    +0.266 C 
BRANCH  21  22
ATOM     22  O   LIG    1       27.616 -15.136   3.788  0.00  0.00    -0.460 OA
BRANCH  22  24
ATOM     23  C   LIG    1       26.661 -13.381   4.999  0.00  0.00    +0.136 C 
ATOM     24  C   LIG    1       27.830 -13.863   4.204  0.00  0.00    +0.304 C 
ATOM     25  O   LIG    1       28.856 -13.219   4.030  0.00  0.00    -0.251 OA
ENDBRANCH  22  24
ENDBRANCH  21  22
ENDBRANCH   1  21
TORSDOF 8
ENDMDL
MODEL 8
REMARK VINA RESULT:       1.4      1.555      2.015
REMARK  Name = *****
REMARK                            x       y       z     vdW  Elec       q    Type
REMARK                         _______ _______ _______ _____ _____    ______ ____
ROOT
ATOM      1  C   LIG    1       25.148 -19.335   4.482  0.00  0.00    +0.006 C 
ATOM      2  C   LIG    1       26.618 -19.330   4.104  0.00  0.00    +0.107 C 
ATOM      3  S   LIG    1       27.323 -17.665   4.128  0.00  0.00    -0.131 S 
ATOM      4  C   LIG    1       26.095 -17.035   2.953  0.00  0.00    +0.169 C 
ATOM      5  N   LIG    1       24.749 -17.222   3.475  0.00  0.00    -0.249 N 
ATOM      6  C   LIG    1       24.482 -15.904   3.647  0.00  0.00    +0.244 C 
ATOM      7  O   LIG    1       23.531 -15.376   4.176  0.00  0.00    -0.273 OA
ATOM      8  CA  LIG    1       25.842 -15.497   3.024  0.00  0.00    +0.191 C 
ATOM      9  CA  LIG    1       24.290 -18.328   4.157  0.00  0.00    +0.125 C 
ENDROOT
BRANCH   8  10
ATOM     10  N   LIG    1       26.743 -14.704   3.914  0.00  0.00    -0.301 N 
ATOM     11  H   LIG    1       26.864 -15.013   4.876  0.00  0.00    +0.150 HD
ATOM     12  C   LIG    1       27.475 -13.636   3.444  0.00  0.00    +0.228 C 
ATOM     13  O   LIG    1       27.429 -13.283   2.268  0.00  0.00    -0.275 OA
BRANCH  12  14
ATOM     14  C   LIG    1       28.358 -12.966   4.468  0.00  0.00    +0.214 C 
BRANCH  14  15
ATOM     15  C   LIG    1       27.803 -13.114   5.807  0.00  0.00    +0.072 C 
ATOM     16  N   LIG    1       27.302 -13.228   6.856  0.00  0.00    -0.196 NA
ENDBRANCH  14  15
ENDBRANCH  12  14
ENDBRANCH   8  10
BRANCH   9  17
ATOM     17  C   LIG    1       22.802 -18.448   4.469  0.00  0.00    +0.351 C 
ATOM     18  O   LIG    1       22.319 -18.330   5.585  0.00  0.00    -0.244 OA
BRANCH  17  19
ATOM     19  OXT LIG    1       22.019 -18.844   3.447  0.00  0.00    -0.476 OA
ATOM     20  HXT LIG    1       21.634 -19.741   3.533  0.00  0.00    +0.295 HD
ENDBRANCH  17  19
ENDBRANCH   9  17
BRANCH   1  21
ATOM     21  C   LIG    1       24.771 -20.567   5.292  0.00  0.00    +0.266 C 
BRANCH  21  22
ATOM     22  O   LIG    1       23.711 -21.277   4.644  0.00  0.00    -0.460 OA
BRANCH  22  24
ATOM     23  C   LIG    1       22.945 -21.555   6.833  0.00  0.00    +0.136 C 
ATOM     24  C   LIG    1       22.595 -21.499   5.382  0.00  0.00    +0.304 C 
ATOM     25  O   LIG    1       21.453 -21.564   4.947  0.00  0.00    -0.251 OA
ENDBRANCH  22  24
ENDBRANCH  21  22
ENDBRANCH   1  21
TORSDOF 8
ENDMDL
