MODEL 1
REMARK VINA RESULT:      -6.2      0.000      0.000
REMARK  Name = *****
REMARK                            x       y       z     vdW  Elec       q    Type
REMARK                         _______ _______ _______ _____ _____    ______ ____
ROOT
ATOM      1  C   LIG    1       25.135 -27.084   6.094  0.00  0.00    +0.030 A 
ATOM      2  C   LIG    1       25.727 -27.475   7.307  0.00  0.00    +0.027 A 
ATOM      3  C   LIG    1       25.536 -28.750   7.852  0.00  0.00    +0.047 A 
ATOM      4  C   LIG    1       24.737 -29.669   7.189  0.00  0.00    +0.121 A 
ATOM      5  C   LIG    1       24.125 -29.292   6.000  0.00  0.00    +0.047 A 
ATOM      6  C   LIG    1       24.361 -28.045   5.440  0.00  0.00    +0.027 A 
ENDROOT
BRANCH   1  10
ATOM      7  N   LIG    1       24.555 -23.409   6.989  0.00  0.00    -0.327 N 
ATOM      8  C   LIG    1       23.530 -24.365   6.486  0.00  0.00    +0.124 C 
ATOM      9  C   LIG    1       24.054 -25.074   5.212  0.00  0.00    +0.124 C 
ATOM     10  N   LIG    1       25.309 -25.822   5.517  0.00  0.00    -0.327 N 
ATOM     11  C   LIG    1       26.348 -24.921   6.082  0.00  0.00    +0.124 C 
ATOM     12  C   LIG    1       25.813 -24.145   7.318  0.00  0.00    +0.124 C 
BRANCH   7  16
ATOM     13  C   LIG    1       24.929 -19.685   4.931  0.00  0.00    +0.052 A 
ATOM     14  C   LIG    1       26.037 -20.313   5.485  0.00  0.00    +0.028 A 
ATOM     15  C   LIG    1       25.911 -21.541   6.140  0.00  0.00    +0.025 A 
ATOM     16  C   LIG    1       24.676 -22.188   6.309  0.00  0.00    +0.030 A 
ATOM     17  C   LIG    1       23.582 -21.557   5.714  0.00  0.00    +0.025 A 
ATOM     18  C   LIG    1       23.698 -20.325   5.056  0.00  0.00    +0.028 A 
BRANCH  13  22
ATOM     19  N   LIG    1       25.802 -16.589   3.331  0.00  0.00    -0.207 N 
ATOM     20  C   LIG    1       26.218 -17.770   3.960  0.00  0.00    +0.351 C 
ATOM     21  O   LIG    1       27.373 -18.054   4.201  0.00  0.00    -0.244 OA
ATOM     22  N   LIG    1       25.055 -18.456   4.237  0.00  0.00    -0.250 N 
ATOM     23  C   LIG    1       24.060 -17.666   3.782  0.00  0.00    +0.230 C 
ATOM     24  N   LIG    1       24.429 -16.537   3.261  0.00  0.00    -0.157 NA
BRANCH  19  25
ATOM     25  C   LIG    1       26.674 -15.482   2.973  0.00  0.00    +0.140 C 
BRANCH  25  27
ATOM     26  C   LIG    1       24.854 -13.657   3.029  0.00  0.00    +0.006 C 
ATOM     27  C   LIG    1       25.881 -14.413   2.200  0.00  0.00    +0.026 C 
ENDBRANCH  25  27
BRANCH  25  28
ATOM     28  C   LIG    1       27.458 -14.949   4.201  0.00  0.00    +0.136 C 
ATOM     29  C   LIG    1       26.604 -14.104   5.144  0.00  0.00    +0.040 C 
BRANCH  28  30
ATOM     30  O   LIG    1       28.599 -14.183   3.811  0.00  0.00    -0.390 OA
ATOM     31  H   LIG    1       28.286 -13.266   3.681  0.00  0.00    +0.210 HD
ENDBRANCH  28  30
ENDBRANCH  25  28
ENDBRANCH  19  25
ENDBRANCH  13  22
ENDBRANCH   7  16
ENDBRANCH   1  10
BRANCH   4  32
ATOM     32  O   LIG    1       24.566 -30.889   7.777  0.00  0.00    -0.492 OA
BRANCH  32  33
ATOM     33  C   LIG    1       25.123 -31.006   9.086  0.00  0.00    +0.235 C 
BRANCH  33  34
ATOM     34  C   LIG    1       24.022 -31.259  10.099  0.00  0.00    +0.055 C 
ATOM     35  C   LIG    1       23.165 -30.024  10.305  0.00  0.00    +0.050 C 
ATOM     36  C   LIG    1       22.792 -30.024  11.803  0.00  0.00    +0.117 C 
ATOM     37  O   LIG    1       23.547 -31.111  12.391  0.00  0.00    -0.366 OA
ATOM     38  C   LIG    1       24.553 -31.556  11.483  0.00  0.00    +0.168 C 
BRANCH  36  39
ATOM     39  C   LIG    1       23.215 -28.723  12.513  0.00  0.00    +0.021 A 
ATOM     40  C   LIG    1       24.570 -28.344  12.594  0.00  0.00    +0.132 A 
ATOM     41  F   LIG    1       25.532 -29.154  12.130  0.00  0.00    -0.205 F 
ATOM     42  C   LIG    1       24.969 -27.134  13.155  0.00  0.00    +0.077 A 
ATOM     43  C   LIG    1       24.012 -26.279  13.672  0.00  0.00    +0.126 A 
ATOM     44  F   LIG    1       24.384 -25.105  14.200  0.00  0.00    -0.205 F 
ATOM     45  C   LIG    1       22.670 -26.629  13.661  0.00  0.00    +0.039 A 
ATOM     46  C   LIG    1       22.274 -27.849  13.100  0.00  0.00    +0.012 A 
ENDBRANCH  36  39
BRANCH  36  47
ATOM     47  C   LIG    1       21.293 -30.311  12.048  0.00  0.00    +0.185 C 
BRANCH  47  48
ATOM     48  N   LIG    1       20.766 -31.450  11.315  0.00  0.00    -0.249 N 
ATOM     49  N   LIG    1       20.003 -31.274  10.216  0.00  0.00    -0.158 NA
ATOM     50  C   LIG    1       19.712 -32.538   9.892  0.00  0.00    +0.244 A 
ATOM     51  N   LIG    1       20.248 -33.489  10.709  0.00  0.00    -0.223 NA
ATOM     52  C   LIG    1       20.885 -32.775  11.609  0.00  0.00    +0.219 A 
ENDBRANCH  47  48
ENDBRANCH  36  47
ENDBRANCH  33  34
ENDBRANCH  32  33
ENDBRANCH   4  32
TORSDOF 13
ENDMDL
MODEL 2
REMARK VINA RESULT:      -5.9      1.903      2.506
REMARK  Name = *****
REMARK                            x       y       z     vdW  Elec       q    Type
REMARK                         _______ _______ _______ _____ _____    ______ ____
ROOT
ATOM      1  C   LIG    1       25.796 -27.643   6.002  0.00  0.00    +0.030 A 
ATOM      2  C   LIG    1       25.613 -28.638   5.028  0.00  0.00    +0.027 A 
ATOM      3  C   LIG    1       25.243 -29.947   5.360  0.00  0.00    +0.047 A 
ATOM      4  C   LIG    1       25.049 -30.290   6.690  0.00  0.00    +0.121 A 
ATOM      5  C   LIG    1       25.248 -29.324   7.668  0.00  0.00    +0.047 A 
ATOM      6  C   LIG    1       25.565 -28.017   7.327  0.00  0.00    +0.027 A 
ENDROOT
BRANCH   1  10
ATOM      7  N   LIG    1       24.241 -24.146   6.063  0.00  0.00    -0.327 N 
ATOM      8  C   LIG    1       24.065 -25.169   4.995  0.00  0.00    +0.124 C 
ATOM      9  C   LIG    1       25.449 -25.705   4.548  0.00  0.00    +0.124 C 
ATOM     10  N   LIG    1       26.160 -26.325   5.705  0.00  0.00    -0.327 N 
ATOM     11  C   LIG    1       26.307 -25.361   6.826  0.00  0.00    +0.124 C 
ATOM     12  C   LIG    1       24.936 -24.756   7.237  0.00  0.00    +0.124 C 
BRANCH   7  16
ATOM     13  C   LIG    1       25.500 -20.257   4.821  0.00  0.00    +0.052 A 
ATOM     14  C   LIG    1       24.645 -21.020   4.035  0.00  0.00    +0.028 A 
ATOM     15  C   LIG    1       24.221 -22.283   4.457  0.00  0.00    +0.025 A 
ATOM     16  C   LIG    1       24.653 -22.867   5.659  0.00  0.00    +0.030 A 
ATOM     17  C   LIG    1       25.482 -22.069   6.450  0.00  0.00    +0.025 A 
ATOM     18  C   LIG    1       25.913 -20.801   6.035  0.00  0.00    +0.028 A 
BRANCH  13  22
ATOM     19  N   LIG    1       25.977 -16.889   3.666  0.00  0.00    -0.207 N 
ATOM     20  C   LIG    1       25.096 -17.908   4.054  0.00  0.00    +0.351 C 
ATOM     21  O   LIG    1       23.886 -17.822   4.028  0.00  0.00    -0.244 OA
ATOM     22  N   LIG    1       25.907 -18.963   4.415  0.00  0.00    -0.250 N 
ATOM     23  C   LIG    1       27.168 -18.525   4.218  0.00  0.00    +0.230 C 
ATOM     24  N   LIG    1       27.281 -17.320   3.751  0.00  0.00    -0.157 NA
BRANCH  19  25
ATOM     25  C   LIG    1       25.579 -15.622   3.075  0.00  0.00    +0.140 C 
BRANCH  25  27
ATOM     26  C   LIG    1       23.886 -13.696   3.335  0.00  0.00    +0.006 C 
ATOM     27  C   LIG    1       24.496 -14.953   3.938  0.00  0.00    +0.026 C 
ENDBRANCH  25  27
BRANCH  25  28
ATOM     28  C   LIG    1       26.807 -14.727   2.759  0.00  0.00    +0.136 C 
ATOM     29  C   LIG    1       27.218 -13.832   3.925  0.00  0.00    +0.040 C 
BRANCH  28  30
ATOM     30  O   LIG    1       26.582 -13.904   1.612  0.00  0.00    -0.390 OA
ATOM     31  H   LIG    1       26.526 -12.984   1.937  0.00  0.00    +0.210 HD
ENDBRANCH  28  30
ENDBRANCH  25  28
ENDBRANCH  19  25
ENDBRANCH  13  22
ENDBRANCH   7  16
ENDBRANCH   1  10
BRANCH   4  32
ATOM     32  O   LIG    1       24.711 -31.585   6.960  0.00  0.00    -0.492 OA
BRANCH  32  33
ATOM     33  C   LIG    1       23.342 -31.787   7.307  0.00  0.00    +0.235 C 
BRANCH  33  34
ATOM     34  C   LIG    1       23.244 -32.467   8.660  0.00  0.00    +0.055 C 
ATOM     35  C   LIG    1       22.943 -31.468   9.762  0.00  0.00    +0.050 C 
ATOM     36  C   LIG    1       23.728 -31.962  10.995  0.00  0.00    +0.117 C 
ATOM     37  O   LIG    1       24.532 -33.071  10.525  0.00  0.00    -0.366 OA
ATOM     38  C   LIG    1       24.548 -33.095   9.099  0.00  0.00    +0.168 C 
BRANCH  36  39
ATOM     39  C   LIG    1       24.687 -30.890  11.548  0.00  0.00    +0.021 A 
ATOM     40  C   LIG    1       25.589 -31.187  12.589  0.00  0.00    +0.132 A 
ATOM     41  F   LIG    1       25.573 -32.389  13.182  0.00  0.00    -0.205 F 
ATOM     42  C   LIG    1       26.523 -30.261  13.048  0.00  0.00    +0.077 A 
ATOM     43  C   LIG    1       26.558 -28.998  12.483  0.00  0.00    +0.126 A 
ATOM     44  F   LIG    1       27.462 -28.105  12.907  0.00  0.00    -0.205 F 
ATOM     45  C   LIG    1       25.657 -28.642  11.490  0.00  0.00    +0.039 A 
ATOM     46  C   LIG    1       24.718 -29.575  11.036  0.00  0.00    +0.012 A 
ENDBRANCH  36  39
BRANCH  36  47
ATOM     47  C   LIG    1       22.808 -32.496  12.118  0.00  0.00    +0.185 C 
BRANCH  47  48
ATOM     48  N   LIG    1       21.915 -31.504  12.692  0.00  0.00    -0.249 N 
ATOM     49  N   LIG    1       20.729 -31.222  12.113  0.00  0.00    -0.158 NA
ATOM     50  C   LIG    1       20.264 -30.260  12.917  0.00  0.00    +0.244 A 
ATOM     51  N   LIG    1       21.076 -29.931  13.962  0.00  0.00    -0.223 NA
ATOM     52  C   LIG    1       22.117 -30.710  13.781  0.00  0.00    +0.219 A 
ENDBRANCH  47  48
ENDBRANCH  36  47
ENDBRANCH  33  34
ENDBRANCH  32  33
ENDBRANCH   4  32
TORSDOF 13
ENDMDL
MODEL 3
REMARK VINA RESULT:      -5.9      4.272     13.303
REMARK  Name = *****
REMARK                            x       y       z     vdW  Elec       q    Type
REMARK                         _______ _______ _______ _____ _____    ______ ____
ROOT
ATOM      1  C   LIG    1       25.184 -23.094   6.302  0.00  0.00    +0.030 A 
ATOM      2  C   LIG    1       24.556 -22.550   5.169  0.00  0.00    +0.027 A 
ATOM      3  C   LIG    1       24.951 -21.326   4.614  0.00  0.00    +0.047 A 
ATOM      4  C   LIG    1       25.991 -20.612   5.191  0.00  0.00    +0.121 A 
ATOM      5  C   LIG    1       26.607 -21.124   6.327  0.00  0.00    +0.047 A 
ATOM      6  C   LIG    1       26.244 -22.362   6.839  0.00  0.00    +0.027 A 
ENDROOT
BRANCH   1  10
ATOM      7  N   LIG    1       25.635 -26.836   5.638  0.00  0.00    -0.327 N 
ATOM      8  C   LIG    1       24.631 -25.943   4.996  0.00  0.00    +0.124 C 
ATOM      9  C   LIG    1       23.867 -25.144   6.083  0.00  0.00    +0.124 C 
ATOM     10  N   LIG    1       24.819 -24.315   6.879  0.00  0.00    -0.327 N 
ATOM     11  C   LIG    1       25.881 -25.154   7.492  0.00  0.00    +0.124 C 
ATOM     12  C   LIG    1       26.608 -26.018   6.424  0.00  0.00    +0.124 C 
BRANCH   7  16
ATOM     13  C   LIG    1       24.187 -30.433   7.430  0.00  0.00    +0.052 A 
ATOM     14  C   LIG    1       25.025 -29.571   8.126  0.00  0.00    +0.028 A 
ATOM     15  C   LIG    1       25.479 -28.386   7.541  0.00  0.00    +0.025 A 
ATOM     16  C   LIG    1       25.155 -28.016   6.227  0.00  0.00    +0.030 A 
ATOM     17  C   LIG    1       24.282 -28.877   5.558  0.00  0.00    +0.025 A 
ATOM     18  C   LIG    1       23.822 -30.068   6.136  0.00  0.00    +0.028 A 
BRANCH  13  22
ATOM     19  N   LIG    1       22.743 -33.095   9.362  0.00  0.00    -0.207 N 
ATOM     20  C   LIG    1       22.868 -31.719   9.126  0.00  0.00    +0.351 C 
ATOM     21  O   LIG    1       22.350 -30.853   9.799  0.00  0.00    -0.244 OA
ATOM     22  N   LIG    1       23.697 -31.619   8.029  0.00  0.00    -0.250 N 
ATOM     23  C   LIG    1       24.007 -32.891   7.701  0.00  0.00    +0.230 C 
ATOM     24  N   LIG    1       23.501 -33.810   8.464  0.00  0.00    -0.157 NA
BRANCH  19  25
ATOM     25  C   LIG    1       22.069 -33.688  10.506  0.00  0.00    +0.140 C 
BRANCH  25  27
ATOM     26  C   LIG    1       24.145 -33.605  12.031  0.00  0.00    +0.006 C 
ATOM     27  C   LIG    1       22.700 -33.180  11.813  0.00  0.00    +0.026 C 
ENDBRANCH  25  27
BRANCH  25  28
ATOM     28  C   LIG    1       20.529 -33.516  10.415  0.00  0.00    +0.136 C 
ATOM     29  C   LIG    1       19.966 -33.825   9.030  0.00  0.00    +0.040 C 
BRANCH  28  30
ATOM     30  O   LIG    1       20.120 -32.198  10.788  0.00  0.00    -0.390 OA
ATOM     31  H   LIG    1       19.143 -32.191  10.755  0.00  0.00    +0.210 HD
ENDBRANCH  28  30
ENDBRANCH  25  28
ENDBRANCH  19  25
ENDBRANCH  13  22
ENDBRANCH   7  16
ENDBRANCH   1  10
BRANCH   4  32
ATOM     32  O   LIG    1       26.319 -19.415   4.624  0.00  0.00    -0.492 OA
BRANCH  32  33
ATOM     33  C   LIG    1       27.127 -18.568   5.441  0.00  0.00    +0.235 C 
BRANCH  33  34
ATOM     34  C   LIG    1       28.543 -19.111   5.511  0.00  0.00    +0.055 C 
ATOM     35  C   LIG    1       28.912 -19.515   6.926  0.00  0.00    +0.050 C 
ATOM     36  C   LIG    1       30.404 -19.154   7.083  0.00  0.00    +0.117 C 
ATOM     37  O   LIG    1       30.763 -18.446   5.871  0.00  0.00    -0.366 OA
ATOM     38  C   LIG    1       29.587 -18.077   5.153  0.00  0.00    +0.168 C 
BRANCH  36  39
ATOM     39  C   LIG    1       30.657 -18.205   8.271  0.00  0.00    +0.021 A 
ATOM     40  C   LIG    1       29.747 -18.122   9.343  0.00  0.00    +0.132 A 
ATOM     41  F   LIG    1       28.593 -18.803   9.311  0.00  0.00    -0.205 F 
ATOM     42  C   LIG    1       29.994 -17.336  10.466  0.00  0.00    +0.077 A 
ATOM     43  C   LIG    1       31.159 -16.593  10.530  0.00  0.00    +0.126 A 
ATOM     44  F   LIG    1       31.414 -15.846  11.612  0.00  0.00    -0.205 F 
ATOM     45  C   LIG    1       32.063 -16.603   9.477  0.00  0.00    +0.039 A 
ATOM     46  C   LIG    1       31.808 -17.391   8.349  0.00  0.00    +0.012 A 
ENDBRANCH  36  39
BRANCH  36  47
ATOM     47  C   LIG    1       31.316 -20.399   7.183  0.00  0.00    +0.185 C 
BRANCH  47  48
ATOM     48  N   LIG    1       31.113 -21.204   8.375  0.00  0.00    -0.249 N 
ATOM     49  N   LIG    1       32.113 -21.396   9.260  0.00  0.00    -0.158 NA
ATOM     50  C   LIG    1       31.526 -22.200  10.153  0.00  0.00    +0.244 A 
ATOM     51  N   LIG    1       30.226 -22.515   9.888  0.00  0.00    -0.223 NA
ATOM     52  C   LIG    1       30.001 -21.896   8.752  0.00  0.00    +0.219 A 
ENDBRANCH  47  48
ENDBRANCH  36  47
ENDBRANCH  33  34
ENDBRANCH  32  33
ENDBRANCH   4  32
TORSDOF 13
ENDMDL
MODEL 4
REMARK VINA RESULT:      -5.7      2.377      3.270
REMARK  Name = *****
REMARK                            x       y       z     vdW  Elec       q    Type
REMARK                         _______ _______ _______ _____ _____    ______ ____
ROOT
ATOM      1  C   LIG    1       25.187 -29.470   5.300  0.00  0.00    +0.030 A 
ATOM      2  C   LIG    1       26.265 -30.349   5.099  0.00  0.00    +0.027 A 
ATOM      3  C   LIG    1       26.233 -31.678   5.537  0.00  0.00    +0.047 A 
ATOM      4  C   LIG    1       25.111 -32.159   6.195  0.00  0.00    +0.121 A 
ATOM      5  C   LIG    1       24.045 -31.297   6.423  0.00  0.00    +0.047 A 
ATOM      6  C   LIG    1       24.064 -29.996   5.940  0.00  0.00    +0.027 A 
ENDROOT
BRANCH   1  10
ATOM      7  N   LIG    1       25.423 -25.960   6.809  0.00  0.00    -0.327 N 
ATOM      8  C   LIG    1       24.201 -26.809   6.740  0.00  0.00    +0.124 C 
ATOM      9  C   LIG    1       24.003 -27.329   5.293  0.00  0.00    +0.124 C 
ATOM     10  N   LIG    1       25.183 -28.138   4.870  0.00  0.00    -0.327 N 
ATOM     11  C   LIG    1       26.441 -27.354   4.980  0.00  0.00    +0.124 C 
ATOM     12  C   LIG    1       26.618 -26.762   6.406  0.00  0.00    +0.124 C 
BRANCH   7  16
ATOM     13  C   LIG    1       25.102 -21.977   5.299  0.00  0.00    +0.052 A 
ATOM     14  C   LIG    1       25.661 -22.230   6.545  0.00  0.00    +0.028 A 
ATOM     15  C   LIG    1       25.781 -23.537   7.025  0.00  0.00    +0.025 A 
ATOM     16  C   LIG    1       25.320 -24.653   6.309  0.00  0.00    +0.030 A 
ATOM     17  C   LIG    1       24.795 -24.381   5.044  0.00  0.00    +0.025 A 
ATOM     18  C   LIG    1       24.670 -23.074   4.555  0.00  0.00    +0.028 A 
BRANCH  13  22
ATOM     19  N   LIG    1       24.313 -18.654   4.188  0.00  0.00    -0.207 N 
ATOM     20  C   LIG    1       23.947 -19.787   4.927  0.00  0.00    +0.351 C 
ATOM     21  O   LIG    1       22.894 -19.918   5.516  0.00  0.00    -0.244 OA
ATOM     22  N   LIG    1       25.007 -20.658   4.793  0.00  0.00    -0.250 N 
ATOM     23  C   LIG    1       25.896 -20.016   4.006  0.00  0.00    +0.230 C 
ATOM     24  N   LIG    1       25.537 -18.841   3.591  0.00  0.00    -0.157 NA
BRANCH  19  25
ATOM     25  C   LIG    1       23.448 -17.515   3.925  0.00  0.00    +0.140 C 
BRANCH  25  27
ATOM     26  C   LIG    1       21.028 -18.342   3.602  0.00  0.00    +0.006 C 
ATOM     27  C   LIG    1       22.061 -17.748   4.548  0.00  0.00    +0.026 C 
ENDBRANCH  25  27
BRANCH  25  28
ATOM     28  C   LIG    1       24.125 -16.177   4.325  0.00  0.00    +0.136 C 
ATOM     29  C   LIG    1       23.131 -15.039   4.549  0.00  0.00    +0.040 C 
BRANCH  28  30
ATOM     30  O   LIG    1       25.085 -15.756   3.353  0.00  0.00    -0.390 OA
ATOM     31  H   LIG    1       25.614 -16.546   3.127  0.00  0.00    +0.210 HD
ENDBRANCH  28  30
ENDBRANCH  25  28
ENDBRANCH  19  25
ENDBRANCH  13  22
ENDBRANCH   7  16
ENDBRANCH   1  10
BRANCH   4  32
ATOM     32  O   LIG    1       25.142 -33.456   6.622  0.00  0.00    -0.492 OA
BRANCH  32  33
ATOM     33  C   LIG    1       26.158 -33.746   7.580  0.00  0.00    +0.235 C 
BRANCH  33  34
ATOM     34  C   LIG    1       25.558 -33.794   8.974  0.00  0.00    +0.055 C 
ATOM     35  C   LIG    1       24.765 -32.537   9.280  0.00  0.00    +0.050 C 
ATOM     36  C   LIG    1       25.007 -32.249  10.777  0.00  0.00    +0.117 C 
ATOM     37  O   LIG    1       26.005 -33.209  11.201  0.00  0.00    -0.366 OA
ATOM     38  C   LIG    1       26.606 -33.825  10.064  0.00  0.00    +0.168 C 
BRANCH  36  39
ATOM     39  C   LIG    1       25.580 -30.839  11.019  0.00  0.00    +0.021 A 
ATOM     40  C   LIG    1       26.040 -30.448  12.292  0.00  0.00    +0.132 A 
ATOM     41  F   LIG    1       25.907 -31.267  13.345  0.00  0.00    -0.205 F 
ATOM     42  C   LIG    1       26.639 -29.211  12.516  0.00  0.00    +0.077 A 
ATOM     43  C   LIG    1       26.772 -28.322  11.464  0.00  0.00    +0.126 A 
ATOM     44  F   LIG    1       27.362 -27.136  11.666  0.00  0.00    -0.205 F 
ATOM     45  C   LIG    1       26.291 -28.642  10.203  0.00  0.00    +0.039 A 
ATOM     46  C   LIG    1       25.685 -29.884   9.984  0.00  0.00    +0.012 A 
ENDBRANCH  36  39
BRANCH  36  47
ATOM     47  C   LIG    1       23.745 -32.475  11.642  0.00  0.00    +0.185 C 
BRANCH  47  48
ATOM     48  N   LIG    1       22.507 -32.012  11.040  0.00  0.00    -0.249 N 
ATOM     49  N   LIG    1       22.004 -30.795  11.337  0.00  0.00    -0.158 NA
ATOM     50  C   LIG    1       20.876 -30.792  10.620  0.00  0.00    +0.244 A 
ATOM     51  N   LIG    1       20.646 -31.921   9.890  0.00  0.00    -0.223 NA
ATOM     52  C   LIG    1       21.674 -32.679  10.193  0.00  0.00    +0.219 A 
ENDBRANCH  47  48
ENDBRANCH  36  47
ENDBRANCH  33  34
ENDBRANCH  32  33
ENDBRANCH   4  32
TORSDOF 13
ENDMDL
MODEL 5
REMARK VINA RESULT:      -5.5      1.343      1.954
REMARK  Name = *****
REMARK                            x       y       z     vdW  Elec       q    Type
REMARK                         _______ _______ _______ _____ _____    ______ ____
ROOT
ATOM      1  C   LIG    1       25.694 -26.359   5.938  0.00  0.00    +0.030 A 
ATOM      2  C   LIG    1       25.341 -27.380   5.040  0.00  0.00    +0.027 A 
ATOM      3  C   LIG    1       25.227 -28.717   5.439  0.00  0.00    +0.047 A 
ATOM      4  C   LIG    1       25.472 -29.064   6.759  0.00  0.00    +0.121 A 
ATOM      5  C   LIG    1       25.846 -28.070   7.656  0.00  0.00    +0.047 A 
ATOM      6  C   LIG    1       25.905 -26.741   7.264  0.00  0.00    +0.027 A 
ENDROOT
BRANCH   1  10
ATOM      7  N   LIG    1       23.651 -23.131   6.166  0.00  0.00    -0.327 N 
ATOM      8  C   LIG    1       23.488 -24.205   5.147  0.00  0.00    +0.124 C 
ATOM      9  C   LIG    1       24.864 -24.546   4.520  0.00  0.00    +0.124 C 
ATOM     10  N   LIG    1       25.811 -25.013   5.574  0.00  0.00    -0.327 N 
ATOM     11  C   LIG    1       25.961 -23.999   6.650  0.00  0.00    +0.124 C 
ATOM     12  C   LIG    1       24.582 -23.590   7.240  0.00  0.00    +0.124 C 
BRANCH   7  16
ATOM     13  C   LIG    1       24.131 -19.138   4.727  0.00  0.00    +0.052 A 
ATOM     14  C   LIG    1       25.107 -20.102   4.509  0.00  0.00    +0.028 A 
ATOM     15  C   LIG    1       24.935 -21.411   4.965  0.00  0.00    +0.025 A 
ATOM     16  C   LIG    1       23.804 -21.820   5.690  0.00  0.00    +0.030 A 
ATOM     17  C   LIG    1       22.820 -20.845   5.867  0.00  0.00    +0.025 A 
ATOM     18  C   LIG    1       22.984 -19.529   5.414  0.00  0.00    +0.028 A 
BRANCH  13  22
ATOM     19  N   LIG    1       25.081 -15.916   3.455  0.00  0.00    -0.207 N 
ATOM     20  C   LIG    1       25.426 -17.249   3.714  0.00  0.00    +0.351 C 
ATOM     21  O   LIG    1       26.522 -17.730   3.517  0.00  0.00    -0.244 OA
ATOM     22  N   LIG    1       24.285 -17.817   4.239  0.00  0.00    -0.250 N 
ATOM     23  C   LIG    1       23.373 -16.822   4.267  0.00  0.00    +0.230 C 
ATOM     24  N   LIG    1       23.785 -15.667   3.844  0.00  0.00    -0.157 NA
BRANCH  19  25
ATOM     25  C   LIG    1       26.008 -14.884   3.017  0.00  0.00    +0.140 C 
BRANCH  25  27
ATOM     26  C   LIG    1       24.444 -13.575   1.441  0.00  0.00    +0.006 C 
ATOM     27  C   LIG    1       25.248 -13.577   2.732  0.00  0.00    +0.026 C 
ENDBRANCH  25  27
BRANCH  25  28
ATOM     28  C   LIG    1       27.208 -14.741   3.990  0.00  0.00    +0.136 C 
ATOM     29  C   LIG    1       26.865 -13.973   5.264  0.00  0.00    +0.040 C 
BRANCH  28  30
ATOM     30  O   LIG    1       28.326 -14.109   3.365  0.00  0.00    -0.390 OA
ATOM     31  H   LIG    1       28.842 -14.819   2.935  0.00  0.00    +0.210 HD
ENDBRANCH  28  30
ENDBRANCH  25  28
ENDBRANCH  19  25
ENDBRANCH  13  22
ENDBRANCH   7  16
ENDBRANCH   1  10
BRANCH   4  32
ATOM     32  O   LIG    1       25.371 -30.385   7.089  0.00  0.00    -0.492 OA
BRANCH  32  33
ATOM     33  C   LIG    1       24.040 -30.840   7.331  0.00  0.00    +0.235 C 
BRANCH  33  34
ATOM     34  C   LIG    1       23.954 -31.488   8.701  0.00  0.00    +0.055 C 
ATOM     35  C   LIG    1       23.534 -30.488   9.761  0.00  0.00    +0.050 C 
ATOM     36  C   LIG    1       24.316 -30.879  11.033  0.00  0.00    +0.117 C 
ATOM     37  O   LIG    1       25.224 -31.929  10.622  0.00  0.00    -0.366 OA
ATOM     38  C   LIG    1       25.290 -31.991   9.199  0.00  0.00    +0.168 C 
BRANCH  36  39
ATOM     39  C   LIG    1       25.163 -29.715  11.582  0.00  0.00    +0.021 A 
ATOM     40  C   LIG    1       24.557 -28.579  12.154  0.00  0.00    +0.132 A 
ATOM     41  F   LIG    1       23.224 -28.446  12.152  0.00  0.00    -0.205 F 
ATOM     42  C   LIG    1       25.301 -27.554  12.733  0.00  0.00    +0.077 A 
ATOM     43  C   LIG    1       26.682 -27.636  12.732  0.00  0.00    +0.126 A 
ATOM     44  F   LIG    1       27.407 -26.663  13.300  0.00  0.00    -0.205 F 
ATOM     45  C   LIG    1       27.327 -28.711  12.137  0.00  0.00    +0.039 A 
ATOM     46  C   LIG    1       26.575 -29.736  11.553  0.00  0.00    +0.012 A 
ENDBRANCH  36  39
BRANCH  36  47
ATOM     47  C   LIG    1       23.407 -31.457  12.142  0.00  0.00    +0.185 C 
BRANCH  47  48
ATOM     48  N   LIG    1       22.001 -31.551  11.786  0.00  0.00    -0.249 N 
ATOM     49  N   LIG    1       21.544 -32.574  11.034  0.00  0.00    -0.158 NA
ATOM     50  C   LIG    1       20.250 -32.258  10.917  0.00  0.00    +0.244 A 
ATOM     51  N   LIG    1       19.869 -31.113  11.552  0.00  0.00    -0.223 NA
ATOM     52  C   LIG    1       20.995 -30.677  12.068  0.00  0.00    +0.219 A 
ENDBRANCH  47  48
ENDBRANCH  36  47
ENDBRANCH  33  34
ENDBRANCH  32  33
ENDBRANCH   4  32
TORSDOF 13
ENDMDL
MODEL 6
REMARK VINA RESULT:      -5.4      1.943      2.734
REMARK  Name = *****
REMARK                            x       y       z     vdW  Elec       q    Type
REMARK                         _______ _______ _______ _____ _____    ______ ____
ROOT
ATOM      1  C   LIG    1       25.359 -27.094   5.901  0.00  0.00    +0.030 A 
ATOM      2  C   LIG    1       25.470 -27.416   7.263  0.00  0.00    +0.027 A 
ATOM      3  C   LIG    1       25.346 -28.730   7.731  0.00  0.00    +0.047 A 
ATOM      4  C   LIG    1       25.101 -29.759   6.834  0.00  0.00    +0.121 A 
ATOM      5  C   LIG    1       24.964 -29.455   5.485  0.00  0.00    +0.047 A 
ATOM      6  C   LIG    1       25.140 -28.158   5.024  0.00  0.00    +0.027 A 
ENDROOT
BRANCH   1  10
ATOM      7  N   LIG    1       24.256 -23.542   6.806  0.00  0.00    -0.327 N 
ATOM      8  C   LIG    1       23.430 -24.572   6.117  0.00  0.00    +0.124 C 
ATOM      9  C   LIG    1       24.218 -25.164   4.921  0.00  0.00    +0.124 C 
ATOM     10  N   LIG    1       25.483 -25.794   5.399  0.00  0.00    -0.327 N 
ATOM     11  C   LIG    1       26.320 -24.821   6.149  0.00  0.00    +0.124 C 
ATOM     12  C   LIG    1       25.520 -24.162   7.308  0.00  0.00    +0.124 C 
BRANCH   7  16
ATOM     13  C   LIG    1       24.547 -19.707   4.949  0.00  0.00    +0.052 A 
ATOM     14  C   LIG    1       25.679 -20.372   5.401  0.00  0.00    +0.028 A 
ATOM     15  C   LIG    1       25.579 -21.636   5.990  0.00  0.00    +0.025 A 
ATOM     16  C   LIG    1       24.350 -22.284   6.192  0.00  0.00    +0.030 A 
ATOM     17  C   LIG    1       23.229 -21.614   5.698  0.00  0.00    +0.025 A 
ATOM     18  C   LIG    1       23.319 -20.346   5.107  0.00  0.00    +0.028 A 
BRANCH  13  22
ATOM     19  N   LIG    1       25.363 -16.570   3.400  0.00  0.00    -0.207 N 
ATOM     20  C   LIG    1       25.787 -17.825   3.857  0.00  0.00    +0.351 C 
ATOM     21  O   LIG    1       26.936 -18.215   3.840  0.00  0.00    -0.244 OA
ATOM     22  N   LIG    1       24.644 -18.441   4.322  0.00  0.00    -0.250 N 
ATOM     23  C   LIG    1       23.654 -17.543   4.128  0.00  0.00    +0.230 C 
ATOM     24  N   LIG    1       24.014 -16.408   3.614  0.00  0.00    -0.157 NA
BRANCH  19  25
ATOM     25  C   LIG    1       26.244 -15.508   2.941  0.00  0.00    +0.140 C 
BRANCH  25  27
ATOM     26  C   LIG    1       24.464 -13.663   3.206  0.00  0.00    +0.006 C 
ATOM     27  C   LIG    1       25.422 -14.390   2.275  0.00  0.00    +0.026 C 
ENDBRANCH  25  27
BRANCH  25  28
ATOM     28  C   LIG    1       27.201 -15.031   4.066  0.00  0.00    +0.136 C 
ATOM     29  C   LIG    1       27.790 -13.645   3.812  0.00  0.00    +0.040 C 
BRANCH  28  30
ATOM     30  O   LIG    1       28.275 -15.950   4.274  0.00  0.00    -0.390 OA
ATOM     31  H   LIG    1       28.107 -16.384   5.134  0.00  0.00    +0.210 HD
ENDBRANCH  28  30
ENDBRANCH  25  28
ENDBRANCH  19  25
ENDBRANCH  13  22
ENDBRANCH   7  16
ENDBRANCH   1  10
BRANCH   4  32
ATOM     32  O   LIG    1       24.965 -31.017   7.346  0.00  0.00    -0.492 OA
BRANCH  32  33
ATOM     33  C   LIG    1       26.191 -31.723   7.533  0.00  0.00    +0.235 C 
BRANCH  33  34
ATOM     34  C   LIG    1       26.324 -32.160   8.980  0.00  0.00    +0.055 C 
ATOM     35  C   LIG    1       24.966 -32.322   9.636  0.00  0.00    +0.050 C 
ATOM     36  C   LIG    1       25.152 -31.851  11.094  0.00  0.00    +0.117 C 
ATOM     37  O   LIG    1       26.496 -31.314  11.161  0.00  0.00    -0.366 OA
ATOM     38  C   LIG    1       27.015 -31.130   9.845  0.00  0.00    +0.168 C 
BRANCH  36  39
ATOM     39  C   LIG    1       24.177 -30.719  11.475  0.00  0.00    +0.021 A 
ATOM     40  C   LIG    1       22.791 -30.849  11.258  0.00  0.00    +0.132 A 
ATOM     41  F   LIG    1       22.297 -31.926  10.633  0.00  0.00    -0.205 F 
ATOM     42  C   LIG    1       21.883 -29.876  11.670  0.00  0.00    +0.077 A 
ATOM     43  C   LIG    1       22.350 -28.733  12.294  0.00  0.00    +0.126 A 
ATOM     44  F   LIG    1       21.484 -27.800  12.708  0.00  0.00    -0.205 F 
ATOM     45  C   LIG    1       23.711 -28.538  12.485  0.00  0.00    +0.039 A 
ATOM     46  C   LIG    1       24.619 -29.515  12.065  0.00  0.00    +0.012 A 
ENDBRANCH  36  39
BRANCH  36  47
ATOM     47  C   LIG    1       25.062 -33.008  12.115  0.00  0.00    +0.185 C 
BRANCH  47  48
ATOM     48  N   LIG    1       25.036 -32.588  13.506  0.00  0.00    -0.249 N 
ATOM     49  N   LIG    1       23.873 -32.520  14.188  0.00  0.00    -0.158 NA
ATOM     50  C   LIG    1       24.288 -32.067  15.375  0.00  0.00    +0.244 A 
ATOM     51  N   LIG    1       25.632 -31.857  15.482  0.00  0.00    -0.223 NA
ATOM     52  C   LIG    1       26.072 -32.169  14.285  0.00  0.00    +0.219 A 
ENDBRANCH  47  48
ENDBRANCH  36  47
ENDBRANCH  33  34
ENDBRANCH  32  33
ENDBRANCH   4  32
TORSDOF 13
ENDMDL
MODEL 7
REMARK VINA RESULT:      -5.4      1.964      2.589
REMARK  Name = *****
REMARK                            x       y       z     vdW  Elec       q    Type
REMARK                         _______ _______ _______ _____ _____    ______ ____
ROOT
ATOM      1  C   LIG    1       25.756 -26.257   6.181  0.00  0.00    +0.030 A 
ATOM      2  C   LIG    1       26.173 -26.783   7.415  0.00  0.00    +0.027 A 
ATOM      3  C   LIG    1       26.046 -28.142   7.726  0.00  0.00    +0.047 A 
ATOM      4  C   LIG    1       25.488 -29.011   6.800  0.00  0.00    +0.121 A 
ATOM      5  C   LIG    1       25.048 -28.503   5.583  0.00  0.00    +0.047 A 
ATOM      6  C   LIG    1       25.226 -27.165   5.263  0.00  0.00    +0.027 A 
ENDROOT
BRANCH   1  10
ATOM      7  N   LIG    1       23.562 -23.124   6.028  0.00  0.00    -0.327 N 
ATOM      8  C   LIG    1       23.628 -24.204   5.004  0.00  0.00    +0.124 C 
ATOM      9  C   LIG    1       25.106 -24.482   4.628  0.00  0.00    +0.124 C 
ATOM     10  N   LIG    1       25.874 -24.907   5.835  0.00  0.00    -0.327 N 
ATOM     11  C   LIG    1       25.789 -23.888   6.913  0.00  0.00    +0.124 C 
ATOM     12  C   LIG    1       24.312 -23.543   7.251  0.00  0.00    +0.124 C 
BRANCH   7  16
ATOM     13  C   LIG    1       24.107 -19.112   4.669  0.00  0.00    +0.052 A 
ATOM     14  C   LIG    1       25.174 -19.999   4.733  0.00  0.00    +0.028 A 
ATOM     15  C   LIG    1       24.985 -21.316   5.160  0.00  0.00    +0.025 A 
ATOM     16  C   LIG    1       23.738 -21.807   5.578  0.00  0.00    +0.030 A 
ATOM     17  C   LIG    1       22.673 -20.911   5.471  0.00  0.00    +0.025 A 
ATOM     18  C   LIG    1       22.852 -19.587   5.045  0.00  0.00    +0.028 A 
BRANCH  13  22
ATOM     19  N   LIG    1       25.113 -15.891   3.438  0.00  0.00    -0.207 N 
ATOM     20  C   LIG    1       25.425 -17.240   3.654  0.00  0.00    +0.351 C 
ATOM     21  O   LIG    1       26.498 -17.749   3.407  0.00  0.00    -0.244 OA
ATOM     22  N   LIG    1       24.285 -17.785   4.206  0.00  0.00    -0.250 N 
ATOM     23  C   LIG    1       23.407 -16.763   4.289  0.00  0.00    +0.230 C 
ATOM     24  N   LIG    1       23.841 -15.612   3.879  0.00  0.00    -0.157 NA
BRANCH  19  25
ATOM     25  C   LIG    1       26.056 -14.878   2.991  0.00  0.00    +0.140 C 
BRANCH  25  27
ATOM     26  C   LIG    1       24.358 -13.676   1.469  0.00  0.00    +0.006 C 
ATOM     27  C   LIG    1       25.311 -13.575   2.650  0.00  0.00    +0.026 C 
ENDBRANCH  25  27
BRANCH  25  28
ATOM     28  C   LIG    1       27.235 -14.713   3.987  0.00  0.00    +0.136 C 
ATOM     29  C   LIG    1       26.850 -13.965   5.261  0.00  0.00    +0.040 C 
BRANCH  28  30
ATOM     30  O   LIG    1       28.348 -14.047   3.387  0.00  0.00    -0.390 OA
ATOM     31  H   LIG    1       28.667 -13.395   4.042  0.00  0.00    +0.210 HD
ENDBRANCH  28  30
ENDBRANCH  25  28
ENDBRANCH  19  25
ENDBRANCH  13  22
ENDBRANCH   7  16
ENDBRANCH   1  10
BRANCH   4  32
ATOM     32  O   LIG    1       25.366 -30.321   7.164  0.00  0.00    -0.492 OA
BRANCH  32  33
ATOM     33  C   LIG    1       24.052 -30.711   7.562  0.00  0.00    +0.235 C 
BRANCH  33  34
ATOM     34  C   LIG    1       24.090 -31.324   8.950  0.00  0.00    +0.055 C 
ATOM     35  C   LIG    1       23.642 -30.332  10.006  0.00  0.00    +0.050 C 
ATOM     36  C   LIG    1       24.518 -30.621  11.244  0.00  0.00    +0.117 C 
ATOM     37  O   LIG    1       25.490 -31.604  10.811  0.00  0.00    -0.366 OA
ATOM     38  C   LIG    1       25.488 -31.701   9.388  0.00  0.00    +0.168 C 
BRANCH  36  39
ATOM     39  C   LIG    1       25.292 -29.376  11.719  0.00  0.00    +0.021 A 
ATOM     40  C   LIG    1       24.637 -28.320  12.381  0.00  0.00    +0.132 A 
ATOM     41  F   LIG    1       23.305 -28.335  12.536  0.00  0.00    -0.205 F 
ATOM     42  C   LIG    1       25.327 -27.224  12.895  0.00  0.00    +0.077 A 
ATOM     43  C   LIG    1       26.699 -27.153  12.734  0.00  0.00    +0.126 A 
ATOM     44  F   LIG    1       27.375 -26.111  13.238  0.00  0.00    -0.205 F 
ATOM     45  C   LIG    1       27.384 -28.144  12.045  0.00  0.00    +0.039 A 
ATOM     46  C   LIG    1       26.684 -29.240  11.528  0.00  0.00    +0.012 A 
ENDBRANCH  36  39
BRANCH  36  47
ATOM     47  C   LIG    1       23.719 -31.240  12.414  0.00  0.00    +0.185 C 
BRANCH  47  48
ATOM     48  N   LIG    1       24.534 -31.878  13.434  0.00  0.00    -0.249 N 
ATOM     49  N   LIG    1       24.955 -31.190  14.515  0.00  0.00    -0.158 NA
ATOM     50  C   LIG    1       25.682 -32.115  15.151  0.00  0.00    +0.244 A 
ATOM     51  N   LIG    1       25.735 -33.334  14.543  0.00  0.00    -0.223 NA
ATOM     52  C   LIG    1       25.025 -33.149  13.453  0.00  0.00    +0.219 A 
ENDBRANCH  47  48
ENDBRANCH  36  47
ENDBRANCH  33  34
ENDBRANCH  32  33
ENDBRANCH   4  32
TORSDOF 13
ENDMDL
MODEL 8
REMARK VINA RESULT:      -5.1      2.011      2.872
REMARK  Name = *****
REMARK                            x       y       z     vdW  Elec       q    Type
REMARK                         _______ _______ _______ _____ _____    ______ ____
ROOT
ATOM      1  C   LIG    1       25.129 -25.323   6.665  0.00  0.00    +0.030 A 
ATOM      2  C   LIG    1       26.136 -26.049   7.321  0.00  0.00    +0.027 A 
ATOM      3  C   LIG    1       26.104 -27.445   7.420  0.00  0.00    +0.047 A 
ATOM      4  C   LIG    1       25.049 -28.150   6.861  0.00  0.00    +0.121 A 
ATOM      5  C   LIG    1       24.031 -27.446   6.228  0.00  0.00    +0.047 A 
ATOM      6  C   LIG    1       24.097 -26.067   6.090  0.00  0.00    +0.027 A 
ENDROOT
BRANCH   1  10
ATOM      7  N   LIG    1       23.229 -22.597   4.765  0.00  0.00    -0.327 N 
ATOM      8  C   LIG    1       24.338 -23.433   4.229  0.00  0.00    +0.124 C 
ATOM      9  C   LIG    1       25.540 -23.401   5.207  0.00  0.00    +0.124 C 
ATOM     10  N   LIG    1       25.133 -23.929   6.542  0.00  0.00    -0.327 N 
ATOM     11  C   LIG    1       23.984 -23.166   7.095  0.00  0.00    +0.124 C 
ATOM     12  C   LIG    1       22.796 -23.125   6.095  0.00  0.00    +0.124 C 
BRANCH   7  16
ATOM     13  C   LIG    1       23.600 -18.363   4.345  0.00  0.00    +0.052 A 
ATOM     14  C   LIG    1       22.589 -18.921   5.116  0.00  0.00    +0.028 A 
ATOM     15  C   LIG    1       22.485 -20.307   5.265  0.00  0.00    +0.025 A 
ATOM     16  C   LIG    1       23.355 -21.206   4.629  0.00  0.00    +0.030 A 
ATOM     17  C   LIG    1       24.385 -20.623   3.889  0.00  0.00    +0.025 A 
ATOM     18  C   LIG    1       24.498 -19.235   3.732  0.00  0.00    +0.028 A 
BRANCH  13  22
ATOM     19  N   LIG    1       24.492 -14.908   3.929  0.00  0.00    -0.207 N 
ATOM     20  C   LIG    1       24.850 -16.258   3.816  0.00  0.00    +0.351 C 
ATOM     21  O   LIG    1       25.939 -16.656   3.460  0.00  0.00    -0.244 OA
ATOM     22  N   LIG    1       23.731 -16.958   4.215  0.00  0.00    -0.250 N 
ATOM     23  C   LIG    1       22.819 -16.017   4.536  0.00  0.00    +0.230 C 
ATOM     24  N   LIG    1       23.211 -14.786   4.417  0.00  0.00    -0.157 NA
BRANCH  19  25
ATOM     25  C   LIG    1       25.398 -13.786   3.743  0.00  0.00    +0.140 C 
BRANCH  25  27
ATOM     26  C   LIG    1       27.962 -13.881   3.983  0.00  0.00    +0.006 C 
ATOM     27  C   LIG    1       26.611 -13.925   4.680  0.00  0.00    +0.026 C 
ENDBRANCH  25  27
BRANCH  25  28
ATOM     28  C   LIG    1       25.751 -13.575   2.247  0.00  0.00    +0.136 C 
ATOM     29  C   LIG    1       24.528 -13.575   1.332  0.00  0.00    +0.040 C 
BRANCH  28  30
ATOM     30  O   LIG    1       26.671 -14.561   1.775  0.00  0.00    -0.390 OA
ATOM     31  H   LIG    1       27.553 -14.297   2.105  0.00  0.00    +0.210 HD
ENDBRANCH  28  30
ENDBRANCH  25  28
ENDBRANCH  19  25
ENDBRANCH  13  22
ENDBRANCH   7  16
ENDBRANCH   1  10
BRANCH   4  32
ATOM     32  O   LIG    1       25.054 -29.508   7.007  0.00  0.00    -0.492 OA
BRANCH  32  33
ATOM     33  C   LIG    1       26.111 -30.017   7.818  0.00  0.00    +0.235 C 
BRANCH  33  34
ATOM     34  C   LIG    1       25.540 -30.833   8.963  0.00  0.00    +0.055 C 
ATOM     35  C   LIG    1       24.886 -29.945  10.005  0.00  0.00    +0.050 C 
ATOM     36  C   LIG    1       25.187 -30.610  11.364  0.00  0.00    +0.117 C 
ATOM     37  O   LIG    1       26.091 -31.703  11.071  0.00  0.00    -0.366 OA
ATOM     38  C   LIG    1       26.602 -31.574   9.746  0.00  0.00    +0.168 C 
BRANCH  36  39
ATOM     39  C   LIG    1       25.907 -29.657  12.338  0.00  0.00    +0.021 A 
ATOM     40  C   LIG    1       26.648 -30.153  13.429  0.00  0.00    +0.132 A 
ATOM     41  F   LIG    1       26.672 -31.466  13.695  0.00  0.00    -0.205 F 
ATOM     42  C   LIG    1       27.376 -29.316  14.272  0.00  0.00    +0.077 A 
ATOM     43  C   LIG    1       27.358 -27.951  14.052  0.00  0.00    +0.126 A 
ATOM     44  F   LIG    1       28.067 -27.139  14.847  0.00  0.00    -0.205 F 
ATOM     45  C   LIG    1       26.603 -27.410  13.021  0.00  0.00    +0.039 A 
ATOM     46  C   LIG    1       25.870 -28.254  12.179  0.00  0.00    +0.012 A 
ENDBRANCH  36  39
BRANCH  36  47
ATOM     47  C   LIG    1       23.928 -31.213  12.030  0.00  0.00    +0.185 C 
BRANCH  47  48
ATOM     48  N   LIG    1       22.878 -30.251  12.320  0.00  0.00    -0.249 N 
ATOM     49  N   LIG    1       21.890 -30.015  11.432  0.00  0.00    -0.158 NA
ATOM     50  C   LIG    1       21.188 -29.068  12.063  0.00  0.00    +0.244 A 
ATOM     51  N   LIG    1       21.668 -28.704  13.287  0.00  0.00    -0.223 NA
ATOM     52  C   LIG    1       22.744 -29.447  13.411  0.00  0.00    +0.219 A 
ENDBRANCH  47  48
ENDBRANCH  36  47
ENDBRANCH  33  34
ENDBRANCH  32  33
ENDBRANCH   4  32
TORSDOF 13
ENDMDL
MODEL 9
REMARK VINA RESULT:      -5.1      2.459      3.364
REMARK  Name = *****
REMARK                            x       y       z     vdW  Elec       q    Type
REMARK                         _______ _______ _______ _____ _____    ______ ____
ROOT
ATOM      1  C   LIG    1       25.036 -29.090   5.744  0.00  0.00    +0.030 A 
ATOM      2  C   LIG    1       24.431 -29.558   6.923  0.00  0.00    +0.027 A 
ATOM      3  C   LIG    1       24.619 -30.864   7.389  0.00  0.00    +0.047 A 
ATOM      4  C   LIG    1       25.423 -31.740   6.675  0.00  0.00    +0.121 A 
ATOM      5  C   LIG    1       26.011 -31.302   5.495  0.00  0.00    +0.047 A 
ATOM      6  C   LIG    1       25.861 -29.990   5.068  0.00  0.00    +0.027 A 
ENDROOT
BRANCH   1  10
ATOM      7  N   LIG    1       25.786 -25.494   6.821  0.00  0.00    -0.327 N 
ATOM      8  C   LIG    1       24.623 -26.318   7.252  0.00  0.00    +0.124 C 
ATOM      9  C   LIG    1       23.922 -26.928   6.012  0.00  0.00    +0.124 C 
ATOM     10  N   LIG    1       24.875 -27.790   5.253  0.00  0.00    -0.327 N 
ATOM     11  C   LIG    1       26.086 -27.029   4.851  0.00  0.00    +0.124 C 
ATOM     12  C   LIG    1       26.760 -26.347   6.075  0.00  0.00    +0.124 C 
BRANCH   7  16
ATOM     13  C   LIG    1       24.932 -21.615   5.249  0.00  0.00    +0.052 A 
ATOM     14  C   LIG    1       25.716 -21.772   6.385  0.00  0.00    +0.028 A 
ATOM     15  C   LIG    1       26.008 -23.045   6.882  0.00  0.00    +0.025 A 
ATOM     16  C   LIG    1       25.508 -24.221   6.301  0.00  0.00    +0.030 A 
ATOM     17  C   LIG    1       24.752 -24.042   5.140  0.00  0.00    +0.025 A 
ATOM     18  C   LIG    1       24.453 -22.770   4.634  0.00  0.00    +0.028 A 
BRANCH  13  22
ATOM     19  N   LIG    1       23.719 -18.419   4.146  0.00  0.00    -0.207 N 
ATOM     20  C   LIG    1       23.545 -19.551   4.954  0.00  0.00    +0.351 C 
ATOM     21  O   LIG    1       22.582 -19.752   5.664  0.00  0.00    -0.244 OA
ATOM     22  N   LIG    1       24.659 -20.330   4.721  0.00  0.00    -0.250 N 
ATOM     23  C   LIG    1       25.390 -19.642   3.818  0.00  0.00    +0.230 C 
ATOM     24  N   LIG    1       24.880 -18.520   3.415  0.00  0.00    -0.157 NA
BRANCH  19  25
ATOM     25  C   LIG    1       22.728 -17.372   3.953  0.00  0.00    +0.140 C 
BRANCH  25  27
ATOM     26  C   LIG    1       20.570 -18.467   3.068  0.00  0.00    +0.006 C 
ATOM     27  C   LIG    1       21.322 -17.910   4.267  0.00  0.00    +0.026 C 
ENDBRANCH  25  27
BRANCH  25  28
ATOM     28  C   LIG    1       23.113 -16.073   4.711  0.00  0.00    +0.136 C 
ATOM     29  C   LIG    1       22.086 -15.659   5.762  0.00  0.00    +0.040 C 
BRANCH  28  30
ATOM     30  O   LIG    1       23.315 -14.977   3.816  0.00  0.00    -0.390 OA
ATOM     31  H   LIG    1       23.021 -15.280   2.935  0.00  0.00    +0.210 HD
ENDBRANCH  28  30
ENDBRANCH  25  28
ENDBRANCH  19  25
ENDBRANCH  13  22
ENDBRANCH   7  16
ENDBRANCH   1  10
BRANCH   4  32
ATOM     32  O   LIG    1       25.554 -33.009   7.162  0.00  0.00    -0.492 OA
BRANCH  32  33
ATOM     33  C   LIG    1       24.428 -33.486   7.899  0.00  0.00    +0.235 C 
BRANCH  33  34
ATOM     34  C   LIG    1       24.843 -33.825   9.318  0.00  0.00    +0.055 C 
ATOM     35  C   LIG    1       23.809 -33.356  10.325  0.00  0.00    +0.050 C 
ATOM     36  C   LIG    1       24.612 -32.893  11.559  0.00  0.00    +0.117 C 
ATOM     37  O   LIG    1       26.004 -32.960  11.164  0.00  0.00    -0.366 OA
ATOM     38  C   LIG    1       26.105 -33.112   9.749  0.00  0.00    +0.168 C 
BRANCH  36  39
ATOM     39  C   LIG    1       24.306 -31.433  11.945  0.00  0.00    +0.021 A 
ATOM     40  C   LIG    1       25.064 -30.764  12.926  0.00  0.00    +0.132 A 
ATOM     41  F   LIG    1       26.017 -31.413  13.610  0.00  0.00    -0.205 F 
ATOM     42  C   LIG    1       24.861 -29.420  13.232  0.00  0.00    +0.077 A 
ATOM     43  C   LIG    1       23.870 -28.717  12.570  0.00  0.00    +0.126 A 
ATOM     44  F   LIG    1       23.677 -27.421  12.846  0.00  0.00    -0.205 F 
ATOM     45  C   LIG    1       23.063 -29.345  11.632  0.00  0.00    +0.039 A 
ATOM     46  C   LIG    1       23.269 -30.697  11.332  0.00  0.00    +0.012 A 
ENDBRANCH  36  39
BRANCH  36  47
ATOM     47  C   LIG    1       24.429 -33.825  12.779  0.00  0.00    +0.185 C 
BRANCH  47  48
ATOM     48  N   LIG    1       23.126 -33.736  13.417  0.00  0.00    -0.249 N 
ATOM     49  N   LIG    1       23.007 -33.799  14.760  0.00  0.00    -0.158 NA
ATOM     50  C   LIG    1       21.681 -33.721  14.912  0.00  0.00    +0.244 A 
ATOM     51  N   LIG    1       20.967 -33.606  13.756  0.00  0.00    -0.223 NA
ATOM     52  C   LIG    1       21.899 -33.644  12.832  0.00  0.00    +0.219 A 
ENDBRANCH  47  48
ENDBRANCH  36  47
ENDBRANCH  33  34
ENDBRANCH  32  33
ENDBRANCH   4  32
TORSDOF 13
ENDMDL
