MODEL 1
REMARK VINA RESULT:      26.4      0.000      0.000
REMARK  Name = *****
REMARK                            x       y       z     vdW  Elec       q    Type
REMARK                         _______ _______ _______ _____ _____    ______ ____
ROOT
ATOM      1  C   LIG    1       24.748 -13.047   4.233  0.00  0.00    +0.132 C 
ATOM      2  C   LIG    1       24.446 -14.479   3.663  0.00  0.00    +0.090 C 
ATOM      3  C   LIG    1       25.736 -15.254   3.362  0.00  0.00    +0.192 C 
ATOM      4  C   LIG    1       25.489 -16.708   3.031  0.00  0.00    +0.141 C 
ATOM      5  C   LIG    1       24.363 -17.362   3.379  0.00  0.00    +0.049 C 
ATOM      6  C   LIG    1       23.214 -16.726   4.133  0.00  0.00    +0.091 C 
ATOM      7  C   LIG    1       22.718 -17.684   5.270  0.00  0.00    +0.098 C 
ATOM      8  C   LIG    1       21.600 -17.053   6.118  0.00  0.00    +0.047 C 
ATOM      9  C   LIG    1       22.328 -19.034   4.662  0.00  0.00    -0.001 A 
ATOM     10  C   LIG    1       23.076 -19.560   3.587  0.00  0.00    +0.069 A 
ATOM     11  C   LIG    1       22.760 -20.821   3.052  0.00  0.00    +0.128 A 
ATOM     12  C   LIG    1       21.698 -21.563   3.556  0.00  0.00    +0.046 A 
ATOM     13  C   LIG    1       20.950 -21.058   4.612  0.00  0.00    +0.004 A 
ATOM     14  C   LIG    1       21.265 -19.812   5.164  0.00  0.00    +0.007 A 
ATOM     15  C   LIG    1       24.207 -18.797   3.010  0.00  0.00    +0.197 C 
ATOM     16  O   LIG    1       24.979 -19.341   2.220  0.00  0.00    -0.287 OA
ATOM     17  C   LIG    1       26.650 -15.130   4.599  0.00  0.00    +0.211 C 
ATOM     18  O   LIG    1       26.883 -16.053   5.376  0.00  0.00    -0.288 OA
ATOM     19  C   LIG    1       27.117 -13.754   4.896  0.00  0.00    +0.121 C 
ATOM     20  C   LIG    1       23.541 -15.287   4.627  0.00  0.00    +0.134 C 
ATOM     21  C   LIG    1       26.185 -12.798   4.717  0.00  0.00    +0.127 C 
ENDROOT
BRANCH  19  22
ATOM     22  C   LIG    1       28.529 -13.530   5.295  0.00  0.00    +0.248 C 
ATOM     23  O   LIG    1       29.468 -13.729   4.535  0.00  0.00    -0.270 OA
ATOM     24  N   LIG    1       28.744 -13.058   6.554  0.00  0.00    -0.325 N 
ATOM     25  H   LIG    1       27.963 -12.728   7.113  0.00  0.00    +0.145 HD
ATOM     26  H   LIG    1       29.686 -12.809   6.815  0.00  0.00    +0.145 HD
ENDBRANCH  19  22
BRANCH   1  28
ATOM     27  C   LIG    1       22.985 -11.451   3.620  0.00  0.00    +0.105 C 
ATOM     28  N   LIG    1       24.364 -11.879   3.378  0.00  0.00    -0.298 NA
ATOM     29  C   LIG    1       24.588 -12.086   1.943  0.00  0.00    +0.105 C 
ENDBRANCH   1  28
BRANCH   3  30
ATOM     30  O   LIG    1       26.358 -14.672   2.212  0.00  0.00    -0.373 OA
ATOM     31  H   LIG    1       25.894 -15.076   1.446  0.00  0.00    +0.211 HD
ENDBRANCH   3  30
BRANCH   4  32
ATOM     32  O   LIG    1       26.510 -17.281   2.281  0.00  0.00    -0.507 OA
ATOM     33  H   LIG    1       26.493 -16.890   1.377  0.00  0.00    +0.292 HD
ENDBRANCH   4  32
BRANCH   7  34
ATOM     34  O   LIG    1       23.807 -17.917   6.169  0.00  0.00    -0.384 OA
ATOM     35  H   LIG    1       23.495 -17.787   7.083  0.00  0.00    +0.211 HD
ENDBRANCH   7  34
BRANCH  11  36
ATOM     36  O   LIG    1       23.451 -21.401   2.021  0.00  0.00    -0.506 OA
ATOM     37  H   LIG    1       23.749 -20.690   1.412  0.00  0.00    +0.292 HD
ENDBRANCH  11  36
BRANCH  20  38
ATOM     38  O   LIG    1       22.308 -14.560   4.767  0.00  0.00    -0.391 OA
ATOM     39  H   LIG    1       21.826 -14.586   3.922  0.00  0.00    +0.210 HD
ENDBRANCH  20  38
BRANCH  21  40
ATOM     40  O   LIG    1       26.472 -11.448   4.917  0.00  0.00    -0.509 OA
ATOM     41  H   LIG    1       27.378 -11.453   5.311  0.00  0.00    +0.292 HD
ENDBRANCH  21  40
TORSDOF 8
ENDMDL
