MODEL 1
REMARK VINA RESULT:      -2.8      0.000      0.000
REMARK  Name = *****
REMARK                            x       y       z     vdW  Elec       q    Type
REMARK                         _______ _______ _______ _____ _____    ______ ____
ROOT
ATOM      1  C   LIG    1       25.187 -13.794   3.536  0.00  0.00    +0.127 C 
ATOM      2  C   LIG    1       25.160 -12.768   4.657  0.00  0.00    +0.234 C 
ATOM      3  O   LIG    1       24.125 -12.388   5.201  0.00  0.00    -0.274 OA
ATOM      4  N   LIG    1       26.360 -12.306   5.094  0.00  0.00    -0.266 N 
ATOM      5  H   LIG    1       26.356 -11.667   5.877  0.00  0.00    +0.157 HD
ATOM      6  C   LIG    1       27.532 -12.813   4.658  0.00  0.00    +0.150 C 
ATOM      7  N   LIG    1       27.681 -13.618   3.681  0.00  0.00    -0.158 NA
ATOM      8  C   LIG    1       26.582 -13.963   2.932  0.00  0.00    +0.254 C 
ATOM      9  O   LIG    1       26.723 -14.440   1.812  0.00  0.00    -0.273 OA
ENDROOT
BRANCH   1  10
ATOM     10  C   LIG    1       24.678 -15.180   4.112  0.00  0.00    +0.010 C 
ATOM     11  C   LIG    1       23.144 -15.308   4.101  0.00  0.00    +0.009 C 
BRANCH  10  12
ATOM     12  C   LIG    1       25.319 -16.414   3.409  0.00  0.00    +0.004 C 
BRANCH  12  14
ATOM     13  C   LIG    1       25.466 -18.940   3.597  0.00  0.00    +0.004 C 
ATOM     14  C   LIG    1       24.551 -17.725   3.638  0.00  0.00    -0.003 C 
ENDBRANCH  12  14
ENDBRANCH  10  12
ENDBRANCH   1  10
BRANCH   1  15
ATOM     15  C   LIG    1       24.222 -13.261   2.429  0.00  0.00    +0.022 C 
ATOM     16  C   LIG    1       24.573 -11.881   1.872  0.00  0.00    +0.005 C 
ENDBRANCH   1  15
BRANCH   6  17
ATOM     17  S   LIG    1       28.894 -12.273   5.578  0.00  0.00    -0.110 S 
ATOM     18  H   LIG    1       28.469 -11.005   5.689  0.00  0.00    +0.110 HD
ENDBRANCH   6  17
TORSDOF 5
ENDMDL
MODEL 2
REMARK VINA RESULT:      -2.6      5.501      7.229
REMARK  Name = *****
REMARK                            x       y       z     vdW  Elec       q    Type
REMARK                         _______ _______ _______ _____ _____    ______ ____
ROOT
ATOM      1  C   LIG    1       24.067 -20.295   4.906  0.00  0.00    +0.127 C 
ATOM      2  C   LIG    1       25.349 -20.288   4.090  0.00  0.00    +0.234 C 
ATOM      3  O   LIG    1       25.375 -20.126   2.872  0.00  0.00    -0.274 OA
ATOM      4  N   LIG    1       26.513 -20.416   4.778  0.00  0.00    -0.266 N 
ATOM      5  H   LIG    1       27.374 -20.355   4.252  0.00  0.00    +0.157 HD
ATOM      6  C   LIG    1       26.560 -20.420   6.127  0.00  0.00    +0.150 C 
ATOM      7  N   LIG    1       25.556 -20.501   6.908  0.00  0.00    -0.158 NA
ATOM      8  C   LIG    1       24.306 -20.677   6.368  0.00  0.00    +0.254 C 
ATOM      9  O   LIG    1       23.386 -21.094   7.062  0.00  0.00    -0.273 OA
ENDROOT
BRANCH   1  10
ATOM     10  C   LIG    1       23.413 -18.853   4.827  0.00  0.00    +0.010 C 
ATOM     11  C   LIG    1       23.989 -17.995   3.685  0.00  0.00    +0.009 C 
BRANCH  10  12
ATOM     12  C   LIG    1       21.859 -18.883   4.738  0.00  0.00    +0.004 C 
BRANCH  12  14
ATOM     13  C   LIG    1       19.870 -18.646   3.180  0.00  0.00    +0.004 C 
ATOM     14  C   LIG    1       21.298 -18.210   3.476  0.00  0.00    -0.003 C 
ENDBRANCH  12  14
ENDBRANCH  10  12
ENDBRANCH   1  10
BRANCH   1  15
ATOM     15  C   LIG    1       23.136 -21.366   4.253  0.00  0.00    +0.022 C 
ATOM     16  C   LIG    1       21.772 -21.535   4.924  0.00  0.00    +0.005 C 
ENDBRANCH   1  15
BRANCH   6  17
ATOM     17  S   LIG    1       28.166 -20.290   6.755  0.00  0.00    -0.110 S 
ATOM     18  H   LIG    1       27.810 -19.611   7.856  0.00  0.00    +0.110 HD
ENDBRANCH   6  17
TORSDOF 5
ENDMDL
MODEL 3
REMARK VINA RESULT:      -2.4      5.263      6.879
REMARK  Name = *****
REMARK                            x       y       z     vdW  Elec       q    Type
REMARK                         _______ _______ _______ _____ _____    ______ ____
ROOT
ATOM      1  C   LIG    1       24.448 -20.238   4.818  0.00  0.00    +0.127 C 
ATOM      2  C   LIG    1       23.039 -20.118   5.373  0.00  0.00    +0.234 C 
ATOM      3  O   LIG    1       22.501 -20.994   6.048  0.00  0.00    -0.274 OA
ATOM      4  N   LIG    1       22.387 -18.950   5.142  0.00  0.00    -0.266 N 
ATOM      5  H   LIG    1       21.471 -18.837   5.556  0.00  0.00    +0.157 HD
ATOM      6  C   LIG    1       22.986 -17.889   4.562  0.00  0.00    +0.150 C 
ATOM      7  N   LIG    1       24.129 -17.893   3.998  0.00  0.00    -0.158 NA
ATOM      8  C   LIG    1       24.808 -19.082   3.883  0.00  0.00    +0.254 C 
ATOM      9  O   LIG    1       25.719 -19.196   3.071  0.00  0.00    -0.273 OA
ENDROOT
BRANCH   1  10
ATOM     10  C   LIG    1       25.465 -20.285   6.033  0.00  0.00    +0.010 C 
ATOM     11  C   LIG    1       25.307 -21.547   6.900  0.00  0.00    +0.009 C 
BRANCH  10  12
ATOM     12  C   LIG    1       26.952 -20.120   5.600  0.00  0.00    +0.004 C 
BRANCH  12  14
ATOM     13  C   LIG    1       29.274 -19.480   6.400  0.00  0.00    +0.004 C 
ATOM     14  C   LIG    1       27.941 -20.111   6.776  0.00  0.00    -0.003 C 
ENDBRANCH  12  14
ENDBRANCH  10  12
ENDBRANCH   1  10
BRANCH   1  15
ATOM     15  C   LIG    1       24.488 -21.572   4.005  0.00  0.00    +0.022 C 
ATOM     16  C   LIG    1       23.726 -21.545   2.678  0.00  0.00    +0.005 C 
ENDBRANCH   1  15
BRANCH   6  17
ATOM     17  S   LIG    1       22.047 -16.439   4.654  0.00  0.00    -0.110 S 
ATOM     18  H   LIG    1       22.480 -16.093   5.876  0.00  0.00    +0.110 HD
ENDBRANCH   6  17
TORSDOF 5
ENDMDL
MODEL 4
REMARK VINA RESULT:      -2.2      5.211      7.248
REMARK  Name = *****
REMARK                            x       y       z     vdW  Elec       q    Type
REMARK                         _______ _______ _______ _____ _____    ______ ____
ROOT
ATOM      1  C   LIG    1       23.912 -20.023   4.857  0.00  0.00    +0.127 C 
ATOM      2  C   LIG    1       25.157 -20.551   4.164  0.00  0.00    +0.234 C 
ATOM      3  O   LIG    1       25.301 -20.554   2.943  0.00  0.00    -0.274 OA
ATOM      4  N   LIG    1       26.165 -20.986   4.963  0.00  0.00    -0.266 N 
ATOM      5  H   LIG    1       27.020 -21.286   4.514  0.00  0.00    +0.157 HD
ATOM      6  C   LIG    1       26.136 -20.846   6.305  0.00  0.00    +0.150 C 
ATOM      7  N   LIG    1       25.128 -20.486   6.997  0.00  0.00    -0.158 NA
ATOM      8  C   LIG    1       23.926 -20.287   6.364  0.00  0.00    +0.254 C 
ATOM      9  O   LIG    1       22.883 -20.279   7.008  0.00  0.00    -0.273 OA
ENDROOT
BRANCH   1  10
ATOM     10  C   LIG    1       23.809 -18.464   4.585  0.00  0.00    +0.010 C 
ATOM     11  C   LIG    1       24.796 -17.976   3.510  0.00  0.00    +0.009 C 
BRANCH  10  12
ATOM     12  C   LIG    1       22.366 -17.992   4.238  0.00  0.00    +0.004 C 
BRANCH  12  14
ATOM     13  C   LIG    1       22.905 -15.537   4.593  0.00  0.00    +0.004 C 
ATOM     14  C   LIG    1       21.960 -16.682   4.931  0.00  0.00    -0.003 C 
ENDBRANCH  12  14
ENDBRANCH  10  12
ENDBRANCH   1  10
BRANCH   1  15
ATOM     15  C   LIG    1       22.701 -20.781   4.225  0.00  0.00    +0.022 C 
ATOM     16  C   LIG    1       21.844 -21.571   5.215  0.00  0.00    +0.005 C 
ENDBRANCH   1  15
BRANCH   6  17
ATOM     17  S   LIG    1       27.652 -21.199   7.061  0.00  0.00    -0.110 S 
ATOM     18  H   LIG    1       27.567 -22.527   6.887  0.00  0.00    +0.110 HD
ENDBRANCH   6  17
TORSDOF 5
ENDMDL
MODEL 5
REMARK VINA RESULT:      -1.7      1.682      2.211
REMARK  Name = *****
REMARK                            x       y       z     vdW  Elec       q    Type
REMARK                         _______ _______ _______ _____ _____    ______ ____
ROOT
ATOM      1  C   LIG    1       24.961 -13.389   3.997  0.00  0.00    +0.127 C 
ATOM      2  C   LIG    1       25.893 -13.425   5.197  0.00  0.00    +0.234 C 
ATOM      3  O   LIG    1       25.525 -13.725   6.331  0.00  0.00    -0.274 OA
ATOM      4  N   LIG    1       27.204 -13.160   4.962  0.00  0.00    -0.266 N 
ATOM      5  H   LIG    1       27.842 -13.237   5.742  0.00  0.00    +0.157 HD
ATOM      6  C   LIG    1       27.698 -12.997   3.717  0.00  0.00    +0.150 C 
ATOM      7  N   LIG    1       27.009 -12.877   2.651  0.00  0.00    -0.158 NA
ATOM      8  C   LIG    1       25.640 -12.828   2.746  0.00  0.00    +0.254 C 
ATOM      9  O   LIG    1       24.972 -12.381   1.821  0.00  0.00    -0.273 OA
ENDROOT
BRANCH   1  10
ATOM     10  C   LIG    1       24.446 -14.862   3.716  0.00  0.00    +0.010 C 
ATOM     11  C   LIG    1       25.591 -15.861   3.473  0.00  0.00    +0.009 C 
BRANCH  10  12
ATOM     12  C   LIG    1       23.491 -15.404   4.820  0.00  0.00    +0.004 C 
BRANCH  12  14
ATOM     13  C   LIG    1       22.257 -17.610   4.593  0.00  0.00    +0.004 C 
ATOM     14  C   LIG    1       22.251 -16.123   4.267  0.00  0.00    -0.003 C 
ENDBRANCH  12  14
ENDBRANCH  10  12
ENDBRANCH   1  10
BRANCH   1  15
ATOM     15  C   LIG    1       23.776 -12.449   4.389  0.00  0.00    +0.022 C 
ATOM     16  C   LIG    1       24.080 -11.457   5.514  0.00  0.00    +0.005 C 
ENDBRANCH   1  15
BRANCH   6  17
ATOM     17  S   LIG    1       29.426 -12.972   3.665  0.00  0.00    -0.110 S 
ATOM     18  H   LIG    1       29.581 -12.688   4.967  0.00  0.00    +0.110 HD
ENDBRANCH   6  17
TORSDOF 5
ENDMDL
MODEL 6
REMARK VINA RESULT:      -0.9      2.319      2.842
REMARK  Name = *****
REMARK                            x       y       z     vdW  Elec       q    Type
REMARK                         _______ _______ _______ _____ _____    ______ ____
ROOT
ATOM      1  C   LIG    1       26.079 -13.658   3.817  0.00  0.00    +0.127 C 
ATOM      2  C   LIG    1       27.247 -13.708   4.788  0.00  0.00    +0.234 C 
ATOM      3  O   LIG    1       27.533 -12.786   5.550  0.00  0.00    -0.274 OA
ATOM      4  N   LIG    1       27.958 -14.864   4.832  0.00  0.00    -0.266 N 
ATOM      5  H   LIG    1       28.701 -14.929   5.515  0.00  0.00    +0.157 HD
ATOM      6  C   LIG    1       27.587 -15.968   4.151  0.00  0.00    +0.150 C 
ATOM      7  N   LIG    1       26.676 -16.026   3.261  0.00  0.00    -0.158 NA
ATOM      8  C   LIG    1       26.047 -14.866   2.879  0.00  0.00    +0.254 C 
ATOM      9  O   LIG    1       25.433 -14.817   1.820  0.00  0.00    -0.273 OA
ENDROOT
BRANCH   1  10
ATOM     10  C   LIG    1       24.733 -13.591   4.653  0.00  0.00    +0.010 C 
ATOM     11  C   LIG    1       24.205 -12.155   4.824  0.00  0.00    +0.009 C 
BRANCH  10  12
ATOM     12  C   LIG    1       23.608 -14.508   4.088  0.00  0.00    +0.004 C 
BRANCH  12  14
ATOM     13  C   LIG    1       22.357 -16.631   4.695  0.00  0.00    +0.004 C 
ATOM     14  C   LIG    1       22.822 -15.262   5.172  0.00  0.00    -0.003 C 
ENDBRANCH  12  14
ENDBRANCH  10  12
ENDBRANCH   1  10
BRANCH   1  15
ATOM     15  C   LIG    1       26.271 -12.364   2.964  0.00  0.00    +0.022 C 
ATOM     16  C   LIG    1       25.145 -12.069   1.972  0.00  0.00    +0.005 C 
ENDBRANCH   1  15
BRANCH   6  17
ATOM     17  S   LIG    1       28.475 -17.381   4.605  0.00  0.00    -0.110 S 
ATOM     18  H   LIG    1       29.456 -16.711   5.229  0.00  0.00    +0.110 HD
ENDBRANCH   6  17
TORSDOF 5
ENDMDL
MODEL 7
REMARK VINA RESULT:      -0.8      1.758      2.880
REMARK  Name = *****
REMARK                            x       y       z     vdW  Elec       q    Type
REMARK                         _______ _______ _______ _____ _____    ______ ____
ROOT
ATOM      1  C   LIG    1       26.117 -14.730   3.544  0.00  0.00    +0.127 C 
ATOM      2  C   LIG    1       26.266 -13.529   2.625  0.00  0.00    +0.234 C 
ATOM      3  O   LIG    1       25.405 -13.184   1.818  0.00  0.00    -0.274 OA
ATOM      4  N   LIG    1       27.395 -12.788   2.764  0.00  0.00    -0.266 N 
ATOM      5  H   LIG    1       27.479 -11.954   2.198  0.00  0.00    +0.157 HD
ATOM      6  C   LIG    1       28.292 -13.013   3.748  0.00  0.00    +0.150 C 
ATOM      7  N   LIG    1       28.309 -14.022   4.526  0.00  0.00    -0.158 NA
ATOM      8  C   LIG    1       27.397 -15.029   4.327  0.00  0.00    +0.254 C 
ATOM      9  O   LIG    1       27.588 -16.139   4.810  0.00  0.00    -0.273 OA
ENDROOT
BRANCH   1  10
ATOM     10  C   LIG    1       24.924 -14.449   4.549  0.00  0.00    +0.010 C 
ATOM     11  C   LIG    1       24.845 -12.976   4.990  0.00  0.00    +0.009 C 
BRANCH  10  12
ATOM     12  C   LIG    1       23.540 -14.918   4.012  0.00  0.00    +0.004 C 
BRANCH  12  14
ATOM     13  C   LIG    1       22.317 -17.091   4.487  0.00  0.00    +0.004 C 
ATOM     14  C   LIG    1       22.723 -15.729   5.031  0.00  0.00    -0.003 C 
ENDBRANCH  12  14
ENDBRANCH  10  12
ENDBRANCH   1  10
BRANCH   1  15
ATOM     15  C   LIG    1       25.795 -15.950   2.624  0.00  0.00    +0.022 C 
ATOM     16  C   LIG    1       25.834 -17.313   3.317  0.00  0.00    +0.005 C 
ENDBRANCH   1  15
BRANCH   6  17
ATOM     17  S   LIG    1       29.475 -11.759   3.893  0.00  0.00    -0.110 S 
ATOM     18  H   LIG    1       28.801 -11.066   4.824  0.00  0.00    +0.110 HD
ENDBRANCH   6  17
TORSDOF 5
ENDMDL
MODEL 8
REMARK VINA RESULT:      -0.6      2.403      4.196
REMARK  Name = *****
REMARK                            x       y       z     vdW  Elec       q    Type
REMARK                         _______ _______ _______ _____ _____    ______ ____
ROOT
ATOM      1  C   LIG    1       25.855 -14.913   3.518  0.00  0.00    +0.127 C 
ATOM      2  C   LIG    1       24.366 -14.710   3.743  0.00  0.00    +0.234 C 
ATOM      3  O   LIG    1       23.703 -15.382   4.531  0.00  0.00    -0.274 OA
ATOM      4  N   LIG    1       23.778 -13.692   3.065  0.00  0.00    -0.266 N 
ATOM      5  H   LIG    1       22.800 -13.511   3.250  0.00  0.00    +0.157 HD
ATOM      6  C   LIG    1       24.484 -12.813   2.323  0.00  0.00    +0.150 C 
ATOM      7  N   LIG    1       25.715 -12.921   2.007  0.00  0.00    -0.158 NA
ATOM      8  C   LIG    1       26.395 -14.057   2.371  0.00  0.00    +0.254 C 
ATOM      9  O   LIG    1       27.445 -14.354   1.812  0.00  0.00    -0.273 OA
ENDROOT
BRANCH   1  10
ATOM     10  C   LIG    1       26.619 -14.558   4.861  0.00  0.00    +0.010 C 
ATOM     11  C   LIG    1       27.935 -15.340   5.028  0.00  0.00    +0.009 C 
BRANCH  10  12
ATOM     12  C   LIG    1       26.881 -13.033   5.039  0.00  0.00    +0.004 C 
BRANCH  12  14
ATOM     13  C   LIG    1       29.123 -12.775   3.878  0.00  0.00    +0.004 C 
ATOM     14  C   LIG    1       28.367 -12.674   5.195  0.00  0.00    -0.003 C 
ENDBRANCH  12  14
ENDBRANCH  10  12
ENDBRANCH   1  10
BRANCH   1  15
ATOM     15  C   LIG    1       26.043 -16.420   3.151  0.00  0.00    +0.022 C 
ATOM     16  C   LIG    1       24.958 -17.357   3.684  0.00  0.00    +0.005 C 
ENDBRANCH   1  15
BRANCH   6  17
ATOM     17  S   LIG    1       23.554 -11.447   1.812  0.00  0.00    -0.110 S 
ATOM     18  H   LIG    1       24.583 -10.810   1.233  0.00  0.00    +0.110 HD
ENDBRANCH   6  17
TORSDOF 5
ENDMDL
MODEL 9
REMARK VINA RESULT:      -0.5      2.305      3.138
REMARK  Name = *****
REMARK                            x       y       z     vdW  Elec       q    Type
REMARK                         _______ _______ _______ _____ _____    ______ ____
ROOT
ATOM      1  C   LIG    1       26.075 -13.648   3.604  0.00  0.00    +0.127 C 
ATOM      2  C   LIG    1       24.972 -12.782   3.019  0.00  0.00    +0.234 C 
ATOM      3  O   LIG    1       24.720 -12.728   1.817  0.00  0.00    -0.274 OA
ATOM      4  N   LIG    1       24.208 -12.086   3.899  0.00  0.00    -0.266 N 
ATOM      5  H   LIG    1       23.436 -11.551   3.526  0.00  0.00    +0.157 HD
ATOM      6  C   LIG    1       24.322 -12.239   5.236  0.00  0.00    +0.150 C 
ATOM      7  N   LIG    1       25.247 -12.877   5.838  0.00  0.00    -0.158 NA
ATOM      8  C   LIG    1       26.279 -13.403   5.100  0.00  0.00    +0.254 C 
ATOM      9  O   LIG    1       27.332 -13.713   5.645  0.00  0.00    -0.273 OA
ENDROOT
BRANCH   1  10
ATOM     10  C   LIG    1       25.706 -15.169   3.353  0.00  0.00    +0.010 C 
ATOM     11  C   LIG    1       26.906 -16.116   3.537  0.00  0.00    +0.009 C 
BRANCH  10  12
ATOM     12  C   LIG    1       24.503 -15.663   4.209  0.00  0.00    +0.004 C 
BRANCH  12  14
ATOM     13  C   LIG    1       22.696 -17.445   4.181  0.00  0.00    +0.004 C 
ATOM     14  C   LIG    1       24.182 -17.154   4.024  0.00  0.00    -0.003 C 
ENDBRANCH  12  14
ENDBRANCH  10  12
ENDBRANCH   1  10
BRANCH   1  15
ATOM     15  C   LIG    1       27.386 -13.260   2.849  0.00  0.00    +0.022 C 
ATOM     16  C   LIG    1       28.410 -12.487   3.682  0.00  0.00    +0.005 C 
ENDBRANCH   1  15
BRANCH   6  17
ATOM     17  S   LIG    1       23.047 -11.477   6.122  0.00  0.00    -0.110 S 
ATOM     18  H   LIG    1       23.860 -10.733   6.887  0.00  0.00    +0.110 HD
ENDBRANCH   6  17
TORSDOF 5
ENDMDL
