MODEL 1
REMARK VINA RESULT:      -0.3      0.000      0.000
REMARK  Name = *****
REMARK                            x       y       z     vdW  Elec       q    Type
REMARK                         _______ _______ _______ _____ _____    ______ ____
ROOT
ATOM      1  C   LIG    1       26.088 -18.955   4.827  0.00  0.00    +0.049 C 
ATOM      2  C   LIG    1       26.449 -17.628   4.208  0.00  0.00    +0.264 C 
ATOM      3  O   LIG    1       27.647 -17.351   4.141  0.00  0.00    -0.267 OA
ATOM      4  N   LIG    1       25.369 -16.832   3.748  0.00  0.00    -0.283 N 
ATOM      5  C   LIG    1       24.083 -17.386   3.707  0.00  0.00    +0.104 C 
ATOM      6  C   LIG    1       23.773 -18.623   4.139  0.00  0.00    +0.018 C 
ATOM      7  C   LIG    1       24.824 -19.397   4.769  0.00  0.00    +0.025 C 
ENDROOT
BRANCH   1   9
ATOM      8  C   LIG    1       26.788 -20.824   6.393  0.00  0.00    +0.060 A 
ATOM      9  C   LIG    1       27.110 -19.763   5.528  0.00  0.00    +0.005 A 
ATOM     10  C   LIG    1       28.465 -19.438   5.330  0.00  0.00    +0.010 A 
ATOM     11  C   LIG    1       29.474 -20.148   5.985  0.00  0.00    +0.001 A 
ATOM     12  C   LIG    1       29.148 -21.185   6.853  0.00  0.00    +0.001 A 
ATOM     13  C   LIG    1       27.811 -21.522   7.058  0.00  0.00    +0.019 A 
BRANCH   8  15
ATOM     14  N   LIG    1       24.340 -21.538   6.873  0.00  0.00    -0.191 NA
ATOM     15  C   LIG    1       25.430 -21.222   6.634  0.00  0.00    +0.100 C 
ENDBRANCH   8  15
ENDBRANCH   1   9
BRANCH   4  16
ATOM     16  C   LIG    1       25.609 -15.464   3.292  0.00  0.00    +0.050 A 
ATOM     17  C   LIG    1       24.589 -14.491   3.295  0.00  0.00    +0.026 A 
ATOM     18  C   LIG    1       24.823 -13.168   2.890  0.00  0.00    +0.002 A 
ATOM     19  C   LIG    1       26.086 -12.780   2.464  0.00  0.00    +0.000 A 
ATOM     20  C   LIG    1       27.114 -13.714   2.451  0.00  0.00    +0.002 A 
ATOM     21  C   LIG    1       26.877 -15.032   2.865  0.00  0.00    +0.026 A 
ENDBRANCH   4  16
BRANCH   6  22
ATOM     22  C   LIG    1       22.365 -19.097   3.995  0.00  0.00    +0.072 A 
ATOM     23  N   LIG    1       22.083 -20.341   4.458  0.00  0.00    -0.255 NA
ATOM     24  C   LIG    1       20.807 -20.779   4.360  0.00  0.00    +0.111 A 
ATOM     25  C   LIG    1       19.777 -20.032   3.818  0.00  0.00    +0.020 A 
ATOM     26  C   LIG    1       20.072 -18.760   3.349  0.00  0.00    +0.004 A 
ATOM     27  C   LIG    1       21.379 -18.282   3.439  0.00  0.00    +0.028 A 
ENDBRANCH   6  22
TORSDOF 4
ENDMDL
MODEL 2
REMARK VINA RESULT:       2.6      1.388      5.407
REMARK  Name = *****
REMARK                            x       y       z     vdW  Elec       q    Type
REMARK                         _______ _______ _______ _____ _____    ______ ____
ROOT
ATOM      1  C   LIG    1       23.808 -18.446   4.329  0.00  0.00    +0.049 C 
ATOM      2  C   LIG    1       24.168 -17.030   3.955  0.00  0.00    +0.264 C 
ATOM      3  O   LIG    1       23.237 -16.271   3.684  0.00  0.00    -0.267 OA
ATOM      4  N   LIG    1       25.549 -16.706   3.966  0.00  0.00    -0.283 N 
ATOM      5  C   LIG    1       26.461 -17.626   4.502  0.00  0.00    +0.104 C 
ATOM      6  C   LIG    1       26.129 -18.847   4.961  0.00  0.00    +0.018 C 
ATOM      7  C   LIG    1       24.751 -19.271   4.808  0.00  0.00    +0.025 C 
ENDROOT
BRANCH   1   9
ATOM      8  C   LIG    1       21.963 -20.143   4.722  0.00  0.00    +0.060 A 
ATOM      9  C   LIG    1       22.428 -18.947   4.145  0.00  0.00    +0.005 A 
ATOM     10  C   LIG    1       21.551 -18.198   3.339  0.00  0.00    +0.010 A 
ATOM     11  C   LIG    1       20.244 -18.633   3.107  0.00  0.00    +0.001 A 
ATOM     12  C   LIG    1       19.796 -19.826   3.666  0.00  0.00    +0.001 A 
ATOM     13  C   LIG    1       20.652 -20.579   4.470  0.00  0.00    +0.019 A 
BRANCH   8  15
ATOM     14  N   LIG    1       23.485 -21.569   6.265  0.00  0.00    -0.191 NA
ATOM     15  C   LIG    1       22.796 -20.953   5.565  0.00  0.00    +0.100 C 
ENDBRANCH   8  15
ENDBRANCH   1   9
BRANCH   4  16
ATOM     16  C   LIG    1       26.003 -15.415   3.455  0.00  0.00    +0.050 A 
ATOM     17  C   LIG    1       25.121 -14.516   2.821  0.00  0.00    +0.026 A 
ATOM     18  C   LIG    1       25.545 -13.260   2.359  0.00  0.00    +0.002 A 
ATOM     19  C   LIG    1       26.867 -12.868   2.513  0.00  0.00    +0.000 A 
ATOM     20  C   LIG    1       27.762 -13.730   3.135  0.00  0.00    +0.002 A 
ATOM     21  C   LIG    1       27.332 -14.979   3.604  0.00  0.00    +0.026 A 
ENDBRANCH   4  16
BRANCH   6  22
ATOM     22  C   LIG    1       27.201 -19.706   5.544  0.00  0.00    +0.072 A 
ATOM     23  N   LIG    1       28.485 -19.341   5.295  0.00  0.00    -0.255 NA
ATOM     24  C   LIG    1       29.472 -20.092   5.835  0.00  0.00    +0.111 A 
ATOM     25  C   LIG    1       29.248 -21.205   6.625  0.00  0.00    +0.020 A 
ATOM     26  C   LIG    1       27.933 -21.571   6.876  0.00  0.00    +0.004 A 
ATOM     27  C   LIG    1       26.895 -20.813   6.333  0.00  0.00    +0.028 A 
ENDBRANCH   6  22
TORSDOF 4
ENDMDL
