MODEL 1
REMARK VINA RESULT:      -8.5      0.000      0.000
REMARK  Name = *****
REMARK                            x       y       z     vdW  Elec       q    Type
REMARK                         _______ _______ _______ _____ _____    ______ ____
ROOT
ATOM      1  P   LIG    1       26.612 -21.122   7.789  0.00  0.00    +0.363 P 
ATOM      2  O   LIG    1       26.631 -20.402   9.105  0.00  0.00    -0.256 OA
ENDROOT
BRANCH   1   3
ATOM      3  C   LIG    1       25.826 -22.745   7.802  0.00  0.00    +0.287 C 
BRANCH   3   4
ATOM      4  O   LIG    1       26.248 -23.466   6.641  0.00  0.00    -0.363 OA
BRANCH   4   5
ATOM      5  C   LIG    1       25.357 -24.524   6.258  0.00  0.00    +0.136 C 
ATOM      6  C   LIG    1       23.922 -24.232   6.726  0.00  0.00    +0.039 C 
BRANCH   5   7
ATOM      7  C   LIG    1       25.878 -25.824   6.897  0.00  0.00    +0.156 C 
BRANCH   7   8
ATOM      8  N   LIG    1       25.219 -27.034   6.436  0.00  0.00    -0.312 N 
ATOM      9  C   LIG    1       25.231 -28.253   7.061  0.00  0.00    +0.165 A 
ATOM     10  N   LIG    1       25.734 -28.565   8.267  0.00  0.00    -0.216 NA
ATOM     11  C   LIG    1       25.572 -29.882   8.523  0.00  0.00    +0.225 A 
ATOM     12  N   LIG    1       25.033 -30.838   7.733  0.00  0.00    -0.219 NA
ATOM     13  C   LIG    1       24.541 -30.467   6.531  0.00  0.00    +0.147 A 
ATOM     14  C   LIG    1       24.626 -29.116   6.162  0.00  0.00    +0.147 A 
ATOM     15  N   LIG    1       24.234 -28.451   5.022  0.00  0.00    -0.231 NA
ATOM     16  C   LIG    1       24.571 -27.197   5.237  0.00  0.00    +0.201 A 
BRANCH  13  17
ATOM     17  N   LIG    1       24.003 -31.435   5.689  0.00  0.00    -0.341 N 
ATOM     18  H   LIG    1       24.243 -32.375   5.985  0.00  0.00    +0.144 HD
ATOM     19  H   LIG    1       23.033 -31.252   5.468  0.00  0.00    +0.144 HD
ENDBRANCH  13  17
ENDBRANCH   7   8
ENDBRANCH   5   7
ENDBRANCH   4   5
ENDBRANCH   3   4
ENDBRANCH   1   3
BRANCH   1  20
ATOM     20  O   LIG    1       28.056 -21.365   7.122  0.00  0.00    -0.268 OA
BRANCH  20  21
ATOM     21  C   LIG    1       29.105 -20.562   7.610  0.00  0.00    +0.410 C 
BRANCH  21  22
ATOM     22  O   LIG    1       30.001 -21.336   8.396  0.00  0.00    -0.406 OA
BRANCH  22  23
ATOM     23  C   LIG    1       30.986 -20.620   9.017  0.00  0.00    +0.512 C 
ATOM     24  O   LIG    1       32.122 -20.975   9.224  0.00  0.00    -0.203 OA
BRANCH  23  25
ATOM     25  O   LIG    1       30.419 -19.430   9.339  0.00  0.00    -0.431 OA
BRANCH  25  26
ATOM     26  C   LIG    1       31.298 -18.407   9.828  0.00  0.00    +0.174 C 
ATOM     27  C   LIG    1       30.451 -17.494  10.707  0.00  0.00    +0.052 C 
ATOM     28  C   LIG    1       31.897 -17.645   8.654  0.00  0.00    +0.052 C 
ENDBRANCH  25  26
ENDBRANCH  23  25
ENDBRANCH  22  23
ENDBRANCH  21  22
ENDBRANCH  20  21
ENDBRANCH   1  20
BRANCH   1  29
ATOM     29  O   LIG    1       25.857 -20.306   6.620  0.00  0.00    -0.268 OA
BRANCH  29  30
ATOM     30  C   LIG    1       26.555 -20.164   5.400  0.00  0.00    +0.410 C 
BRANCH  30  31
ATOM     31  O   LIG    1       25.700 -20.473   4.303  0.00  0.00    -0.406 OA
BRANCH  31  32
ATOM     32  C   LIG    1       25.137 -19.394   3.715  0.00  0.00    +0.512 C 
ATOM     33  O   LIG    1       25.702 -18.337   3.469  0.00  0.00    -0.203 OA
BRANCH  32  34
ATOM     34  O   LIG    1       23.816 -19.643   3.533  0.00  0.00    -0.431 OA
BRANCH  34  36
ATOM     35  C   LIG    1       21.902 -18.355   4.398  0.00  0.00    +0.052 C 
ATOM     36  C   LIG    1       22.985 -19.392   4.679  0.00  0.00    +0.174 C 
ATOM     37  C   LIG    1       22.360 -20.724   5.080  0.00  0.00    +0.052 C 
ENDBRANCH  34  36
ENDBRANCH  32  34
ENDBRANCH  31  32
ENDBRANCH  30  31
ENDBRANCH  29  30
ENDBRANCH   1  29
TORSDOF 18
ENDMDL
MODEL 2
REMARK VINA RESULT:      -8.2      4.487      8.859
REMARK  Name = *****
REMARK                            x       y       z     vdW  Elec       q    Type
REMARK                         _______ _______ _______ _____ _____    ______ ____
ROOT
ATOM      1  P   LIG    1       25.049 -24.678   6.168  0.00  0.00    +0.363 P 
ATOM      2  O   LIG    1       25.031 -24.279   4.722  0.00  0.00    -0.256 OA
ENDROOT
BRANCH   1   3
ATOM      3  C   LIG    1       26.147 -23.718   7.227  0.00  0.00    +0.287 C 
BRANCH   3   4
ATOM      4  O   LIG    1       26.095 -22.348   6.819  0.00  0.00    -0.363 OA
BRANCH   4   5
ATOM      5  C   LIG    1       27.166 -21.546   7.337  0.00  0.00    +0.136 C 
ATOM      6  C   LIG    1       26.623 -20.370   8.165  0.00  0.00    +0.039 C 
BRANCH   5   7
ATOM      7  C   LIG    1       27.981 -21.029   6.137  0.00  0.00    +0.156 C 
BRANCH   7   8
ATOM      8  N   LIG    1       29.029 -20.082   6.477  0.00  0.00    -0.312 N 
ATOM      9  C   LIG    1       29.956 -20.221   7.476  0.00  0.00    +0.165 A 
ATOM     10  N   LIG    1       30.179 -21.288   8.260  0.00  0.00    -0.216 NA
ATOM     11  C   LIG    1       31.169 -21.030   9.144  0.00  0.00    +0.225 A 
ATOM     12  N   LIG    1       31.867 -19.885   9.322  0.00  0.00    -0.219 NA
ATOM     13  C   LIG    1       31.601 -18.844   8.503  0.00  0.00    +0.147 A 
ATOM     14  C   LIG    1       30.611 -19.001   7.522  0.00  0.00    +0.147 A 
ATOM     15  N   LIG    1       30.117 -18.136   6.571  0.00  0.00    -0.231 NA
ATOM     16  C   LIG    1       29.196 -18.831   5.937  0.00  0.00    +0.201 A 
BRANCH  13  17
ATOM     17  N   LIG    1       32.289 -17.648   8.679  0.00  0.00    -0.341 N 
ATOM     18  H   LIG    1       31.812 -17.026   9.324  0.00  0.00    +0.144 HD
ATOM     19  H   LIG    1       33.279 -17.793   8.822  0.00  0.00    +0.144 HD
ENDBRANCH  13  17
ENDBRANCH   7   8
ENDBRANCH   5   7
ENDBRANCH   4   5
ENDBRANCH   3   4
ENDBRANCH   1   3
BRANCH   1  20
ATOM     20  O   LIG    1       25.438 -26.214   6.448  0.00  0.00    -0.268 OA
BRANCH  20  21
ATOM     21  C   LIG    1       24.564 -27.181   5.914  0.00  0.00    +0.410 C 
BRANCH  21  22
ATOM     22  O   LIG    1       25.298 -28.257   5.348  0.00  0.00    -0.406 OA
BRANCH  22  23
ATOM     23  C   LIG    1       24.992 -29.490   5.853  0.00  0.00    +0.512 C 
ATOM     24  O   LIG    1       25.224 -30.562   5.345  0.00  0.00    -0.203 OA
BRANCH  23  25
ATOM     25  O   LIG    1       24.384 -29.252   7.042  0.00  0.00    -0.431 OA
BRANCH  25  26
ATOM     26  C   LIG    1       24.910 -29.940   8.186  0.00  0.00    +0.174 C 
ATOM     27  C   LIG    1       23.729 -30.203   9.112  0.00  0.00    +0.052 C 
ATOM     28  C   LIG    1       25.963 -29.073   8.863  0.00  0.00    +0.052 C 
ENDBRANCH  25  26
ENDBRANCH  23  25
ENDBRANCH  22  23
ENDBRANCH  21  22
ENDBRANCH  20  21
ENDBRANCH   1  20
BRANCH   1  29
ATOM     29  O   LIG    1       23.603 -24.584   6.878  0.00  0.00    -0.268 OA
BRANCH  29  30
ATOM     30  C   LIG    1       22.791 -23.487   6.510  0.00  0.00    +0.410 C 
BRANCH  30  31
ATOM     31  O   LIG    1       22.794 -22.503   7.541  0.00  0.00    -0.406 OA
BRANCH  31  32
ATOM     32  C   LIG    1       23.118 -21.259   7.122  0.00  0.00    +0.512 C 
ATOM     33  O   LIG    1       23.441 -20.324   7.842  0.00  0.00    -0.203 OA
BRANCH  32  34
ATOM     34  O   LIG    1       22.929 -21.194   5.781  0.00  0.00    -0.431 OA
BRANCH  34  36
ATOM     35  C   LIG    1       24.445 -20.544   3.951  0.00  0.00    +0.052 C 
ATOM     36  C   LIG    1       23.583 -20.094   5.125  0.00  0.00    +0.174 C 
ATOM     37  C   LIG    1       22.490 -19.141   4.653  0.00  0.00    +0.052 C 
ENDBRANCH  34  36
ENDBRANCH  32  34
ENDBRANCH  31  32
ENDBRANCH  30  31
ENDBRANCH  29  30
ENDBRANCH   1  29
TORSDOF 18
ENDMDL
MODEL 3
REMARK VINA RESULT:      -8.2      4.366      9.068
REMARK  Name = *****
REMARK                            x       y       z     vdW  Elec       q    Type
REMARK                         _______ _______ _______ _____ _____    ______ ____
ROOT
ATOM      1  P   LIG    1       24.623 -24.038   6.007  0.00  0.00    +0.363 P 
ATOM      2  O   LIG    1       23.418 -24.130   6.895  0.00  0.00    -0.256 OA
ENDROOT
BRANCH   1   3
ATOM      3  C   LIG    1       26.180 -23.682   6.842  0.00  0.00    +0.287 C 
BRANCH   3   4
ATOM      4  O   LIG    1       25.906 -22.908   8.013  0.00  0.00    -0.363 OA
BRANCH   4   5
ATOM      5  C   LIG    1       26.820 -21.823   8.221  0.00  0.00    +0.136 C 
ATOM      6  C   LIG    1       26.068 -20.527   8.567  0.00  0.00    +0.039 C 
BRANCH   5   7
ATOM      7  C   LIG    1       27.632 -21.645   6.925  0.00  0.00    +0.156 C 
BRANCH   7   8
ATOM      8  N   LIG    1       28.682 -20.643   6.998  0.00  0.00    -0.312 N 
ATOM      9  C   LIG    1       29.768 -20.665   7.832  0.00  0.00    +0.165 A 
ATOM     10  N   LIG    1       30.163 -21.648   8.657  0.00  0.00    -0.216 NA
ATOM     11  C   LIG    1       31.275 -21.283   9.334  0.00  0.00    +0.225 A 
ATOM     12  N   LIG    1       31.945 -20.109   9.290  0.00  0.00    -0.219 NA
ATOM     13  C   LIG    1       31.503 -19.156   8.440  0.00  0.00    +0.147 A 
ATOM     14  C   LIG    1       30.370 -19.429   7.660  0.00  0.00    +0.147 A 
ATOM     15  N   LIG    1       29.689 -18.669   6.735  0.00  0.00    -0.231 NA
ATOM     16  C   LIG    1       28.705 -19.443   6.330  0.00  0.00    +0.201 A 
BRANCH  13  17
ATOM     17  N   LIG    1       32.160 -17.930   8.393  0.00  0.00    -0.341 N 
ATOM     18  H   LIG    1       32.986 -17.917   8.981  0.00  0.00    +0.144 HD
ATOM     19  H   LIG    1       32.259 -17.586   7.447  0.00  0.00    +0.144 HD
ENDBRANCH  13  17
ENDBRANCH   7   8
ENDBRANCH   5   7
ENDBRANCH   4   5
ENDBRANCH   3   4
ENDBRANCH   1   3
BRANCH   1  20
ATOM     20  O   LIG    1       24.523 -22.944   4.831  0.00  0.00    -0.268 OA
BRANCH  20  21
ATOM     21  C   LIG    1       24.697 -21.601   5.218  0.00  0.00    +0.410 C 
BRANCH  21  22
ATOM     22  O   LIG    1       23.640 -21.188   6.073  0.00  0.00    -0.406 OA
BRANCH  22  23
ATOM     23  C   LIG    1       22.517 -20.751   5.427  0.00  0.00    +0.512 C 
ATOM     24  O   LIG    1       21.689 -21.430   4.869  0.00  0.00    -0.203 OA
BRANCH  23  25
ATOM     25  O   LIG    1       22.530 -19.400   5.555  0.00  0.00    -0.431 OA
BRANCH  25  26
ATOM     26  C   LIG    1       22.431 -18.635   4.346  0.00  0.00    +0.174 C 
ATOM     27  C   LIG    1       23.770 -18.779   3.633  0.00  0.00    +0.052 C 
ATOM     28  C   LIG    1       22.138 -17.180   4.685  0.00  0.00    +0.052 C 
ENDBRANCH  25  26
ENDBRANCH  23  25
ENDBRANCH  22  23
ENDBRANCH  21  22
ENDBRANCH  20  21
ENDBRANCH   1  20
BRANCH   1  29
ATOM     29  O   LIG    1       24.904 -25.384   5.163  0.00  0.00    -0.268 OA
BRANCH  29  30
ATOM     30  C   LIG    1       24.501 -26.598   5.763  0.00  0.00    +0.410 C 
BRANCH  30  31
ATOM     31  O   LIG    1       25.205 -27.693   5.182  0.00  0.00    -0.406 OA
BRANCH  31  32
ATOM     32  C   LIG    1       25.127 -28.843   5.888  0.00  0.00    +0.512 C 
ATOM     33  O   LIG    1       25.204 -29.973   5.425  0.00  0.00    -0.203 OA
BRANCH  32  34
ATOM     34  O   LIG    1       24.850 -28.536   7.180  0.00  0.00    -0.431 OA
BRANCH  34  36
ATOM     35  C   LIG    1       26.219 -28.908   9.195  0.00  0.00    +0.052 C 
ATOM     36  C   LIG    1       25.289 -29.507   8.145  0.00  0.00    +0.174 C 
ATOM     37  C   LIG    1       24.039 -30.083   8.802  0.00  0.00    +0.052 C 
ENDBRANCH  34  36
ENDBRANCH  32  34
ENDBRANCH  31  32
ENDBRANCH  30  31
ENDBRANCH  29  30
ENDBRANCH   1  29
TORSDOF 18
ENDMDL
MODEL 4
REMARK VINA RESULT:      -7.8      1.554      2.361
REMARK  Name = *****
REMARK                            x       y       z     vdW  Elec       q    Type
REMARK                         _______ _______ _______ _____ _____    ______ ____
ROOT
ATOM      1  P   LIG    1       26.163 -22.078   7.719  0.00  0.00    +0.363 P 
ATOM      2  O   LIG    1       27.145 -21.775   8.811  0.00  0.00    -0.256 OA
ENDROOT
BRANCH   1   3
ATOM      3  C   LIG    1       26.227 -23.754   7.057  0.00  0.00    +0.287 C 
BRANCH   3   4
ATOM      4  O   LIG    1       25.609 -23.761   5.767  0.00  0.00    -0.363 OA
BRANCH   4   5
ATOM      5  C   LIG    1       24.846 -24.945   5.494  0.00  0.00    +0.136 C 
ATOM      6  C   LIG    1       23.644 -25.058   6.446  0.00  0.00    +0.039 C 
BRANCH   5   7
ATOM      7  C   LIG    1       25.786 -26.153   5.666  0.00  0.00    +0.156 C 
BRANCH   7   8
ATOM      8  N   LIG    1       25.131 -27.374   6.103  0.00  0.00    -0.312 N 
ATOM      9  C   LIG    1       25.425 -28.094   7.231  0.00  0.00    +0.165 A 
ATOM     10  N   LIG    1       26.271 -27.775   8.224  0.00  0.00    -0.216 NA
ATOM     11  C   LIG    1       26.303 -28.755   9.154  0.00  0.00    +0.225 A 
ATOM     12  N   LIG    1       25.649 -29.939   9.159  0.00  0.00    -0.219 NA
ATOM     13  C   LIG    1       24.809 -30.205   8.135  0.00  0.00    +0.147 A 
ATOM     14  C   LIG    1       24.668 -29.249   7.119  0.00  0.00    +0.147 A 
ATOM     15  N   LIG    1       23.916 -29.240   5.965  0.00  0.00    -0.231 NA
ATOM     16  C   LIG    1       24.190 -28.084   5.400  0.00  0.00    +0.201 A 
BRANCH  13  17
ATOM     17  N   LIG    1       24.142 -31.426   8.104  0.00  0.00    -0.341 N 
ATOM     18  H   LIG    1       23.253 -31.363   7.618  0.00  0.00    +0.144 HD
ATOM     19  H   LIG    1       24.754 -32.190   7.852  0.00  0.00    +0.144 HD
ENDBRANCH  13  17
ENDBRANCH   7   8
ENDBRANCH   5   7
ENDBRANCH   4   5
ENDBRANCH   3   4
ENDBRANCH   1   3
BRANCH   1  20
ATOM     20  O   LIG    1       26.257 -21.119   6.430  0.00  0.00    -0.268 OA
BRANCH  20  21
ATOM     21  C   LIG    1       27.153 -20.036   6.529  0.00  0.00    +0.410 C 
BRANCH  21  22
ATOM     22  O   LIG    1       28.421 -20.388   5.993  0.00  0.00    -0.406 OA
BRANCH  22  23
ATOM     23  C   LIG    1       29.475 -19.677   6.496  0.00  0.00    +0.512 C 
ATOM     24  O   LIG    1       30.092 -18.801   5.939  0.00  0.00    -0.203 OA
BRANCH  23  25
ATOM     25  O   LIG    1       29.669 -20.158   7.750  0.00  0.00    -0.431 OA
BRANCH  25  26
ATOM     26  C   LIG    1       31.025 -20.236   8.208  0.00  0.00    +0.174 C 
ATOM     27  C   LIG    1       31.146 -21.546   8.978  0.00  0.00    +0.052 C 
ATOM     28  C   LIG    1       31.333 -19.040   9.099  0.00  0.00    +0.052 C 
ENDBRANCH  25  26
ENDBRANCH  23  25
ENDBRANCH  22  23
ENDBRANCH  21  22
ENDBRANCH  20  21
ENDBRANCH   1  20
BRANCH   1  29
ATOM     29  O   LIG    1       24.625 -21.866   8.159  0.00  0.00    -0.268 OA
BRANCH  29  30
ATOM     30  C   LIG    1       23.861 -20.977   7.369  0.00  0.00    +0.410 C 
BRANCH  30  31
ATOM     31  O   LIG    1       22.973 -21.705   6.526  0.00  0.00    -0.406 OA
BRANCH  31  32
ATOM     32  C   LIG    1       22.454 -20.983   5.508  0.00  0.00    +0.512 C 
ATOM     33  O   LIG    1       21.577 -21.356   4.741  0.00  0.00    -0.203 OA
BRANCH  32  34
ATOM     34  O   LIG    1       23.136 -19.814   5.418  0.00  0.00    -0.431 OA
BRANCH  34  36
ATOM     35  C   LIG    1       22.244 -17.752   4.408  0.00  0.00    +0.052 C 
ATOM     36  C   LIG    1       22.945 -19.089   4.192  0.00  0.00    +0.174 C 
ATOM     37  C   LIG    1       24.325 -18.878   3.577  0.00  0.00    +0.052 C 
ENDBRANCH  34  36
ENDBRANCH  32  34
ENDBRANCH  31  32
ENDBRANCH  30  31
ENDBRANCH  29  30
ENDBRANCH   1  29
TORSDOF 18
ENDMDL
MODEL 5
REMARK VINA RESULT:      -7.6      4.709      9.604
REMARK  Name = *****
REMARK                            x       y       z     vdW  Elec       q    Type
REMARK                         _______ _______ _______ _____ _____    ______ ____
ROOT
ATOM      1  P   LIG    1       25.104 -22.595   6.952  0.00  0.00    +0.363 P 
ATOM      2  O   LIG    1       25.722 -23.475   7.997  0.00  0.00    -0.256 OA
ENDROOT
BRANCH   1   3
ATOM      3  C   LIG    1       26.075 -21.154   6.474  0.00  0.00    +0.287 C 
BRANCH   3   4
ATOM      4  O   LIG    1       26.877 -20.752   7.589  0.00  0.00    -0.363 OA
BRANCH   4   5
ATOM      5  C   LIG    1       28.004 -19.940   7.232  0.00  0.00    +0.136 C 
ATOM      6  C   LIG    1       28.209 -19.920   5.708  0.00  0.00    +0.039 C 
BRANCH   5   7
ATOM      7  C   LIG    1       29.242 -20.528   7.934  0.00  0.00    +0.156 C 
BRANCH   7   8
ATOM      8  N   LIG    1       30.354 -19.604   8.082  0.00  0.00    -0.312 N 
ATOM      9  C   LIG    1       30.489 -18.647   9.052  0.00  0.00    +0.165 A 
ATOM     10  N   LIG    1       29.712 -18.435  10.127  0.00  0.00    -0.216 NA
ATOM     11  C   LIG    1       30.161 -17.377  10.838  0.00  0.00    +0.225 A 
ATOM     12  N   LIG    1       31.206 -16.561  10.571  0.00  0.00    -0.219 NA
ATOM     13  C   LIG    1       31.955 -16.823   9.478  0.00  0.00    +0.147 A 
ATOM     14  C   LIG    1       31.604 -17.916   8.672  0.00  0.00    +0.147 A 
ATOM     15  N   LIG    1       32.153 -18.415   7.512  0.00  0.00    -0.231 NA
ATOM     16  C   LIG    1       31.400 -19.450   7.208  0.00  0.00    +0.201 A 
BRANCH  13  17
ATOM     17  N   LIG    1       33.022 -15.985   9.168  0.00  0.00    -0.341 N 
ATOM     18  H   LIG    1       33.335 -16.104   8.210  0.00  0.00    +0.144 HD
ATOM     19  H   LIG    1       32.871 -15.039   9.492  0.00  0.00    +0.144 HD
ENDBRANCH  13  17
ENDBRANCH   7   8
ENDBRANCH   5   7
ENDBRANCH   4   5
ENDBRANCH   3   4
ENDBRANCH   1   3
BRANCH   1  20
ATOM     20  O   LIG    1       23.650 -22.011   7.323  0.00  0.00    -0.268 OA
BRANCH  20  21
ATOM     21  C   LIG    1       23.375 -20.705   6.875  0.00  0.00    +0.410 C 
BRANCH  21  22
ATOM     22  O   LIG    1       22.454 -20.733   5.793  0.00  0.00    -0.406 OA
BRANCH  22  23
ATOM     23  C   LIG    1       22.502 -19.642   4.969  0.00  0.00    +0.512 C 
ATOM     24  O   LIG    1       21.564 -19.054   4.487  0.00  0.00    -0.203 OA
BRANCH  23  25
ATOM     25  O   LIG    1       23.821 -19.361   4.820  0.00  0.00    -0.431 OA
BRANCH  25  26
ATOM     26  C   LIG    1       24.316 -19.281   3.476  0.00  0.00    +0.174 C 
ATOM     27  C   LIG    1       24.708 -20.698   3.074  0.00  0.00    +0.052 C 
ATOM     28  C   LIG    1       25.513 -18.341   3.428  0.00  0.00    +0.052 C 
ENDBRANCH  25  26
ENDBRANCH  23  25
ENDBRANCH  22  23
ENDBRANCH  21  22
ENDBRANCH  20  21
ENDBRANCH   1  20
BRANCH   1  29
ATOM     29  O   LIG    1       24.792 -23.361   5.568  0.00  0.00    -0.268 OA
BRANCH  29  30
ATOM     30  C   LIG    1       25.394 -24.629   5.401  0.00  0.00    +0.410 C 
BRANCH  30  31
ATOM     31  O   LIG    1       24.501 -25.658   5.820  0.00  0.00    -0.406 OA
BRANCH  31  32
ATOM     32  C   LIG    1       25.094 -26.667   6.497  0.00  0.00    +0.512 C 
ATOM     33  O   LIG    1       26.205 -26.630   7.007  0.00  0.00    -0.203 OA
BRANCH  32  34
ATOM     34  O   LIG    1       24.291 -27.758   6.430  0.00  0.00    -0.431 OA
BRANCH  34  36
ATOM     35  C   LIG    1       24.279 -29.666   7.990  0.00  0.00    +0.052 C 
ATOM     36  C   LIG    1       24.923 -29.003   6.777  0.00  0.00    +0.174 C 
ATOM     37  C   LIG    1       24.826 -29.910   5.555  0.00  0.00    +0.052 C 
ENDBRANCH  34  36
ENDBRANCH  32  34
ENDBRANCH  31  32
ENDBRANCH  30  31
ENDBRANCH  29  30
ENDBRANCH   1  29
TORSDOF 18
ENDMDL
MODEL 6
REMARK VINA RESULT:      -7.4      2.515      6.213
REMARK  Name = *****
REMARK                            x       y       z     vdW  Elec       q    Type
REMARK                         _______ _______ _______ _____ _____    ______ ____
ROOT
ATOM      1  P   LIG    1       24.647 -24.757   5.884  0.00  0.00    +0.363 P 
ATOM      2  O   LIG    1       24.772 -23.799   4.737  0.00  0.00    -0.256 OA
ENDROOT
BRANCH   1   3
ATOM      3  C   LIG    1       24.519 -26.498   5.433  0.00  0.00    +0.287 C 
BRANCH   3   4
ATOM      4  O   LIG    1       24.410 -27.274   6.629  0.00  0.00    -0.363 OA
BRANCH   4   5
ATOM      5  C   LIG    1       25.177 -28.487   6.607  0.00  0.00    +0.136 C 
ATOM      6  C   LIG    1       24.999 -29.228   5.272  0.00  0.00    +0.039 C 
BRANCH   5   7
ATOM      7  C   LIG    1       24.695 -29.362   7.779  0.00  0.00    +0.156 C 
BRANCH   7   8
ATOM      8  N   LIG    1       25.563 -29.351   8.944  0.00  0.00    -0.312 N 
ATOM      9  C   LIG    1       25.393 -30.081  10.090  0.00  0.00    +0.165 A 
ATOM     10  N   LIG    1       24.484 -31.038  10.339  0.00  0.00    -0.216 NA
ATOM     11  C   LIG    1       24.624 -31.510  11.598  0.00  0.00    +0.225 A 
ATOM     12  N   LIG    1       25.492 -31.117  12.558  0.00  0.00    -0.219 NA
ATOM     13  C   LIG    1       26.386 -30.152  12.250  0.00  0.00    +0.147 A 
ATOM     14  C   LIG    1       26.359 -29.602  10.960  0.00  0.00    +0.147 A 
ATOM     15  N   LIG    1       27.116 -28.616  10.367  0.00  0.00    -0.231 NA
ATOM     16  C   LIG    1       26.636 -28.519   9.146  0.00  0.00    +0.201 A 
BRANCH  13  17
ATOM     17  N   LIG    1       27.275 -29.713  13.226  0.00  0.00    -0.341 N 
ATOM     18  H   LIG    1       26.986 -29.990  14.158  0.00  0.00    +0.144 HD
ATOM     19  H   LIG    1       28.239 -29.885  12.970  0.00  0.00    +0.144 HD
ENDBRANCH  13  17
ENDBRANCH   7   8
ENDBRANCH   5   7
ENDBRANCH   4   5
ENDBRANCH   3   4
ENDBRANCH   1   3
BRANCH   1  20
ATOM     20  O   LIG    1       23.400 -24.490   6.865  0.00  0.00    -0.268 OA
BRANCH  20  21
ATOM     21  C   LIG    1       22.580 -23.392   6.539  0.00  0.00    +0.410 C 
BRANCH  21  22
ATOM     22  O   LIG    1       22.684 -22.380   7.531  0.00  0.00    -0.406 OA
BRANCH  22  23
ATOM     23  C   LIG    1       23.283 -21.225   7.113  0.00  0.00    +0.512 C 
ATOM     24  O   LIG    1       24.047 -20.533   7.743  0.00  0.00    -0.203 OA
BRANCH  23  25
ATOM     25  O   LIG    1       22.843 -21.029   5.845  0.00  0.00    -0.431 OA
BRANCH  25  26
ATOM     26  C   LIG    1       23.448 -19.956   5.109  0.00  0.00    +0.174 C 
ATOM     27  C   LIG    1       22.315 -19.030   4.685  0.00  0.00    +0.052 C 
ATOM     28  C   LIG    1       24.185 -20.519   3.901  0.00  0.00    +0.052 C 
ENDBRANCH  25  26
ENDBRANCH  23  25
ENDBRANCH  22  23
ENDBRANCH  21  22
ENDBRANCH  20  21
ENDBRANCH   1  20
BRANCH   1  29
ATOM     29  O   LIG    1       25.883 -24.688   6.918  0.00  0.00    -0.268 OA
BRANCH  29  30
ATOM     30  C   LIG    1       26.000 -23.504   7.681  0.00  0.00    +0.410 C 
BRANCH  30  31
ATOM     31  O   LIG    1       26.810 -22.553   6.995  0.00  0.00    -0.406 OA
BRANCH  31  32
ATOM     32  C   LIG    1       27.457 -21.686   7.806  0.00  0.00    +0.512 C 
ATOM     33  O   LIG    1       27.001 -21.182   8.823  0.00  0.00    -0.203 OA
BRANCH  32  34
ATOM     34  O   LIG    1       28.659 -21.392   7.249  0.00  0.00    -0.431 OA
BRANCH  34  36
ATOM     35  C   LIG    1       30.368 -19.646   6.936  0.00  0.00    +0.052 C 
ATOM     36  C   LIG    1       28.885 -19.996   6.988  0.00  0.00    +0.174 C 
ATOM     37  C   LIG    1       28.212 -19.675   5.658  0.00  0.00    +0.052 C 
ENDBRANCH  34  36
ENDBRANCH  32  34
ENDBRANCH  31  32
ENDBRANCH  30  31
ENDBRANCH  29  30
ENDBRANCH   1  29
TORSDOF 18
ENDMDL
MODEL 7
REMARK VINA RESULT:      -7.0      1.579      2.751
REMARK  Name = *****
REMARK                            x       y       z     vdW  Elec       q    Type
REMARK                         _______ _______ _______ _____ _____    ______ ____
ROOT
ATOM      1  P   LIG    1       25.110 -23.004   7.031  0.00  0.00    +0.363 P 
ATOM      2  O   LIG    1       23.625 -22.974   6.823  0.00  0.00    -0.256 OA
ENDROOT
BRANCH   1   3
ATOM      3  C   LIG    1       25.865 -24.640   7.014  0.00  0.00    +0.287 C 
BRANCH   3   4
ATOM      4  O   LIG    1       24.913 -25.579   6.507  0.00  0.00    -0.363 OA
BRANCH   4   5
ATOM      5  C   LIG    1       25.477 -26.853   6.165  0.00  0.00    +0.136 C 
ATOM      6  C   LIG    1       25.930 -26.878   4.696  0.00  0.00    +0.039 C 
BRANCH   5   7
ATOM      7  C   LIG    1       24.397 -27.921   6.415  0.00  0.00    +0.156 C 
BRANCH   7   8
ATOM      8  N   LIG    1       24.880 -29.138   7.046  0.00  0.00    -0.312 N 
ATOM      9  C   LIG    1       25.280 -30.280   6.405  0.00  0.00    +0.165 A 
ATOM     10  N   LIG    1       25.432 -30.485   5.087  0.00  0.00    -0.216 NA
ATOM     11  C   LIG    1       25.823 -31.756   4.845  0.00  0.00    +0.225 A 
ATOM     12  N   LIG    1       26.022 -32.763   5.726  0.00  0.00    -0.219 NA
ATOM     13  C   LIG    1       25.857 -32.499   7.040  0.00  0.00    +0.147 A 
ATOM     14  C   LIG    1       25.478 -31.203   7.420  0.00  0.00    +0.147 A 
ATOM     15  N   LIG    1       25.224 -30.646   8.654  0.00  0.00    -0.231 NA
ATOM     16  C   LIG    1       24.906 -29.396   8.394  0.00  0.00    +0.201 A 
BRANCH  13  17
ATOM     17  N   LIG    1       26.032 -33.523   7.966  0.00  0.00    -0.341 N 
ATOM     18  H   LIG    1       26.314 -34.392   7.525  0.00  0.00    +0.144 HD
ATOM     19  H   LIG    1       26.559 -33.221   8.775  0.00  0.00    +0.144 HD
ENDBRANCH  13  17
ENDBRANCH   7   8
ENDBRANCH   5   7
ENDBRANCH   4   5
ENDBRANCH   3   4
ENDBRANCH   1   3
BRANCH   1  20
ATOM     20  O   LIG    1       25.621 -22.324   8.397  0.00  0.00    -0.268 OA
BRANCH  20  21
ATOM     21  C   LIG    1       26.282 -21.087   8.263  0.00  0.00    +0.410 C 
BRANCH  21  22
ATOM     22  O   LIG    1       27.681 -21.246   8.451  0.00  0.00    -0.406 OA
BRANCH  22  23
ATOM     23  C   LIG    1       28.459 -20.379   7.736  0.00  0.00    +0.512 C 
ATOM     24  O   LIG    1       28.339 -20.088   6.570  0.00  0.00    -0.203 OA
BRANCH  23  25
ATOM     25  O   LIG    1       29.382 -19.914   8.615  0.00  0.00    -0.431 OA
BRANCH  25  26
ATOM     26  C   LIG    1       30.760 -20.133   8.281  0.00  0.00    +0.174 C 
ATOM     27  C   LIG    1       31.172 -21.426   8.973  0.00  0.00    +0.052 C 
ATOM     28  C   LIG    1       31.596 -18.955   8.764  0.00  0.00    +0.052 C 
ENDBRANCH  25  26
ENDBRANCH  23  25
ENDBRANCH  22  23
ENDBRANCH  21  22
ENDBRANCH  20  21
ENDBRANCH   1  20
BRANCH   1  29
ATOM     29  O   LIG    1       25.931 -22.157   5.930  0.00  0.00    -0.268 OA
BRANCH  29  30
ATOM     30  C   LIG    1       25.163 -21.477   4.958  0.00  0.00    +0.410 C 
BRANCH  30  31
ATOM     31  O   LIG    1       25.545 -20.105   4.898  0.00  0.00    -0.406 OA
BRANCH  31  32
ATOM     32  C   LIG    1       24.944 -19.403   3.912  0.00  0.00    +0.512 C 
ATOM     33  O   LIG    1       25.410 -18.424   3.345  0.00  0.00    -0.203 OA
BRANCH  32  34
ATOM     34  O   LIG    1       23.698 -19.904   3.725  0.00  0.00    -0.431 OA
BRANCH  34  36
ATOM     35  C   LIG    1       22.037 -18.228   4.436  0.00  0.00    +0.052 C 
ATOM     36  C   LIG    1       22.739 -19.548   4.737  0.00  0.00    +0.174 C 
ATOM     37  C   LIG    1       21.728 -20.687   4.816  0.00  0.00    +0.052 C 
ENDBRANCH  34  36
ENDBRANCH  32  34
ENDBRANCH  31  32
ENDBRANCH  30  31
ENDBRANCH  29  30
ENDBRANCH   1  29
TORSDOF 18
ENDMDL
MODEL 8
REMARK VINA RESULT:      -6.9      2.194      5.878
REMARK  Name = *****
REMARK                            x       y       z     vdW  Elec       q    Type
REMARK                         _______ _______ _______ _____ _____    ______ ____
ROOT
ATOM      1  P   LIG    1       24.755 -24.072   6.003  0.00  0.00    +0.363 P 
ATOM      2  O   LIG    1       24.704 -23.186   4.794  0.00  0.00    -0.256 OA
ENDROOT
BRANCH   1   3
ATOM      3  C   LIG    1       24.400 -25.814   5.707  0.00  0.00    +0.287 C 
BRANCH   3   4
ATOM      4  O   LIG    1       25.091 -26.595   6.685  0.00  0.00    -0.363 OA
BRANCH   4   5
ATOM      5  C   LIG    1       25.741 -27.757   6.148  0.00  0.00    +0.136 C 
ATOM      6  C   LIG    1       26.370 -27.453   4.778  0.00  0.00    +0.039 C 
BRANCH   5   7
ATOM      7  C   LIG    1       24.680 -28.865   6.021  0.00  0.00    +0.156 C 
BRANCH   7   8
ATOM      8  N   LIG    1       24.682 -29.835   7.103  0.00  0.00    -0.312 N 
ATOM      9  C   LIG    1       24.136 -31.091   7.067  0.00  0.00    +0.165 A 
ATOM     10  N   LIG    1       23.605 -31.738   6.016  0.00  0.00    -0.216 NA
ATOM     11  C   LIG    1       23.151 -32.956   6.388  0.00  0.00    +0.225 A 
ATOM     12  N   LIG    1       23.148 -33.519   7.617  0.00  0.00    -0.219 NA
ATOM     13  C   LIG    1       23.698 -32.824   8.637  0.00  0.00    +0.147 A 
ATOM     14  C   LIG    1       24.230 -31.554   8.370  0.00  0.00    +0.147 A 
ATOM     15  N   LIG    1       24.830 -30.620   9.185  0.00  0.00    -0.231 NA
ATOM     16  C   LIG    1       25.122 -29.618   8.384  0.00  0.00    +0.201 A 
BRANCH  13  17
ATOM     17  N   LIG    1       23.687 -33.370   9.916  0.00  0.00    -0.341 N 
ATOM     18  H   LIG    1       23.027 -34.137   9.998  0.00  0.00    +0.144 HD
ATOM     19  H   LIG    1       24.620 -33.521  10.276  0.00  0.00    +0.144 HD
ENDBRANCH  13  17
ENDBRANCH   7   8
ENDBRANCH   5   7
ENDBRANCH   4   5
ENDBRANCH   3   4
ENDBRANCH   1   3
BRANCH   1  20
ATOM     20  O   LIG    1       23.772 -23.646   7.204  0.00  0.00    -0.268 OA
BRANCH  20  21
ATOM     21  C   LIG    1       22.715 -22.780   6.861  0.00  0.00    +0.410 C 
BRANCH  21  22
ATOM     22  O   LIG    1       22.881 -21.517   7.492  0.00  0.00    -0.406 OA
BRANCH  22  23
ATOM     23  C   LIG    1       23.582 -20.598   6.762  0.00  0.00    +0.512 C 
ATOM     24  O   LIG    1       24.674 -20.148   7.016  0.00  0.00    -0.203 OA
BRANCH  23  25
ATOM     25  O   LIG    1       22.796 -20.311   5.694  0.00  0.00    -0.431 OA
BRANCH  25  26
ATOM     26  C   LIG    1       23.277 -19.308   4.788  0.00  0.00    +0.174 C 
ATOM     27  C   LIG    1       22.060 -18.506   4.345  0.00  0.00    +0.052 C 
ATOM     28  C   LIG    1       23.962 -19.976   3.604  0.00  0.00    +0.052 C 
ENDBRANCH  25  26
ENDBRANCH  23  25
ENDBRANCH  22  23
ENDBRANCH  21  22
ENDBRANCH  20  21
ENDBRANCH   1  20
BRANCH   1  29
ATOM     29  O   LIG    1       26.186 -24.062   6.748  0.00  0.00    -0.268 OA
BRANCH  29  30
ATOM     30  C   LIG    1       26.468 -22.937   7.555  0.00  0.00    +0.410 C 
BRANCH  30  31
ATOM     31  O   LIG    1       27.151 -21.944   6.795  0.00  0.00    -0.406 OA
BRANCH  31  32
ATOM     32  C   LIG    1       28.253 -21.442   7.396  0.00  0.00    +0.512 C 
ATOM     33  O   LIG    1       28.475 -21.447   8.599  0.00  0.00    -0.203 OA
BRANCH  32  34
ATOM     34  O   LIG    1       29.023 -20.844   6.453  0.00  0.00    -0.431 OA
BRANCH  34  36
ATOM     35  C   LIG    1       30.979 -19.489   7.091  0.00  0.00    +0.052 C 
ATOM     36  C   LIG    1       29.485 -19.524   6.790  0.00  0.00    +0.174 C 
ATOM     37  C   LIG    1       29.155 -18.619   5.608  0.00  0.00    +0.052 C 
ENDBRANCH  34  36
ENDBRANCH  32  34
ENDBRANCH  31  32
ENDBRANCH  30  31
ENDBRANCH  29  30
ENDBRANCH   1  29
TORSDOF 18
ENDMDL
MODEL 9
REMARK VINA RESULT:      -6.8      4.975     10.027
REMARK  Name = *****
REMARK                            x       y       z     vdW  Elec       q    Type
REMARK                         _______ _______ _______ _____ _____    ______ ____
ROOT
ATOM      1  P   LIG    1       25.917 -26.832   6.078  0.00  0.00    +0.363 P 
ATOM      2  O   LIG    1       26.684 -27.475   4.960  0.00  0.00    -0.256 OA
ENDROOT
BRANCH   1   3
ATOM      3  C   LIG    1       25.661 -25.055   5.925  0.00  0.00    +0.287 C 
BRANCH   3   4
ATOM      4  O   LIG    1       24.267 -24.778   6.083  0.00  0.00    -0.363 OA
BRANCH   4   5
ATOM      5  C   LIG    1       23.992 -23.565   6.799  0.00  0.00    +0.136 C 
ATOM      6  C   LIG    1       22.486 -23.258   6.806  0.00  0.00    +0.039 C 
BRANCH   5   7
ATOM      7  C   LIG    1       24.771 -22.431   6.108  0.00  0.00    +0.156 C 
BRANCH   7   8
ATOM      8  N   LIG    1       25.809 -21.822   6.922  0.00  0.00    -0.312 N 
ATOM      9  C   LIG    1       26.737 -20.907   6.502  0.00  0.00    +0.165 A 
ATOM     10  N   LIG    1       26.817 -20.289   5.312  0.00  0.00    -0.216 NA
ATOM     11  C   LIG    1       27.891 -19.469   5.273  0.00  0.00    +0.225 A 
ATOM     12  N   LIG    1       28.831 -19.260   6.223  0.00  0.00    -0.219 NA
ATOM     13  C   LIG    1       28.698 -19.906   7.402  0.00  0.00    +0.147 A 
ATOM     14  C   LIG    1       27.604 -20.767   7.574  0.00  0.00    +0.147 A 
ATOM     15  N   LIG    1       27.216 -21.558   8.632  0.00  0.00    -0.231 NA
ATOM     16  C   LIG    1       26.115 -22.147   8.220  0.00  0.00    +0.201 A 
BRANCH  13  17
ATOM     17  N   LIG    1       29.663 -19.726   8.388  0.00  0.00    -0.341 N 
ATOM     18  H   LIG    1       29.275 -19.805   9.322  0.00  0.00    +0.144 HD
ATOM     19  H   LIG    1       30.510 -20.244   8.193  0.00  0.00    +0.144 HD
ENDBRANCH  13  17
ENDBRANCH   7   8
ENDBRANCH   5   7
ENDBRANCH   4   5
ENDBRANCH   3   4
ENDBRANCH   1   3
BRANCH   1  20
ATOM     20  O   LIG    1       26.548 -27.037   7.544  0.00  0.00    -0.268 OA
BRANCH  20  21
ATOM     21  C   LIG    1       26.093 -28.161   8.262  0.00  0.00    +0.410 C 
BRANCH  21  22
ATOM     22  O   LIG    1       27.006 -28.492   9.299  0.00  0.00    -0.406 OA
BRANCH  22  23
ATOM     23  C   LIG    1       26.950 -29.792   9.720  0.00  0.00    +0.512 C 
ATOM     24  O   LIG    1       27.817 -30.409  10.292  0.00  0.00    -0.203 OA
BRANCH  23  25
ATOM     25  O   LIG    1       25.716 -30.232   9.367  0.00  0.00    -0.431 OA
BRANCH  25  26
ATOM     26  C   LIG    1       25.046 -31.093  10.299  0.00  0.00    +0.174 C 
ATOM     27  C   LIG    1       24.697 -32.365   9.538  0.00  0.00    +0.052 C 
ATOM     28  C   LIG    1       23.795 -30.400  10.824  0.00  0.00    +0.052 C 
ENDBRANCH  25  26
ENDBRANCH  23  25
ENDBRANCH  22  23
ENDBRANCH  21  22
ENDBRANCH  20  21
ENDBRANCH   1  20
BRANCH   1  29
ATOM     29  O   LIG    1       24.439 -27.448   6.281  0.00  0.00    -0.268 OA
BRANCH  29  30
ATOM     30  C   LIG    1       24.155 -28.645   5.586  0.00  0.00    +0.410 C 
BRANCH  30  31
ATOM     31  O   LIG    1       23.671 -29.636   6.489  0.00  0.00    -0.406 OA
BRANCH  31  32
ATOM     32  C   LIG    1       24.019 -30.901   6.165  0.00  0.00    +0.512 C 
ATOM     33  O   LIG    1       23.262 -31.861   6.118  0.00  0.00    -0.203 OA
BRANCH  32  34
ATOM     34  O   LIG    1       25.365 -30.948   6.000  0.00  0.00    -0.431 OA
BRANCH  34  36
ATOM     35  C   LIG    1       26.282 -32.465   4.289  0.00  0.00    +0.052 C 
ATOM     36  C   LIG    1       25.904 -32.257   5.752  0.00  0.00    +0.174 C 
ATOM     37  C   LIG    1       27.127 -32.416   6.649  0.00  0.00    +0.052 C 
ENDBRANCH  34  36
ENDBRANCH  32  34
ENDBRANCH  31  32
ENDBRANCH  30  31
ENDBRANCH  29  30
ENDBRANCH   1  29
TORSDOF 18
ENDMDL
