MODEL 1
REMARK VINA RESULT:      -4.8      0.000      0.000
REMARK  Name = *****
REMARK                            x       y       z     vdW  Elec       q    Type
REMARK                         _______ _______ _______ _____ _____    ______ ____
ROOT
ATOM      1  N   LIG    1       24.936 -20.384   4.611  0.00  0.00    -0.140 N 
ATOM      2  C   LIG    1       25.870 -20.579   5.636  0.00  0.00    +0.324 C 
ATOM      3  N   LIG    1       27.165 -20.192   5.355  0.00  0.00    -0.297 N 
ATOM      4  H   LIG    1       27.422 -20.085   4.382  0.00  0.00    +0.150 HD
ATOM      5  O   LIG    1       25.583 -21.075   6.719  0.00  0.00    -0.251 OA
ENDROOT
BRANCH   1   7
ATOM      6  O   LIG    1       25.462 -18.510   3.542  0.00  0.00    -0.126 OA
ATOM      7  N   LIG    1       25.322 -19.731   3.432  0.00  0.00    +0.053 NA
ENDBRANCH   1   7
BRANCH   3   8
ATOM      8  C   LIG    1       28.255 -20.489   6.270  0.00  0.00    +0.121 C 
BRANCH   8   9
ATOM      9  C   LIG    1       29.183 -19.297   6.490  0.00  0.00    +0.127 C 
ATOM     10 CL   LIG    1       29.077 -18.148   5.125  0.00  0.00    -0.124 Cl
ENDBRANCH   8   9
ENDBRANCH   3   8
BRANCH   1  11
ATOM     11  C   LIG    1       23.554 -20.834   4.816  0.00  0.00    +0.155 C 
BRANCH  11  12
ATOM     12  C   LIG    1       22.705 -19.761   5.497  0.00  0.00    +0.130 C 
ATOM     13 CL   LIG    1       22.093 -18.581   4.316  0.00  0.00    -0.124 Cl
ENDBRANCH  11  12
ENDBRANCH   1  11
TORSDOF 5
ENDMDL
MODEL 2
REMARK VINA RESULT:      -4.1      1.460      2.272
REMARK  Name = *****
REMARK                            x       y       z     vdW  Elec       q    Type
REMARK                         _______ _______ _______ _____ _____    ______ ____
ROOT
ATOM      1  N   LIG    1       24.863 -20.361   4.462  0.00  0.00    -0.140 N 
ATOM      2  C   LIG    1       26.040 -19.605   4.403  0.00  0.00    +0.324 C 
ATOM      3  N   LIG    1       27.100 -20.075   5.154  0.00  0.00    -0.297 N 
ATOM      4  H   LIG    1       26.892 -20.722   5.904  0.00  0.00    +0.150 HD
ATOM      5  O   LIG    1       26.144 -18.576   3.745  0.00  0.00    -0.251 OA
ENDROOT
BRANCH   1   7
ATOM      6  O   LIG    1       24.841 -21.452   6.397  0.00  0.00    -0.126 OA
ATOM      7  N   LIG    1       24.849 -21.572   5.169  0.00  0.00    +0.053 NA
ENDBRANCH   1   7
BRANCH   3   8
ATOM      8  C   LIG    1       28.319 -19.298   5.306  0.00  0.00    +0.121 C 
BRANCH   8   9
ATOM      9  C   LIG    1       29.126 -19.700   6.538  0.00  0.00    +0.127 C 
ATOM     10 CL   LIG    1       28.704 -21.355   7.062  0.00  0.00    -0.124 Cl
ENDBRANCH   8   9
ENDBRANCH   3   8
BRANCH   1  11
ATOM     11  C   LIG    1       23.677 -19.883   3.743  0.00  0.00    +0.155 C 
BRANCH  11  12
ATOM     12  C   LIG    1       22.509 -19.616   4.692  0.00  0.00    +0.130 C 
ATOM     13 CL   LIG    1       22.124 -17.880   4.761  0.00  0.00    -0.124 Cl
ENDBRANCH  11  12
ENDBRANCH   1  11
TORSDOF 5
ENDMDL
MODEL 3
REMARK VINA RESULT:      -3.7      3.027      3.393
REMARK  Name = *****
REMARK                            x       y       z     vdW  Elec       q    Type
REMARK                         _______ _______ _______ _____ _____    ______ ____
ROOT
ATOM      1  N   LIG    1       23.586 -19.749   4.087  0.00  0.00    -0.140 N 
ATOM      2  C   LIG    1       24.863 -19.186   3.972  0.00  0.00    +0.324 C 
ATOM      3  N   LIG    1       24.907 -17.855   3.607  0.00  0.00    -0.297 N 
ATOM      4  H   LIG    1       24.085 -17.463   3.166  0.00  0.00    +0.150 HD
ATOM      5  O   LIG    1       25.894 -19.820   4.163  0.00  0.00    -0.251 OA
ENDROOT
BRANCH   1   7
ATOM      6  O   LIG    1       22.315 -18.078   4.812  0.00  0.00    -0.126 OA
ATOM      7  N   LIG    1       22.452 -18.937   3.937  0.00  0.00    +0.053 NA
ENDBRANCH   1   7
BRANCH   3   8
ATOM      8  C   LIG    1       26.167 -17.200   3.298  0.00  0.00    +0.121 C 
BRANCH   8   9
ATOM      9  C   LIG    1       26.060 -15.677   3.309  0.00  0.00    +0.127 C 
ATOM     10 CL   LIG    1       27.538 -14.941   3.993  0.00  0.00    -0.124 Cl
ENDBRANCH   8   9
ENDBRANCH   3   8
BRANCH   1  11
ATOM     11  C   LIG    1       23.465 -21.176   4.405  0.00  0.00    +0.155 C 
BRANCH  11  12
ATOM     12  C   LIG    1       22.711 -21.402   5.714  0.00  0.00    +0.130 C 
ATOM     13 CL   LIG    1       23.494 -20.545   7.062  0.00  0.00    -0.124 Cl
ENDBRANCH  11  12
ENDBRANCH   1  11
TORSDOF 5
ENDMDL
MODEL 4
REMARK VINA RESULT:      -3.6      5.035      5.443
REMARK  Name = *****
REMARK                            x       y       z     vdW  Elec       q    Type
REMARK                         _______ _______ _______ _____ _____    ______ ____
ROOT
ATOM      1  N   LIG    1       27.029 -14.437   3.467  0.00  0.00    -0.140 N 
ATOM      2  C   LIG    1       27.007 -15.829   3.616  0.00  0.00    +0.324 C 
ATOM      3  N   LIG    1       27.988 -16.366   4.427  0.00  0.00    -0.297 N 
ATOM      4  H   LIG    1       28.807 -15.801   4.609  0.00  0.00    +0.150 HD
ATOM      5  O   LIG    1       26.186 -16.550   3.060  0.00  0.00    -0.251 OA
ENDROOT
BRANCH   1   7
ATOM      6  O   LIG    1       28.956 -13.340   3.583  0.00  0.00    -0.126 OA
ATOM      7  N   LIG    1       27.944 -13.673   4.205  0.00  0.00    +0.053 NA
ENDBRANCH   1   7
BRANCH   3   8
ATOM      8  C   LIG    1       28.172 -17.804   4.533  0.00  0.00    +0.121 C 
BRANCH   8   9
ATOM      9  C   LIG    1       29.283 -18.186   5.509  0.00  0.00    +0.127 C 
ATOM     10 CL   LIG    1       28.945 -19.767   6.269  0.00  0.00    -0.124 Cl
ENDBRANCH   8   9
ENDBRANCH   3   8
BRANCH   1  11
ATOM     11  C   LIG    1       26.058 -13.805   2.567  0.00  0.00    +0.155 C 
BRANCH  11  12
ATOM     12  C   LIG    1       24.949 -13.093   3.342  0.00  0.00    +0.130 C 
ATOM     13 CL   LIG    1       23.836 -14.262   4.088  0.00  0.00    -0.124 Cl
ENDBRANCH  11  12
ENDBRANCH   1  11
TORSDOF 5
ENDMDL
MODEL 5
REMARK VINA RESULT:      -3.5      1.130      4.735
REMARK  Name = *****
REMARK                            x       y       z     vdW  Elec       q    Type
REMARK                         _______ _______ _______ _____ _____    ______ ____
ROOT
ATOM      1  N   LIG    1       26.189 -20.413   5.780  0.00  0.00    -0.140 N 
ATOM      2  C   LIG    1       24.918 -20.954   6.009  0.00  0.00    +0.324 C 
ATOM      3  N   LIG    1       24.013 -20.830   4.974  0.00  0.00    -0.297 N 
ATOM      4  H   LIG    1       24.200 -20.128   4.270  0.00  0.00    +0.150 HD
ATOM      5  O   LIG    1       24.599 -21.495   7.062  0.00  0.00    -0.251 OA
ENDROOT
BRANCH   1   7
ATOM      6  O   LIG    1       25.810 -18.928   4.173  0.00  0.00    -0.126 OA
ATOM      7  N   LIG    1       26.505 -19.887   4.520  0.00  0.00    +0.053 NA
ENDBRANCH   1   7
BRANCH   3   8
ATOM      8  C   LIG    1       22.618 -21.204   5.144  0.00  0.00    +0.121 C 
BRANCH   8   9
ATOM      9  C   LIG    1       21.656 -20.194   4.521  0.00  0.00    +0.127 C 
ATOM     10 CL   LIG    1       22.379 -18.561   4.494  0.00  0.00    -0.124 Cl
ENDBRANCH   8   9
ENDBRANCH   3   8
BRANCH   1  11
ATOM     11  C   LIG    1       27.180 -20.449   6.862  0.00  0.00    +0.155 C 
BRANCH  11  12
ATOM     12  C   LIG    1       28.609 -20.448   6.320  0.00  0.00    +0.130 C 
ATOM     13 CL   LIG    1       29.299 -18.808   6.335  0.00  0.00    -0.124 Cl
ENDBRANCH  11  12
ENDBRANCH   1  11
TORSDOF 5
ENDMDL
MODEL 6
REMARK VINA RESULT:      -3.4      4.234      6.150
REMARK  Name = *****
REMARK                            x       y       z     vdW  Elec       q    Type
REMARK                         _______ _______ _______ _____ _____    ______ ____
ROOT
ATOM      1  N   LIG    1       25.610 -15.366   3.638  0.00  0.00    -0.140 N 
ATOM      2  C   LIG    1       25.373 -16.731   3.429  0.00  0.00    +0.324 C 
ATOM      3  N   LIG    1       24.130 -17.195   3.809  0.00  0.00    -0.297 N 
ATOM      4  H   LIG    1       23.600 -16.633   4.463  0.00  0.00    +0.150 HD
ATOM      5  O   LIG    1       26.209 -17.491   2.953  0.00  0.00    -0.251 OA
ENDROOT
BRANCH   1   7
ATOM      6  O   LIG    1       23.924 -13.983   3.222  0.00  0.00    -0.126 OA
ATOM      7  N   LIG    1       24.575 -14.545   4.106  0.00  0.00    +0.053 NA
ENDBRANCH   1   7
BRANCH   3   8
ATOM      8  C   LIG    1       23.818 -18.614   3.794  0.00  0.00    +0.121 C 
BRANCH   8   9
ATOM      9  C   LIG    1       22.511 -18.940   4.514  0.00  0.00    +0.127 C 
ATOM     10 CL   LIG    1       22.801 -20.040   5.891  0.00  0.00    -0.124 Cl
ENDBRANCH   8   9
ENDBRANCH   3   8
BRANCH   1  11
ATOM     11  C   LIG    1       26.933 -14.819   3.320  0.00  0.00    +0.155 C 
BRANCH  11  12
ATOM     12  C   LIG    1       27.342 -13.720   4.300  0.00  0.00    +0.130 C 
ATOM     13 CL   LIG    1       28.885 -12.976   3.822  0.00  0.00    -0.124 Cl
ENDBRANCH  11  12
ENDBRANCH   1  11
TORSDOF 5
ENDMDL
MODEL 7
REMARK VINA RESULT:      -3.2      4.689      6.214
REMARK  Name = *****
REMARK                            x       y       z     vdW  Elec       q    Type
REMARK                         _______ _______ _______ _____ _____    ______ ____
ROOT
ATOM      1  N   LIG    1       25.237 -14.535   3.618  0.00  0.00    -0.140 N 
ATOM      2  C   LIG    1       25.858 -15.770   3.392  0.00  0.00    +0.324 C 
ATOM      3  N   LIG    1       25.037 -16.879   3.441  0.00  0.00    -0.297 N 
ATOM      4  H   LIG    1       24.148 -16.783   3.914  0.00  0.00    +0.150 HD
ATOM      5  O   LIG    1       27.059 -15.886   3.177  0.00  0.00    -0.251 OA
ENDROOT
BRANCH   1   7
ATOM      6  O   LIG    1       23.434 -14.810   4.885  0.00  0.00    -0.126 OA
ATOM      7  N   LIG    1       23.844 -14.476   3.771  0.00  0.00    +0.053 NA
ENDBRANCH   1   7
BRANCH   3   8
ATOM      8  C   LIG    1       25.584 -18.224   3.383  0.00  0.00    +0.121 C 
BRANCH   8   9
ATOM      9  C   LIG    1       24.554 -19.296   3.736  0.00  0.00    +0.127 C 
ATOM     10 CL   LIG    1       22.963 -18.560   4.080  0.00  0.00    -0.124 Cl
ENDBRANCH   8   9
ENDBRANCH   3   8
BRANCH   1  11
ATOM     11  C   LIG    1       26.060 -13.322   3.648  0.00  0.00    +0.155 C 
BRANCH  11  12
ATOM     12  C   LIG    1       27.097 -13.369   4.770  0.00  0.00    +0.130 C 
ATOM     13 CL   LIG    1       28.692 -12.833   4.192  0.00  0.00    -0.124 Cl
ENDBRANCH  11  12
ENDBRANCH   1  11
TORSDOF 5
ENDMDL
MODEL 8
REMARK VINA RESULT:      -3.1      4.379      5.608
REMARK  Name = *****
REMARK                            x       y       z     vdW  Elec       q    Type
REMARK                         _______ _______ _______ _____ _____    ______ ____
ROOT
ATOM      1  N   LIG    1       26.824 -15.322   3.309  0.00  0.00    -0.140 N 
ATOM      2  C   LIG    1       26.946 -16.673   3.656  0.00  0.00    +0.324 C 
ATOM      3  N   LIG    1       25.949 -17.509   3.192  0.00  0.00    -0.297 N 
ATOM      4  H   LIG    1       25.075 -17.085   2.910  0.00  0.00    +0.150 HD
ATOM      5  O   LIG    1       27.864 -17.108   4.342  0.00  0.00    -0.251 OA
ENDROOT
BRANCH   1   7
ATOM      6  O   LIG    1       26.031 -13.885   1.812  0.00  0.00    -0.126 OA
ATOM      7  N   LIG    1       25.794 -14.915   2.449  0.00  0.00    +0.053 NA
ENDBRANCH   1   7
BRANCH   3   8
ATOM      8  C   LIG    1       25.873 -18.897   3.616  0.00  0.00    +0.121 C 
BRANCH   8   9
ATOM      9  C   LIG    1       24.441 -19.428   3.647  0.00  0.00    +0.127 C 
ATOM     10 CL   LIG    1       24.212 -20.558   5.012  0.00  0.00    -0.124 Cl
ENDBRANCH   8   9
ENDBRANCH   3   8
BRANCH   1  11
ATOM     11  C   LIG    1       27.810 -14.365   3.824  0.00  0.00    +0.155 C 
BRANCH  11  12
ATOM     12  C   LIG    1       27.362 -13.749   5.148  0.00  0.00    +0.130 C 
ATOM     13 CL   LIG    1       25.690 -13.149   5.043  0.00  0.00    -0.124 Cl
ENDBRANCH  11  12
ENDBRANCH   1  11
TORSDOF 5
ENDMDL
MODEL 9
REMARK VINA RESULT:      -3.1      2.707      4.918
REMARK  Name = *****
REMARK                            x       y       z     vdW  Elec       q    Type
REMARK                         _______ _______ _______ _____ _____    ______ ____
ROOT
ATOM      1  N   LIG    1       23.713 -20.745   5.050  0.00  0.00    -0.140 N 
ATOM      2  C   LIG    1       23.613 -19.459   4.507  0.00  0.00    +0.324 C 
ATOM      3  N   LIG    1       22.396 -18.827   4.668  0.00  0.00    -0.297 N 
ATOM      4  H   LIG    1       21.593 -19.404   4.880  0.00  0.00    +0.150 HD
ATOM      5  O   LIG    1       24.531 -18.911   3.907  0.00  0.00    -0.251 OA
ENDROOT
BRANCH   1   7
ATOM      6  O   LIG    1       21.652 -21.566   5.135  0.00  0.00    -0.126 OA
ATOM      7  N   LIG    1       22.649 -21.269   5.798  0.00  0.00    +0.053 NA
ENDBRANCH   1   7
BRANCH   3   8
ATOM      8  C   LIG    1       22.112 -17.560   4.013  0.00  0.00    +0.121 C 
BRANCH   8   9
ATOM      9  C   LIG    1       22.195 -16.371   4.967  0.00  0.00    +0.127 C 
ATOM     10 CL   LIG    1       23.292 -15.116   4.322  0.00  0.00    -0.124 Cl
ENDBRANCH   8   9
ENDBRANCH   3   8
BRANCH   1  11
ATOM     11  C   LIG    1       24.955 -21.502   4.857  0.00  0.00    +0.155 C 
BRANCH  11  12
ATOM     12  C   LIG    1       25.781 -21.572   6.141  0.00  0.00    +0.130 C 
ATOM     13 CL   LIG    1       27.008 -20.285   6.185  0.00  0.00    -0.124 Cl
ENDBRANCH  11  12
ENDBRANCH   1  11
TORSDOF 5
ENDMDL
