MODEL 1
REMARK VINA RESULT:      -4.8      0.000      0.000
REMARK  Name = *****
REMARK                            x       y       z     vdW  Elec       q    Type
REMARK                         _______ _______ _______ _____ _____    ______ ____
ROOT
ATOM      1  C   LIG    1       24.672 -20.450   4.469  0.00  0.00    +0.039 C 
ATOM      2  C   LIG    1       24.022 -21.571   3.611  0.00  0.00    +0.018 C 
ENDROOT
BRANCH   1   3
ATOM      3  C   LIG    1       23.536 -19.713   5.326  0.00  0.00    -0.002 C 
ATOM      4  C   LIG    1       23.190 -20.497   6.606  0.00  0.00    +0.008 C 
BRANCH   3   6
ATOM      5  C   LIG    1       22.012 -17.757   4.513  0.00  0.00    +0.004 C 
ATOM      6  C   LIG    1       22.249 -19.277   4.562  0.00  0.00    +0.000 C 
ENDBRANCH   3   6
ENDBRANCH   1   3
BRANCH   1   7
ATOM      7  C   LIG    1       25.713 -21.125   5.418  0.00  0.00    +0.244 C 
BRANCH   7   8
ATOM      8  O   LIG    1       26.478 -20.089   6.062  0.00  0.00    -0.450 OA
BRANCH   8   9
ATOM      9  C   LIG    1       27.776 -20.373   6.309  0.00  0.00    +0.398 C 
ATOM     10  O   LIG    1       28.748 -19.784   5.878  0.00  0.00    -0.227 OA
ATOM     11  N   LIG    1       27.854 -21.496   7.061  0.00  0.00    -0.295 N 
ATOM     12  H   LIG    1       28.753 -21.935   7.183  0.00  0.00    +0.148 HD
ATOM     13  H   LIG    1       27.008 -21.965   7.351  0.00  0.00    +0.148 HD
ENDBRANCH   8   9
ENDBRANCH   7   8
ENDBRANCH   1   7
BRANCH   1  14
ATOM     14  C   LIG    1       25.441 -19.555   3.467  0.00  0.00    +0.244 C 
BRANCH  14  15
ATOM     15  O   LIG    1       25.074 -18.186   3.635  0.00  0.00    -0.450 OA
BRANCH  15  16
ATOM     16  C   LIG    1       26.073 -17.283   3.456  0.00  0.00    +0.398 C 
ATOM     17  O   LIG    1       26.030 -16.212   2.919  0.00  0.00    -0.227 OA
ATOM     18  N   LIG    1       27.196 -17.841   3.985  0.00  0.00    -0.295 N 
ATOM     19  H   LIG    1       28.019 -17.263   4.089  0.00  0.00    +0.148 HD
ATOM     20  H   LIG    1       27.147 -18.746   4.465  0.00  0.00    +0.148 HD
ENDBRANCH  15  16
ENDBRANCH  14  15
ENDBRANCH   1  14
TORSDOF 8
ENDMDL
MODEL 2
REMARK VINA RESULT:      -4.7      3.854      5.726
REMARK  Name = *****
REMARK                            x       y       z     vdW  Elec       q    Type
REMARK                         _______ _______ _______ _____ _____    ______ ____
ROOT
ATOM      1  C   LIG    1       25.830 -14.502   3.530  0.00  0.00    +0.039 C 
ATOM      2  C   LIG    1       26.107 -13.707   2.223  0.00  0.00    +0.018 C 
ENDROOT
BRANCH   1   3
ATOM      3  C   LIG    1       24.618 -13.814   4.322  0.00  0.00    -0.002 C 
ATOM      4  C   LIG    1       23.439 -14.786   4.513  0.00  0.00    +0.008 C 
BRANCH   3   6
ATOM      5  C   LIG    1       23.685 -11.447   4.897  0.00  0.00    +0.004 C 
ATOM      6  C   LIG    1       24.134 -12.428   3.800  0.00  0.00    +0.000 C 
ENDBRANCH   3   6
ENDBRANCH   1   3
BRANCH   1   7
ATOM      7  C   LIG    1       25.449 -15.961   3.121  0.00  0.00    +0.244 C 
BRANCH   7   8
ATOM      8  O   LIG    1       26.586 -16.811   3.364  0.00  0.00    -0.450 OA
BRANCH   8   9
ATOM      9  C   LIG    1       26.314 -18.100   3.666  0.00  0.00    +0.398 C 
ATOM     10  O   LIG    1       25.303 -18.717   3.391  0.00  0.00    -0.227 OA
ATOM     11  N   LIG    1       27.319 -18.606   4.419  0.00  0.00    -0.295 N 
ATOM     12  H   LIG    1       27.184 -19.498   4.869  0.00  0.00    +0.148 HD
ATOM     13  H   LIG    1       28.113 -18.028   4.650  0.00  0.00    +0.148 HD
ENDBRANCH   8   9
ENDBRANCH   7   8
ENDBRANCH   1   7
BRANCH   1  14
ATOM     14  C   LIG    1       27.182 -14.548   4.282  0.00  0.00    +0.244 C 
BRANCH  14  15
ATOM     15  O   LIG    1       27.498 -13.265   4.821  0.00  0.00    -0.450 OA
BRANCH  15  16
ATOM     16  C   LIG    1       28.707 -12.758   4.465  0.00  0.00    +0.398 C 
ATOM     17  O   LIG    1       29.401 -13.056   3.534  0.00  0.00    -0.227 OA
ATOM     18  N   LIG    1       29.032 -11.835   5.411  0.00  0.00    -0.295 N 
ATOM     19  H   LIG    1       29.827 -11.233   5.245  0.00  0.00    +0.148 HD
ATOM     20  H   LIG    1       28.369 -11.605   6.158  0.00  0.00    +0.148 HD
ENDBRANCH  15  16
ENDBRANCH  14  15
ENDBRANCH   1  14
TORSDOF 8
ENDMDL
MODEL 3
REMARK VINA RESULT:      -4.6      3.958      7.130
REMARK  Name = *****
REMARK                            x       y       z     vdW  Elec       q    Type
REMARK                         _______ _______ _______ _____ _____    ______ ____
ROOT
ATOM      1  C   LIG    1       26.104 -14.753   3.518  0.00  0.00    +0.039 C 
ATOM      2  C   LIG    1       26.194 -14.111   2.106  0.00  0.00    +0.018 C 
ENDROOT
BRANCH   1   3
ATOM      3  C   LIG    1       27.278 -14.171   4.441  0.00  0.00    -0.002 C 
ATOM      4  C   LIG    1       26.721 -13.390   5.646  0.00  0.00    +0.008 C 
BRANCH   3   6
ATOM      5  C   LIG    1       28.979 -12.195   4.529  0.00  0.00    +0.004 C 
ATOM      6  C   LIG    1       28.409 -13.375   3.723  0.00  0.00    +0.000 C 
ENDBRANCH   3   6
ENDBRANCH   1   3
BRANCH   1   7
ATOM      7  C   LIG    1       24.710 -14.381   4.117  0.00  0.00    +0.244 C 
BRANCH   7   8
ATOM      8  O   LIG    1       24.030 -13.522   3.182  0.00  0.00    -0.450 OA
BRANCH   8   9
ATOM      9  C   LIG    1       23.882 -12.232   3.557  0.00  0.00    +0.398 C 
ATOM     10  O   LIG    1       23.736 -11.812   4.688  0.00  0.00    -0.227 OA
ATOM     11  N   LIG    1       23.832 -11.448   2.454  0.00  0.00    -0.295 N 
ATOM     12  H   LIG    1       23.551 -10.486   2.557  0.00  0.00    +0.148 HD
ATOM     13  H   LIG    1       23.916 -11.865   1.538  0.00  0.00    +0.148 HD
ENDBRANCH   8   9
ENDBRANCH   7   8
ENDBRANCH   1   7
BRANCH   1  14
ATOM     14  C   LIG    1       26.135 -16.282   3.281  0.00  0.00    +0.244 C 
BRANCH  14  15
ATOM     15  O   LIG    1       24.882 -16.869   3.631  0.00  0.00    -0.450 OA
BRANCH  15  16
ATOM     16  C   LIG    1       24.828 -18.224   3.566  0.00  0.00    +0.398 C 
ATOM     17  O   LIG    1       23.864 -18.936   3.522  0.00  0.00    -0.227 OA
ATOM     18  N   LIG    1       26.116 -18.663   3.597  0.00  0.00    -0.295 N 
ATOM     19  H   LIG    1       26.298 -19.639   3.404  0.00  0.00    +0.148 HD
ATOM     20  H   LIG    1       26.891 -17.993   3.596  0.00  0.00    +0.148 HD
ENDBRANCH  15  16
ENDBRANCH  14  15
ENDBRANCH   1  14
TORSDOF 8
ENDMDL
MODEL 4
REMARK VINA RESULT:      -4.2      3.628      6.270
REMARK  Name = *****
REMARK                            x       y       z     vdW  Elec       q    Type
REMARK                         _______ _______ _______ _____ _____    ______ ____
ROOT
ATOM      1  C   LIG    1       26.039 -14.178   3.804  0.00  0.00    +0.039 C 
ATOM      2  C   LIG    1       26.216 -13.724   5.280  0.00  0.00    +0.018 C 
ENDROOT
BRANCH   1   3
ATOM      3  C   LIG    1       24.479 -14.196   3.439  0.00  0.00    -0.002 C 
ATOM      4  C   LIG    1       24.061 -12.931   2.666  0.00  0.00    +0.008 C 
BRANCH   3   6
ATOM      5  C   LIG    1       22.770 -15.862   4.492  0.00  0.00    +0.004 C 
ATOM      6  C   LIG    1       23.487 -14.505   4.601  0.00  0.00    +0.000 C 
ENDBRANCH   3   6
ENDBRANCH   1   3
BRANCH   1   7
ATOM      7  C   LIG    1       26.795 -13.151   2.901  0.00  0.00    +0.244 C 
BRANCH   7   8
ATOM      8  O   LIG    1       27.494 -12.226   3.755  0.00  0.00    -0.450 OA
BRANCH   8   9
ATOM      9  C   LIG    1       28.773 -12.542   4.055  0.00  0.00    +0.398 C 
ATOM     10  O   LIG    1       29.474 -13.361   3.493  0.00  0.00    -0.227 OA
ATOM     11  N   LIG    1       29.157 -11.859   5.160  0.00  0.00    -0.295 N 
ATOM     12  H   LIG    1       30.021 -12.115   5.611  0.00  0.00    +0.148 HD
ATOM     13  H   LIG    1       28.511 -11.225   5.606  0.00  0.00    +0.148 HD
ENDBRANCH   8   9
ENDBRANCH   7   8
ENDBRANCH   1   7
BRANCH   1  14
ATOM     14  C   LIG    1       26.767 -15.540   3.700  0.00  0.00    +0.244 C 
BRANCH  14  15
ATOM     15  O   LIG    1       25.993 -16.464   2.935  0.00  0.00    -0.450 OA
BRANCH  15  16
ATOM     16  C   LIG    1       25.955 -17.736   3.410  0.00  0.00    +0.398 C 
ATOM     17  O   LIG    1       25.064 -18.535   3.346  0.00  0.00    -0.227 OA
ATOM     18  N   LIG    1       27.147 -17.950   4.032  0.00  0.00    -0.295 N 
ATOM     19  H   LIG    1       27.378 -18.891   4.322  0.00  0.00    +0.148 HD
ATOM     20  H   LIG    1       27.877 -17.231   4.012  0.00  0.00    +0.148 HD
ENDBRANCH  15  16
ENDBRANCH  14  15
ENDBRANCH   1  14
TORSDOF 8
ENDMDL
MODEL 5
REMARK VINA RESULT:      -3.9      2.032      4.191
REMARK  Name = *****
REMARK                            x       y       z     vdW  Elec       q    Type
REMARK                         _______ _______ _______ _____ _____    ______ ____
ROOT
ATOM      1  C   LIG    1       24.793 -20.235   4.585  0.00  0.00    +0.039 C 
ATOM      2  C   LIG    1       24.094 -21.349   3.757  0.00  0.00    +0.018 C 
ENDROOT
BRANCH   1   3
ATOM      3  C   LIG    1       25.648 -20.907   5.762  0.00  0.00    -0.002 C 
ATOM      4  C   LIG    1       24.828 -21.033   7.060  0.00  0.00    +0.008 C 
BRANCH   3   6
ATOM      5  C   LIG    1       27.910 -21.098   7.048  0.00  0.00    +0.004 C 
ATOM      6  C   LIG    1       27.059 -20.307   6.038  0.00  0.00    +0.000 C 
ENDBRANCH   3   6
ENDBRANCH   1   3
BRANCH   1   7
ATOM      7  C   LIG    1       25.732 -19.446   3.617  0.00  0.00    +0.244 C 
BRANCH   7   8
ATOM      8  O   LIG    1       25.218 -18.108   3.479  0.00  0.00    -0.450 OA
BRANCH   8   9
ATOM      9  C   LIG    1       26.139 -17.121   3.403  0.00  0.00    +0.398 C 
ATOM     10  O   LIG    1       25.972 -15.998   2.970  0.00  0.00    -0.227 OA
ATOM     11  N   LIG    1       27.340 -17.597   3.811  0.00  0.00    -0.295 N 
ATOM     12  H   LIG    1       28.162 -17.036   3.649  0.00  0.00    +0.148 HD
ATOM     13  H   LIG    1       27.422 -18.554   4.118  0.00  0.00    +0.148 HD
ENDBRANCH   8   9
ENDBRANCH   7   8
ENDBRANCH   1   7
BRANCH   1  14
ATOM     14  C   LIG    1       23.659 -19.284   5.040  0.00  0.00    +0.244 C 
BRANCH  14  15
ATOM     15  O   LIG    1       22.446 -19.587   4.350  0.00  0.00    -0.450 OA
BRANCH  15  16
ATOM     16  C   LIG    1       21.646 -18.524   4.073  0.00  0.00    +0.398 C 
ATOM     17  O   LIG    1       20.613 -18.501   3.466  0.00  0.00    -0.227 OA
ATOM     18  N   LIG    1       22.264 -17.430   4.598  0.00  0.00    -0.295 N 
ATOM     19  H   LIG    1       21.753 -16.558   4.631  0.00  0.00    +0.148 HD
ATOM     20  H   LIG    1       23.128 -17.534   5.139  0.00  0.00    +0.148 HD
ENDBRANCH  15  16
ENDBRANCH  14  15
ENDBRANCH   1  14
TORSDOF 8
ENDMDL
MODEL 6
REMARK VINA RESULT:      -3.7      3.844      6.207
REMARK  Name = *****
REMARK                            x       y       z     vdW  Elec       q    Type
REMARK                         _______ _______ _______ _____ _____    ______ ____
ROOT
ATOM      1  C   LIG    1       26.189 -14.857   3.603  0.00  0.00    +0.039 C 
ATOM      2  C   LIG    1       24.787 -14.850   4.274  0.00  0.00    +0.018 C 
ENDROOT
BRANCH   1   3
ATOM      3  C   LIG    1       27.226 -14.065   4.533  0.00  0.00    -0.002 C 
ATOM      4  C   LIG    1       26.503 -13.211   5.592  0.00  0.00    +0.008 C 
BRANCH   3   6
ATOM      5  C   LIG    1       28.952 -12.112   4.646  0.00  0.00    +0.004 C 
ATOM      6  C   LIG    1       28.339 -13.249   3.810  0.00  0.00    +0.000 C 
ENDBRANCH   3   6
ENDBRANCH   1   3
BRANCH   1   7
ATOM      7  C   LIG    1       26.631 -16.348   3.449  0.00  0.00    +0.244 C 
BRANCH   7   8
ATOM      8  O   LIG    1       25.540 -17.086   2.866  0.00  0.00    -0.450 OA
BRANCH   8   9
ATOM      9  C   LIG    1       25.208 -18.243   3.479  0.00  0.00    +0.398 C 
ATOM     10  O   LIG    1       24.087 -18.662   3.693  0.00  0.00    -0.227 OA
ATOM     11  N   LIG    1       26.333 -18.857   3.917  0.00  0.00    -0.295 N 
ATOM     12  H   LIG    1       26.243 -19.641   4.545  0.00  0.00    +0.148 HD
ATOM     13  H   LIG    1       27.233 -18.435   3.746  0.00  0.00    +0.148 HD
ENDBRANCH   8   9
ENDBRANCH   7   8
ENDBRANCH   1   7
BRANCH   1  14
ATOM     14  C   LIG    1       25.974 -14.269   2.188  0.00  0.00    +0.244 C 
BRANCH  14  15
ATOM     15  O   LIG    1       24.742 -13.549   2.128  0.00  0.00    -0.450 OA
BRANCH  15  16
ATOM     16  C   LIG    1       24.848 -12.196   2.180  0.00  0.00    +0.398 C 
ATOM     17  O   LIG    1       25.751 -11.499   1.813  0.00  0.00    -0.227 OA
ATOM     18  N   LIG    1       23.713 -11.744   2.782  0.00  0.00    -0.295 N 
ATOM     19  H   LIG    1       23.529 -10.749   2.778  0.00  0.00    +0.148 HD
ATOM     20  H   LIG    1       22.966 -12.398   3.033  0.00  0.00    +0.148 HD
ENDBRANCH  15  16
ENDBRANCH  14  15
ENDBRANCH   1  14
TORSDOF 8
ENDMDL
MODEL 7
REMARK VINA RESULT:      -3.3      2.754      4.943
REMARK  Name = *****
REMARK                            x       y       z     vdW  Elec       q    Type
REMARK                         _______ _______ _______ _____ _____    ______ ____
ROOT
ATOM      1  C   LIG    1       25.413 -19.522   4.119  0.00  0.00    +0.039 C 
ATOM      2  C   LIG    1       25.055 -20.516   2.979  0.00  0.00    +0.018 C 
ENDROOT
BRANCH   1   3
ATOM      3  C   LIG    1       26.462 -20.213   5.115  0.00  0.00    -0.002 C 
ATOM      4  C   LIG    1       25.834 -20.504   6.490  0.00  0.00    +0.008 C 
BRANCH   3   6
ATOM      5  C   LIG    1       28.718 -20.056   6.416  0.00  0.00    +0.004 C 
ATOM      6  C   LIG    1       27.852 -19.524   5.259  0.00  0.00    +0.000 C 
ENDBRANCH   3   6
ENDBRANCH   1   3
BRANCH   1   7
ATOM      7  C   LIG    1       26.046 -18.256   3.460  0.00  0.00    +0.244 C 
BRANCH   7   8
ATOM      8  O   LIG    1       25.070 -17.196   3.484  0.00  0.00    -0.450 OA
BRANCH   8   9
ATOM      9  C   LIG    1       25.555 -15.938   3.390  0.00  0.00    +0.398 C 
ATOM     10  O   LIG    1       26.647 -15.605   2.973  0.00  0.00    -0.227 OA
ATOM     11  N   LIG    1       24.659 -15.072   3.920  0.00  0.00    -0.295 N 
ATOM     12  H   LIG    1       24.945 -14.119   4.083  0.00  0.00    +0.148 HD
ATOM     13  H   LIG    1       23.786 -15.418   4.291  0.00  0.00    +0.148 HD
ENDBRANCH   8   9
ENDBRANCH   7   8
ENDBRANCH   1   7
BRANCH   1  14
ATOM     14  C   LIG    1       24.060 -19.113   4.751  0.00  0.00    +0.244 C 
BRANCH  14  15
ATOM     15  O   LIG    1       23.031 -20.024   4.363  0.00  0.00    -0.450 OA
BRANCH  15  16
ATOM     16  C   LIG    1       22.472 -20.744   5.371  0.00  0.00    +0.398 C 
ATOM     17  O   LIG    1       22.725 -20.717   6.542  0.00  0.00    -0.227 OA
ATOM     18  N   LIG    1       21.555 -21.567   4.793  0.00  0.00    -0.295 N 
ATOM     19  H   LIG    1       20.920 -22.078   5.392  0.00  0.00    +0.148 HD
ATOM     20  H   LIG    1       21.365 -21.505   3.788  0.00  0.00    +0.148 HD
ENDBRANCH  15  16
ENDBRANCH  14  15
ENDBRANCH   1  14
TORSDOF 8
ENDMDL
MODEL 8
REMARK VINA RESULT:      -3.2      3.931      6.475
REMARK  Name = *****
REMARK                            x       y       z     vdW  Elec       q    Type
REMARK                         _______ _______ _______ _____ _____    ______ ____
ROOT
ATOM      1  C   LIG    1       26.100 -14.600   3.543  0.00  0.00    +0.039 C 
ATOM      2  C   LIG    1       26.238 -14.415   5.080  0.00  0.00    +0.018 C 
ENDROOT
BRANCH   1   3
ATOM      3  C   LIG    1       24.784 -13.841   3.033  0.00  0.00    -0.002 C 
ATOM      4  C   LIG    1       25.118 -12.764   1.984  0.00  0.00    +0.008 C 
BRANCH   3   6
ATOM      5  C   LIG    1       23.774 -11.753   4.228  0.00  0.00    +0.004 C 
ATOM      6  C   LIG    1       23.822 -13.288   4.128  0.00  0.00    +0.000 C 
ENDBRANCH   3   6
ENDBRANCH   1   3
BRANCH   1   7
ATOM      7  C   LIG    1       27.372 -13.982   2.878  0.00  0.00    +0.244 C 
BRANCH   7   8
ATOM      8  O   LIG    1       28.398 -13.870   3.882  0.00  0.00    -0.450 OA
BRANCH   8   9
ATOM      9  C   LIG    1       28.785 -12.615   4.200  0.00  0.00    +0.398 C 
ATOM     10  O   LIG    1       28.900 -12.147   5.316  0.00  0.00    -0.227 OA
ATOM     11  N   LIG    1       28.952 -11.895   3.065  0.00  0.00    -0.295 N 
ATOM     12  H   LIG    1       29.069 -10.897   3.138  0.00  0.00    +0.148 HD
ATOM     13  H   LIG    1       28.798 -12.331   2.168  0.00  0.00    +0.148 HD
ENDBRANCH   8   9
ENDBRANCH   7   8
ENDBRANCH   1   7
BRANCH   1  14
ATOM     14  C   LIG    1       26.125 -16.129   3.306  0.00  0.00    +0.244 C 
BRANCH  14  15
ATOM     15  O   LIG    1       24.859 -16.706   3.627  0.00  0.00    -0.450 OA
BRANCH  15  16
ATOM     16  C   LIG    1       24.797 -18.062   3.560  0.00  0.00    +0.398 C 
ATOM     17  O   LIG    1       23.832 -18.771   3.601  0.00  0.00    -0.227 OA
ATOM     18  N   LIG    1       26.081 -18.502   3.470  0.00  0.00    -0.295 N 
ATOM     19  H   LIG    1       26.243 -19.478   3.257  0.00  0.00    +0.148 HD
ATOM     20  H   LIG    1       26.854 -17.833   3.401  0.00  0.00    +0.148 HD
ENDBRANCH  15  16
ENDBRANCH  14  15
ENDBRANCH   1  14
TORSDOF 8
ENDMDL
MODEL 9
REMARK VINA RESULT:      -3.2      3.450      6.407
REMARK  Name = *****
REMARK                            x       y       z     vdW  Elec       q    Type
REMARK                         _______ _______ _______ _____ _____    ______ ____
ROOT
ATOM      1  C   LIG    1       25.724 -14.307   3.588  0.00  0.00    +0.039 C 
ATOM      2  C   LIG    1       25.634 -13.179   2.523  0.00  0.00    +0.018 C 
ENDROOT
BRANCH   1   3
ATOM      3  C   LIG    1       27.072 -14.129   4.436  0.00  0.00    -0.002 C 
ATOM      4  C   LIG    1       26.805 -13.447   5.791  0.00  0.00    +0.008 C 
BRANCH   3   6
ATOM      5  C   LIG    1       28.905 -12.273   4.427  0.00  0.00    +0.004 C 
ATOM      6  C   LIG    1       28.284 -13.481   3.702  0.00  0.00    +0.000 C 
ENDBRANCH   3   6
ENDBRANCH   1   3
BRANCH   1   7
ATOM      7  C   LIG    1       24.477 -14.176   4.520  0.00  0.00    +0.244 C 
BRANCH   7   8
ATOM      8  O   LIG    1       23.417 -14.984   3.975  0.00  0.00    -0.450 OA
BRANCH   8   9
ATOM      9  C   LIG    1       22.663 -15.661   4.870  0.00  0.00    +0.398 C 
ATOM     10  O   LIG    1       22.200 -15.231   5.908  0.00  0.00    -0.227 OA
ATOM     11  N   LIG    1       22.560 -16.954   4.482  0.00  0.00    -0.295 N 
ATOM     12  H   LIG    1       22.178 -17.625   5.131  0.00  0.00    +0.148 HD
ATOM     13  H   LIG    1       23.006 -17.259   3.630  0.00  0.00    +0.148 HD
ENDBRANCH   8   9
ENDBRANCH   7   8
ENDBRANCH   1   7
BRANCH   1  14
ATOM     14  C   LIG    1       25.599 -15.632   2.798  0.00  0.00    +0.244 C 
BRANCH  14  15
ATOM     15  O   LIG    1       26.502 -16.610   3.316  0.00  0.00    -0.450 OA
BRANCH  15  16
ATOM     16  C   LIG    1       25.975 -17.845   3.524  0.00  0.00    +0.398 C 
ATOM     17  O   LIG    1       24.882 -18.251   3.248  0.00  0.00    -0.227 OA
ATOM     18  N   LIG    1       26.934 -18.569   4.164  0.00  0.00    -0.295 N 
ATOM     19  H   LIG    1       26.795 -19.565   4.273  0.00  0.00    +0.148 HD
ATOM     20  H   LIG    1       27.861 -18.166   4.332  0.00  0.00    +0.148 HD
ENDBRANCH  15  16
ENDBRANCH  14  15
ENDBRANCH   1  14
TORSDOF 8
ENDMDL
