MODEL 1
REMARK VINA RESULT:       6.8      0.000      0.000
REMARK  Name = *****
REMARK                            x       y       z     vdW  Elec       q    Type
REMARK                         _______ _______ _______ _____ _____    ______ ____
ROOT
ATOM      1  C   LIG    1       23.108 -11.447   3.254  0.00  0.00    +0.011 C 
ATOM      2  C   LIG    1       24.290 -12.092   3.294  0.00  0.00    -0.036 C 
ATOM      3  C   LIG    1       24.928 -12.589   4.602  0.00  0.00    +0.213 C 
ATOM      4  O   LIG    1       23.876 -12.858   5.602  0.00  0.00    -0.480 OA
ATOM      5  C   LIG    1       23.535 -14.171   5.361  0.00  0.00    +0.167 A 
ATOM      6  C   LIG    1       24.512 -14.833   4.650  0.00  0.00    +0.014 A 
ATOM      7  C   LIG    1       24.301 -16.102   4.051  0.00  0.00    -0.038 A 
ATOM      8  C   LIG    1       23.091 -16.736   4.318  0.00  0.00    +0.008 A 
ATOM      9  C   LIG    1       22.128 -16.095   5.131  0.00  0.00    +0.049 A 
ATOM     10  C   LIG    1       25.414 -16.690   3.144  0.00  0.00    +0.057 C 
ATOM     11  C   LIG    1       26.639 -15.784   3.421  0.00  0.00    +0.093 C 
ATOM     12  N   LIG    1       28.051 -15.819   3.859  0.00  0.00    -0.296 NA
ATOM     13  C   LIG    1       28.083 -15.075   5.200  0.00  0.00    +0.086 C 
ATOM     14  C   LIG    1       26.867 -14.067   5.544  0.00  0.00    +0.034 C 
ATOM     15  C   LIG    1       26.315 -14.261   3.127  0.00  0.00    +0.096 C 
ATOM     16  C   LIG    1       25.428 -13.886   1.934  0.00  0.00    +0.042 C 
ATOM     17  C   LIG    1       22.345 -14.803   5.642  0.00  0.00    +0.159 A 
ATOM     18  C   LIG    1       25.714 -13.907   4.467  0.00  0.00    +0.071 C 
ATOM     19  C   LIG    1       25.043 -12.400   2.019  0.00  0.00    +0.037 C 
ENDROOT
BRANCH  15  20
ATOM     20  O   LIG    1       27.536 -13.511   2.909  0.00  0.00    -0.386 OA
ATOM     21  H   LIG    1       27.238 -12.580   2.813  0.00  0.00    +0.210 HD
ENDBRANCH  15  20
BRANCH  17  22
ATOM     22  O   LIG    1       21.390 -14.161   6.369  0.00  0.00    -0.503 OA
ATOM     23  H   LIG    1       21.097 -13.376   5.879  0.00  0.00    +0.292 HD
ENDBRANCH  17  22
BRANCH  12  24
ATOM     24  C   LIG    1       28.554 -17.192   3.962  0.00  0.00    +0.088 C 
BRANCH  24  25
ATOM     25  C   LIG    1       28.386 -17.712   5.359  0.00  0.00    +0.003 C 
ATOM     26  C   LIG    1       28.158 -19.183   5.616  0.00  0.00    +0.005 C 
ATOM     27  C   LIG    1       29.475 -18.556   5.975  0.00  0.00    +0.005 C 
ENDBRANCH  24  25
ENDBRANCH  12  24
TORSDOF 4
ENDMDL
