MODEL 1
REMARK VINA RESULT:      -5.6      0.000      0.000
REMARK  Name = *****
REMARK                            x       y       z     vdW  Elec       q    Type
REMARK                         _______ _______ _______ _____ _____    ______ ____
ROOT
ATOM      1  C   LIG    1       24.278 -20.411   5.167  0.00  0.00    +0.329 C 
ENDROOT
BRANCH   1   2
ATOM      2  C   LIG    1       22.866 -20.351   5.716  0.00  0.00    +0.424 C 
ATOM      3  F   LIG    1       22.376 -19.091   5.819  0.00  0.00    -0.168 F 
ATOM      4  F   LIG    1       22.835 -20.884   6.965  0.00  0.00    -0.168 F 
ATOM      5  F   LIG    1       21.996 -21.071   4.980  0.00  0.00    -0.168 F 
ENDBRANCH   1   2
BRANCH   1   6
ATOM      6  C   LIG    1       24.219 -20.064   3.700  0.00  0.00    +0.424 C 
ATOM      7  F   LIG    1       25.439 -19.675   3.256  0.00  0.00    -0.168 F 
ATOM      8  F   LIG    1       23.369 -19.046   3.452  0.00  0.00    -0.168 F 
ATOM      9  F   LIG    1       23.847 -21.114   2.926  0.00  0.00    -0.168 F 
ENDBRANCH   1   6
BRANCH   1  10
ATOM     10  O   LIG    1       25.074 -21.571   5.511  0.00  0.00    -0.329 OA
BRANCH  10  12
ATOM     11  F   LIG    1       25.989 -20.080   6.903  0.00  0.00    -0.218 F 
ATOM     12  C   LIG    1       26.113 -21.339   6.443  0.00  0.00    +0.376 C 
ENDBRANCH  10  12
ENDBRANCH   1  10
TORSDOF 4
ENDMDL
MODEL 2
REMARK VINA RESULT:      -5.5      0.120      1.089
REMARK  Name = *****
REMARK                            x       y       z     vdW  Elec       q    Type
REMARK                         _______ _______ _______ _____ _____    ______ ____
ROOT
ATOM      1  C   LIG    1       24.337 -20.418   5.219  0.00  0.00    +0.329 C 
ENDROOT
BRANCH   1   2
ATOM      2  C   LIG    1       22.937 -20.409   5.800  0.00  0.00    +0.424 C 
ATOM      3  F   LIG    1       22.863 -20.938   7.047  0.00  0.00    -0.168 F 
ATOM      4  F   LIG    1       22.108 -21.143   5.015  0.00  0.00    -0.168 F 
ATOM      5  F   LIG    1       22.407 -19.170   5.849  0.00  0.00    -0.168 F 
ENDBRANCH   1   2
BRANCH   1   6
ATOM      6  C   LIG    1       24.238 -20.022   3.767  0.00  0.00    +0.424 C 
ATOM      7  F   LIG    1       25.418 -19.515   3.333  0.00  0.00    -0.168 F 
ATOM      8  F   LIG    1       23.304 -19.070   3.562  0.00  0.00    -0.168 F 
ATOM      9  F   LIG    1       23.950 -21.069   2.955  0.00  0.00    -0.168 F 
ENDBRANCH   1   6
BRANCH   1  10
ATOM     10  O   LIG    1       25.165 -21.571   5.505  0.00  0.00    -0.329 OA
BRANCH  10  12
ATOM     11  F   LIG    1       26.119 -20.103   6.895  0.00  0.00    -0.218 F 
ATOM     12  C   LIG    1       26.090 -21.407   6.565  0.00  0.00    +0.376 C 
ENDBRANCH  10  12
ENDBRANCH   1  10
TORSDOF 4
ENDMDL
MODEL 3
REMARK VINA RESULT:      -5.2      0.805      2.953
REMARK  Name = *****
REMARK                            x       y       z     vdW  Elec       q    Type
REMARK                         _______ _______ _______ _____ _____    ______ ____
ROOT
ATOM      1  C   LIG    1       24.303 -20.503   5.189  0.00  0.00    +0.329 C 
ENDROOT
BRANCH   1   2
ATOM      2  C   LIG    1       24.371 -19.730   3.887  0.00  0.00    +0.424 C 
ATOM      3  F   LIG    1       23.415 -18.774   3.773  0.00  0.00    -0.168 F 
ATOM      4  F   LIG    1       24.203 -20.576   2.839  0.00  0.00    -0.168 F 
ATOM      5  F   LIG    1       25.567 -19.136   3.701  0.00  0.00    -0.168 F 
ENDBRANCH   1   2
BRANCH   1   6
ATOM      6  C   LIG    1       22.866 -20.515   5.646  0.00  0.00    +0.424 C 
ATOM      7  F   LIG    1       22.736 -21.249   6.778  0.00  0.00    -0.168 F 
ATOM      8  F   LIG    1       22.044 -21.065   4.727  0.00  0.00    -0.168 F 
ATOM      9  F   LIG    1       22.396 -19.277   5.936  0.00  0.00    -0.168 F 
ENDBRANCH   1   6
BRANCH   1  10
ATOM     10  O   LIG    1       25.287 -20.181   6.203  0.00  0.00    -0.329 OA
BRANCH  10  12
ATOM     11  F   LIG    1       27.479 -20.368   5.809  0.00  0.00    -0.218 F 
ATOM     12  C   LIG    1       26.406 -21.045   6.258  0.00  0.00    +0.376 C 
ENDBRANCH  10  12
ENDBRANCH   1  10
TORSDOF 4
ENDMDL
MODEL 4
REMARK VINA RESULT:      -5.0      5.719      6.687
REMARK  Name = *****
REMARK                            x       y       z     vdW  Elec       q    Type
REMARK                         _______ _______ _______ _____ _____    ______ ____
ROOT
ATOM      1  C   LIG    1       25.885 -14.820   3.858  0.00  0.00    +0.329 C 
ENDROOT
BRANCH   1   2
ATOM      2  C   LIG    1       24.589 -14.037   3.779  0.00  0.00    +0.424 C 
ATOM      3  F   LIG    1       24.519 -13.009   4.660  0.00  0.00    -0.168 F 
ATOM      4  F   LIG    1       23.540 -14.855   4.051  0.00  0.00    -0.168 F 
ATOM      5  F   LIG    1       24.364 -13.537   2.547  0.00  0.00    -0.168 F 
ENDBRANCH   1   2
BRANCH   1   6
ATOM      6  C   LIG    1       27.010 -13.833   4.051  0.00  0.00    +0.424 C 
ATOM      7  F   LIG    1       28.209 -14.457   3.950  0.00  0.00    -0.168 F 
ATOM      8  F   LIG    1       26.973 -13.251   5.268  0.00  0.00    -0.168 F 
ATOM      9  F   LIG    1       27.011 -12.848   3.119  0.00  0.00    -0.168 F 
ENDBRANCH   1   6
BRANCH   1  10
ATOM     10  O   LIG    1       26.105 -15.841   2.855  0.00  0.00    -0.329 OA
BRANCH  10  12
ATOM     11  F   LIG    1       24.906 -17.659   3.364  0.00  0.00    -0.218 F 
ATOM     12  C   LIG    1       26.160 -17.169   3.343  0.00  0.00    +0.376 C 
ENDBRANCH  10  12
ENDBRANCH   1  10
TORSDOF 4
ENDMDL
MODEL 5
REMARK VINA RESULT:      -4.9      5.762      6.846
REMARK  Name = *****
REMARK                            x       y       z     vdW  Elec       q    Type
REMARK                         _______ _______ _______ _____ _____    ______ ____
ROOT
ATOM      1  C   LIG    1       25.959 -14.792   3.869  0.00  0.00    +0.329 C 
ENDROOT
BRANCH   1   2
ATOM      2  C   LIG    1       24.629 -14.065   3.851  0.00  0.00    +0.424 C 
ATOM      3  F   LIG    1       23.571 -14.861   4.143  0.00  0.00    -0.168 F 
ATOM      4  F   LIG    1       24.401 -13.554   2.614  0.00  0.00    -0.168 F 
ATOM      5  F   LIG    1       24.602 -13.018   4.700  0.00  0.00    -0.168 F 
ENDBRANCH   1   2
BRANCH   1   6
ATOM      6  C   LIG    1       27.051 -13.757   3.979  0.00  0.00    +0.424 C 
ATOM      7  F   LIG    1       26.926 -12.832   2.997  0.00  0.00    -0.168 F 
ATOM      8  F   LIG    1       28.280 -14.300   3.852  0.00  0.00    -0.168 F 
ATOM      9  F   LIG    1       27.016 -13.078   5.152  0.00  0.00    -0.168 F 
ENDBRANCH   1   6
BRANCH   1  10
ATOM     10  O   LIG    1       26.164 -15.824   2.873  0.00  0.00    -0.329 OA
BRANCH  10  12
ATOM     11  F   LIG    1       24.957 -17.645   3.347  0.00  0.00    -0.218 F 
ATOM     12  C   LIG    1       26.207 -17.148   3.371  0.00  0.00    +0.376 C 
ENDBRANCH  10  12
ENDBRANCH   1  10
TORSDOF 4
ENDMDL
MODEL 6
REMARK VINA RESULT:      -4.8      6.404      7.722
REMARK  Name = *****
REMARK                            x       y       z     vdW  Elec       q    Type
REMARK                         _______ _______ _______ _____ _____    ______ ____
ROOT
ATOM      1  C   LIG    1       25.789 -13.727   3.934  0.00  0.00    +0.329 C 
ENDROOT
BRANCH   1   2
ATOM      2  C   LIG    1       26.034 -13.272   2.509  0.00  0.00    +0.424 C 
ATOM      3  F   LIG    1       26.516 -12.008   2.417  0.00  0.00    -0.168 F 
ATOM      4  F   LIG    1       24.869 -13.296   1.812  0.00  0.00    -0.168 F 
ATOM      5  F   LIG    1       26.883 -14.084   1.847  0.00  0.00    -0.168 F 
ENDBRANCH   1   2
BRANCH   1   6
ATOM      6  C   LIG    1       27.130 -13.879   4.608  0.00  0.00    +0.424 C 
ATOM      7  F   LIG    1       27.009 -13.710   5.947  0.00  0.00    -0.168 F 
ATOM      8  F   LIG    1       28.023 -12.963   4.177  0.00  0.00    -0.168 F 
ATOM      9  F   LIG    1       27.675 -15.107   4.425  0.00  0.00    -0.168 F 
ENDBRANCH   1   6
BRANCH   1  10
ATOM     10  O   LIG    1       24.856 -14.817   4.131  0.00  0.00    -0.329 OA
BRANCH  10  12
ATOM     11  F   LIG    1       22.896 -15.362   5.057  0.00  0.00    -0.218 F 
ATOM     12  C   LIG    1       23.503 -14.435   4.294  0.00  0.00    +0.376 C 
ENDBRANCH  10  12
ENDBRANCH   1  10
TORSDOF 4
ENDMDL
MODEL 7
REMARK VINA RESULT:      -4.8      6.519      7.519
REMARK  Name = *****
REMARK                            x       y       z     vdW  Elec       q    Type
REMARK                         _______ _______ _______ _____ _____    ______ ____
ROOT
ATOM      1  C   LIG    1       26.059 -14.042   4.469  0.00  0.00    +0.329 C 
ENDROOT
BRANCH   1   2
ATOM      2  C   LIG    1       26.368 -15.117   3.446  0.00  0.00    +0.424 C 
ATOM      3  F   LIG    1       26.448 -14.650   2.175  0.00  0.00    -0.168 F 
ATOM      4  F   LIG    1       25.388 -16.056   3.455  0.00  0.00    -0.168 F 
ATOM      5  F   LIG    1       27.516 -15.770   3.716  0.00  0.00    -0.168 F 
ENDBRANCH   1   2
BRANCH   1   6
ATOM      6  C   LIG    1       24.925 -13.205   3.933  0.00  0.00    +0.424 C 
ATOM      7  F   LIG    1       24.526 -12.299   4.859  0.00  0.00    -0.168 F 
ATOM      8  F   LIG    1       23.844 -13.951   3.624  0.00  0.00    -0.168 F 
ATOM      9  F   LIG    1       25.269 -12.496   2.829  0.00  0.00    -0.168 F 
ENDBRANCH   1   6
BRANCH   1  10
ATOM     10  O   LIG    1       27.181 -13.308   5.018  0.00  0.00    -0.329 OA
BRANCH  10  12
ATOM     11  F   LIG    1       29.080 -12.169   4.712  0.00  0.00    -0.218 F 
ATOM     12  C   LIG    1       28.204 -12.984   4.096  0.00  0.00    +0.376 C 
ENDBRANCH  10  12
ENDBRANCH   1  10
TORSDOF 4
ENDMDL
MODEL 8
REMARK VINA RESULT:      -4.7      1.997      3.336
REMARK  Name = *****
REMARK                            x       y       z     vdW  Elec       q    Type
REMARK                         _______ _______ _______ _____ _____    ______ ____
ROOT
ATOM      1  C   LIG    1       23.917 -19.438   4.456  0.00  0.00    +0.329 C 
ENDROOT
BRANCH   1   2
ATOM      2  C   LIG    1       24.068 -20.946   4.422  0.00  0.00    +0.424 C 
ATOM      3  F   LIG    1       25.309 -21.375   4.760  0.00  0.00    -0.168 F 
ATOM      4  F   LIG    1       23.826 -21.405   3.167  0.00  0.00    -0.168 F 
ATOM      5  F   LIG    1       23.184 -21.571   5.226  0.00  0.00    -0.168 F 
ENDBRANCH   1   2
BRANCH   1   6
ATOM      6  C   LIG    1       22.534 -19.123   4.969  0.00  0.00    +0.424 C 
ATOM      7  F   LIG    1       22.244 -17.813   4.775  0.00  0.00    -0.168 F 
ATOM      8  F   LIG    1       22.417 -19.357   6.293  0.00  0.00    -0.168 F 
ATOM      9  F   LIG    1       21.564 -19.827   4.336  0.00  0.00    -0.168 F 
ENDBRANCH   1   6
BRANCH   1  10
ATOM     10  O   LIG    1       24.337 -18.704   3.280  0.00  0.00    -0.329 OA
BRANCH  10  12
ATOM     11  F   LIG    1       25.592 -16.854   3.325  0.00  0.00    -0.218 F 
ATOM     12  C   LIG    1       25.659 -18.198   3.320  0.00  0.00    +0.376 C 
ENDBRANCH  10  12
ENDBRANCH   1  10
TORSDOF 4
ENDMDL
MODEL 9
REMARK VINA RESULT:      -4.7      1.558      2.308
REMARK  Name = *****
REMARK                            x       y       z     vdW  Elec       q    Type
REMARK                         _______ _______ _______ _____ _____    ______ ____
ROOT
ATOM      1  C   LIG    1       23.780 -19.832   4.755  0.00  0.00    +0.329 C 
ENDROOT
BRANCH   1   2
ATOM      2  C   LIG    1       22.553 -19.077   4.284  0.00  0.00    +0.424 C 
ATOM      3  F   LIG    1       22.592 -18.745   2.969  0.00  0.00    -0.168 F 
ATOM      4  F   LIG    1       22.434 -17.915   4.975  0.00  0.00    -0.168 F 
ATOM      5  F   LIG    1       21.412 -19.761   4.500  0.00  0.00    -0.168 F 
ENDBRANCH   1   2
BRANCH   1   6
ATOM      6  C   LIG    1       24.923 -19.480   3.836  0.00  0.00    +0.424 C 
ATOM      7  F   LIG    1       24.884 -18.164   3.515  0.00  0.00    -0.168 F 
ATOM      8  F   LIG    1       24.872 -20.168   2.675  0.00  0.00    -0.168 F 
ATOM      9  F   LIG    1       26.137 -19.701   4.397  0.00  0.00    -0.168 F 
ENDBRANCH   1   6
BRANCH   1  10
ATOM     10  O   LIG    1       23.617 -21.241   5.050  0.00  0.00    -0.329 OA
BRANCH  10  12
ATOM     11  F   LIG    1       23.117 -20.387   7.054  0.00  0.00    -0.218 F 
ATOM     12  C   LIG    1       23.287 -21.546   6.392  0.00  0.00    +0.376 C 
ENDBRANCH  10  12
ENDBRANCH   1  10
TORSDOF 4
ENDMDL
