MODEL 1
REMARK VINA RESULT:      -8.6      0.000      0.000
REMARK  Name = *****
REMARK                            x       y       z     vdW  Elec       q    Type
REMARK                         _______ _______ _______ _____ _____    ______ ____
ROOT
ATOM      1  N   LIG    1       26.470 -20.895   5.717  0.00  0.00    -0.314 N 
ATOM      2  H   LIG    1       26.580 -21.857   5.400  0.00  0.00    +0.152 HD
ENDROOT
BRANCH   1   7
ATOM      3  C   LIG    1       30.626 -20.059   8.435  0.00  0.00    +0.044 C 
ATOM      4  C   LIG    1       29.712 -19.782   7.270  0.00  0.00    -0.046 A 
ATOM      5  C   LIG    1       28.562 -20.576   7.011  0.00  0.00    -0.026 A 
ATOM      6  C   LIG    1       28.261 -21.745   7.920  0.00  0.00    +0.046 C 
ATOM      7  C   LIG    1       27.697 -20.221   5.943  0.00  0.00    +0.035 A 
ATOM      8  C   LIG    1       28.025 -19.105   5.152  0.00  0.00    +0.023 A 
ATOM      9  C   LIG    1       29.179 -18.362   5.380  0.00  0.00    +0.002 A 
ATOM     10  C   LIG    1       30.014 -18.696   6.437  0.00  0.00    +0.003 A 
ENDBRANCH   1   7
BRANCH   1  11
ATOM     11  C   LIG    1       25.222 -20.372   5.289  0.00  0.00    +0.045 A 
ATOM     12  C   LIG    1       24.093 -20.430   6.133  0.00  0.00    +0.080 A 
ATOM     13  C   LIG    1       22.856 -19.921   5.706  0.00  0.00    +0.017 A 
ATOM     14  C   LIG    1       22.733 -19.337   4.447  0.00  0.00    +0.001 A 
ATOM     15  C   LIG    1       23.836 -19.281   3.601  0.00  0.00    +0.002 A 
ATOM     16  C   LIG    1       25.065 -19.804   4.014  0.00  0.00    +0.024 A 
BRANCH  12  17
ATOM     17  C   LIG    1       24.137 -21.003   7.505  0.00  0.00    +0.339 C 
ATOM     18  O   LIG    1       24.992 -20.704   8.319  0.00  0.00    -0.245 OA
BRANCH  17  19
ATOM     19  O   LIG    1       23.178 -21.924   7.748  0.00  0.00    -0.477 OA
ATOM     20  H   LIG    1       22.342 -21.749   7.264  0.00  0.00    +0.295 HD
ENDBRANCH  17  19
ENDBRANCH  12  17
ENDBRANCH   1  11
TORSDOF 4
ENDMDL
MODEL 2
REMARK VINA RESULT:      -8.5      2.703      5.732
REMARK  Name = *****
REMARK                            x       y       z     vdW  Elec       q    Type
REMARK                         _______ _______ _______ _____ _____    ______ ____
ROOT
ATOM      1  N   LIG    1       27.522 -21.718   7.223  0.00  0.00    -0.314 N 
ATOM      2  H   LIG    1       28.020 -22.221   7.956  0.00  0.00    +0.152 HD
ENDROOT
BRANCH   1   7
ATOM      3  C   LIG    1       23.239 -24.300   6.634  0.00  0.00    +0.044 C 
ATOM      4  C   LIG    1       24.015 -23.061   7.000  0.00  0.00    -0.046 A 
ATOM      5  C   LIG    1       25.436 -23.043   7.028  0.00  0.00    -0.026 A 
ATOM      6  C   LIG    1       26.189 -24.312   6.701  0.00  0.00    +0.046 C 
ATOM      7  C   LIG    1       26.111 -21.827   7.308  0.00  0.00    +0.035 A 
ATOM      8  C   LIG    1       25.347 -20.678   7.579  0.00  0.00    +0.023 A 
ATOM      9  C   LIG    1       23.956 -20.714   7.600  0.00  0.00    +0.002 A 
ATOM     10  C   LIG    1       23.295 -21.898   7.306  0.00  0.00    +0.003 A 
ENDBRANCH   1   7
BRANCH   1  11
ATOM     11  C   LIG    1       28.314 -20.645   6.733  0.00  0.00    +0.045 A 
ATOM     12  C   LIG    1       29.606 -20.415   7.250  0.00  0.00    +0.080 A 
ATOM     13  C   LIG    1       30.385 -19.348   6.772  0.00  0.00    +0.017 A 
ATOM     14  C   LIG    1       29.896 -18.514   5.769  0.00  0.00    +0.001 A 
ATOM     15  C   LIG    1       28.619 -18.726   5.256  0.00  0.00    +0.002 A 
ATOM     16  C   LIG    1       27.832 -19.773   5.743  0.00  0.00    +0.024 A 
BRANCH  12  17
ATOM     17  C   LIG    1       30.224 -21.272   8.296  0.00  0.00    +0.339 C 
ATOM     18  O   LIG    1       29.570 -21.876   9.127  0.00  0.00    -0.245 OA
BRANCH  17  19
ATOM     19  O   LIG    1       31.575 -21.280   8.275  0.00  0.00    -0.477 OA
ATOM     20  H   LIG    1       31.975 -20.615   8.877  0.00  0.00    +0.295 HD
ENDBRANCH  17  19
ENDBRANCH  12  17
ENDBRANCH   1  11
TORSDOF 4
ENDMDL
MODEL 3
REMARK VINA RESULT:      -8.3      1.278      5.474
REMARK  Name = *****
REMARK                            x       y       z     vdW  Elec       q    Type
REMARK                         _______ _______ _______ _____ _____    ______ ____
ROOT
ATOM      1  N   LIG    1       26.575 -20.699   5.129  0.00  0.00    -0.314 N 
ATOM      2  H   LIG    1       26.840 -21.653   4.889  0.00  0.00    +0.152 HD
ENDROOT
BRANCH   1   7
ATOM      3  C   LIG    1       22.367 -18.187   3.970  0.00  0.00    +0.044 C 
ATOM      4  C   LIG    1       23.122 -19.271   4.697  0.00  0.00    -0.046 A 
ATOM      5  C   LIG    1       24.501 -19.516   4.460  0.00  0.00    -0.026 A 
ATOM      6  C   LIG    1       25.226 -18.678   3.433  0.00  0.00    +0.046 C 
ATOM      7  C   LIG    1       25.175 -20.500   5.229  0.00  0.00    +0.035 A 
ATOM      8  C   LIG    1       24.443 -21.226   6.186  0.00  0.00    +0.023 A 
ATOM      9  C   LIG    1       23.081 -21.015   6.378  0.00  0.00    +0.002 A 
ATOM     10  C   LIG    1       22.426 -20.039   5.641  0.00  0.00    +0.003 A 
ENDBRANCH   1   7
BRANCH   1  11
ATOM     11  C   LIG    1       27.628 -20.055   5.832  0.00  0.00    +0.045 A 
ATOM     12  C   LIG    1       27.919 -20.409   7.166  0.00  0.00    +0.080 A 
ATOM     13  C   LIG    1       28.955 -19.765   7.864  0.00  0.00    +0.017 A 
ATOM     14  C   LIG    1       29.716 -18.779   7.240  0.00  0.00    +0.001 A 
ATOM     15  C   LIG    1       29.433 -18.415   5.928  0.00  0.00    +0.002 A 
ATOM     16  C   LIG    1       28.391 -19.038   5.235  0.00  0.00    +0.024 A 
BRANCH  12  17
ATOM     17  C   LIG    1       27.183 -21.472   7.900  0.00  0.00    +0.339 C 
ATOM     18  O   LIG    1       27.102 -22.618   7.497  0.00  0.00    -0.245 OA
BRANCH  17  19
ATOM     19  O   LIG    1       26.570 -21.041   9.025  0.00  0.00    -0.477 OA
ATOM     20  H   LIG    1       27.194 -20.864   9.763  0.00  0.00    +0.295 HD
ENDBRANCH  17  19
ENDBRANCH  12  17
ENDBRANCH   1  11
TORSDOF 4
ENDMDL
MODEL 4
REMARK VINA RESULT:      -8.1      1.305      5.223
REMARK  Name = *****
REMARK                            x       y       z     vdW  Elec       q    Type
REMARK                         _______ _______ _______ _____ _____    ______ ____
ROOT
ATOM      1  N   LIG    1       26.544 -20.933   5.644  0.00  0.00    -0.314 N 
ATOM      2  H   LIG    1       26.422 -21.884   5.990  0.00  0.00    +0.152 HD
ENDROOT
BRANCH   1   7
ATOM      3  C   LIG    1       21.569 -20.944   4.866  0.00  0.00    +0.044 C 
ATOM      4  C   LIG    1       22.952 -20.379   4.671  0.00  0.00    -0.046 A 
ATOM      5  C   LIG    1       24.080 -20.895   5.364  0.00  0.00    -0.026 A 
ATOM      6  C   LIG    1       23.881 -22.031   6.341  0.00  0.00    +0.046 C 
ATOM      7  C   LIG    1       25.369 -20.372   5.083  0.00  0.00    +0.035 A 
ATOM      8  C   LIG    1       25.484 -19.332   4.143  0.00  0.00    +0.023 A 
ATOM      9  C   LIG    1       24.370 -18.797   3.505  0.00  0.00    +0.002 A 
ATOM     10  C   LIG    1       23.112 -19.322   3.764  0.00  0.00    +0.003 A 
ENDBRANCH   1   7
BRANCH   1  11
ATOM     11  C   LIG    1       27.610 -20.291   6.327  0.00  0.00    +0.045 A 
ATOM     12  C   LIG    1       27.661 -20.292   7.737  0.00  0.00    +0.080 A 
ATOM     13  C   LIG    1       28.712 -19.649   8.413  0.00  0.00    +0.017 A 
ATOM     14  C   LIG    1       29.725 -19.015   7.697  0.00  0.00    +0.001 A 
ATOM     15  C   LIG    1       29.682 -18.999   6.306  0.00  0.00    +0.002 A 
ATOM     16  C   LIG    1       28.628 -19.621   5.629  0.00  0.00    +0.024 A 
BRANCH  12  17
ATOM     17  C   LIG    1       26.644 -20.971   8.583  0.00  0.00    +0.339 C 
ATOM     18  O   LIG    1       25.932 -20.373   9.370  0.00  0.00    -0.245 OA
BRANCH  17  19
ATOM     19  O   LIG    1       26.618 -22.315   8.440  0.00  0.00    -0.477 OA
ATOM     20  H   LIG    1       27.488 -22.739   8.605  0.00  0.00    +0.295 HD
ENDBRANCH  17  19
ENDBRANCH  12  17
ENDBRANCH   1  11
TORSDOF 4
ENDMDL
MODEL 5
REMARK VINA RESULT:      -8.1      2.294      3.254
REMARK  Name = *****
REMARK                            x       y       z     vdW  Elec       q    Type
REMARK                         _______ _______ _______ _____ _____    ______ ____
ROOT
ATOM      1  N   LIG    1       26.173 -21.911   7.535  0.00  0.00    -0.314 N 
ATOM      2  H   LIG    1       26.476 -22.010   8.503  0.00  0.00    +0.152 HD
ENDROOT
BRANCH   1   7
ATOM      3  C   LIG    1       30.468 -19.402   6.745  0.00  0.00    +0.044 C 
ATOM      4  C   LIG    1       29.056 -19.784   6.383  0.00  0.00    -0.046 A 
ATOM      5  C   LIG    1       28.334 -20.771   7.108  0.00  0.00    -0.026 A 
ATOM      6  C   LIG    1       29.012 -21.471   8.262  0.00  0.00    +0.046 C 
ATOM      7  C   LIG    1       26.982 -21.034   6.768  0.00  0.00    +0.035 A 
ATOM      8  C   LIG    1       26.405 -20.326   5.698  0.00  0.00    +0.023 A 
ATOM      9  C   LIG    1       27.133 -19.398   4.960  0.00  0.00    +0.002 A 
ATOM     10  C   LIG    1       28.448 -19.124   5.305  0.00  0.00    +0.003 A 
ENDBRANCH   1   7
BRANCH   1  11
ATOM     11  C   LIG    1       25.450 -23.061   7.123  0.00  0.00    +0.045 A 
ATOM     12  C   LIG    1       24.066 -22.981   6.863  0.00  0.00    +0.080 A 
ATOM     13  C   LIG    1       23.349 -24.121   6.464  0.00  0.00    +0.017 A 
ATOM     14  C   LIG    1       24.001 -25.342   6.304  0.00  0.00    +0.001 A 
ATOM     15  C   LIG    1       25.364 -25.436   6.566  0.00  0.00    +0.002 A 
ATOM     16  C   LIG    1       26.078 -24.309   6.982  0.00  0.00    +0.024 A 
BRANCH  12  17
ATOM     17  C   LIG    1       23.294 -21.715   6.973  0.00  0.00    +0.339 C 
ATOM     18  O   LIG    1       23.299 -21.022   7.974  0.00  0.00    -0.245 OA
BRANCH  17  19
ATOM     19  O   LIG    1       22.546 -21.430   5.883  0.00  0.00    -0.477 OA
ATOM     20  H   LIG    1       21.664 -21.059   6.106  0.00  0.00    +0.295 HD
ENDBRANCH  17  19
ENDBRANCH  12  17
ENDBRANCH   1  11
TORSDOF 4
ENDMDL
MODEL 6
REMARK VINA RESULT:      -8.1      2.466      5.172
REMARK  Name = *****
REMARK                            x       y       z     vdW  Elec       q    Type
REMARK                         _______ _______ _______ _____ _____    ______ ____
ROOT
ATOM      1  N   LIG    1       24.132 -21.335   6.817  0.00  0.00    -0.314 N 
ATOM      2  H   LIG    1       24.592 -20.884   7.606  0.00  0.00    +0.152 HD
ENDROOT
BRANCH   1   7
ATOM      3  C   LIG    1       25.533 -18.148   3.178  0.00  0.00    +0.044 C 
ATOM      4  C   LIG    1       24.495 -18.878   3.991  0.00  0.00    -0.046 A 
ATOM      5  C   LIG    1       24.848 -19.854   4.961  0.00  0.00    -0.026 A 
ATOM      6  C   LIG    1       26.308 -20.185   5.167  0.00  0.00    +0.046 C 
ATOM      7  C   LIG    1       23.830 -20.453   5.748  0.00  0.00    +0.035 A 
ATOM      8  C   LIG    1       22.494 -20.079   5.521  0.00  0.00    +0.023 A 
ATOM      9  C   LIG    1       22.150 -19.159   4.535  0.00  0.00    +0.002 A 
ATOM     10  C   LIG    1       23.146 -18.558   3.779  0.00  0.00    +0.003 A 
ENDBRANCH   1   7
BRANCH   1  11
ATOM     11  C   LIG    1       24.454 -22.717   6.779  0.00  0.00    +0.045 A 
ATOM     12  C   LIG    1       25.700 -23.175   7.260  0.00  0.00    +0.080 A 
ATOM     13  C   LIG    1       26.022 -24.542   7.215  0.00  0.00    +0.017 A 
ATOM     14  C   LIG    1       25.108 -25.463   6.708  0.00  0.00    +0.001 A 
ATOM     15  C   LIG    1       23.881 -25.024   6.222  0.00  0.00    +0.002 A 
ATOM     16  C   LIG    1       23.563 -23.663   6.247  0.00  0.00    +0.024 A 
BRANCH  12  17
ATOM     17  C   LIG    1       26.721 -22.270   7.850  0.00  0.00    +0.339 C 
ATOM     18  O   LIG    1       27.832 -22.127   7.372  0.00  0.00    -0.245 OA
BRANCH  17  19
ATOM     19  O   LIG    1       26.326 -21.663   8.992  0.00  0.00    -0.477 OA
ATOM     20  H   LIG    1       27.009 -21.066   9.369  0.00  0.00    +0.295 HD
ENDBRANCH  17  19
ENDBRANCH  12  17
ENDBRANCH   1  11
TORSDOF 4
ENDMDL
MODEL 7
REMARK VINA RESULT:      -8.0      2.711      6.371
REMARK  Name = *****
REMARK                            x       y       z     vdW  Elec       q    Type
REMARK                         _______ _______ _______ _____ _____    ______ ____
ROOT
ATOM      1  N   LIG    1       29.097 -21.075   7.174  0.00  0.00    -0.314 N 
ATOM      2  H   LIG    1       29.627 -21.938   7.058  0.00  0.00    +0.152 HD
ENDROOT
BRANCH   1   7
ATOM      3  C   LIG    1       24.429 -20.162   5.520  0.00  0.00    +0.044 C 
ATOM      4  C   LIG    1       25.412 -20.812   6.458  0.00  0.00    -0.046 A 
ATOM      5  C   LIG    1       26.817 -20.697   6.275  0.00  0.00    -0.026 A 
ATOM      6  C   LIG    1       27.337 -19.917   5.090  0.00  0.00    +0.046 C 
ATOM      7  C   LIG    1       27.693 -21.268   7.234  0.00  0.00    +0.035 A 
ATOM      8  C   LIG    1       27.139 -21.959   8.326  0.00  0.00    +0.023 A 
ATOM      9  C   LIG    1       25.764 -22.112   8.473  0.00  0.00    +0.002 A 
ATOM     10  C   LIG    1       24.906 -21.536   7.548  0.00  0.00    +0.003 A 
ENDBRANCH   1   7
BRANCH   1  11
ATOM     11  C   LIG    1       29.896 -20.083   7.801  0.00  0.00    +0.045 A 
ATOM     12  C   LIG    1       30.879 -20.448   8.745  0.00  0.00    +0.080 A 
ATOM     13  C   LIG    1       31.664 -19.466   9.372  0.00  0.00    +0.017 A 
ATOM     14  C   LIG    1       31.490 -18.120   9.057  0.00  0.00    +0.001 A 
ATOM     15  C   LIG    1       30.518 -17.747   8.135  0.00  0.00    +0.002 A 
ATOM     16  C   LIG    1       29.721 -18.718   7.522  0.00  0.00    +0.024 A 
BRANCH  12  17
ATOM     17  C   LIG    1       31.159 -21.860   9.118  0.00  0.00    +0.339 C 
ATOM     18  O   LIG    1       30.501 -22.469   9.942  0.00  0.00    -0.245 OA
BRANCH  17  19
ATOM     19  O   LIG    1       32.239 -22.389   8.500  0.00  0.00    -0.477 OA
ATOM     20  H   LIG    1       32.962 -22.627   9.121  0.00  0.00    +0.295 HD
ENDBRANCH  17  19
ENDBRANCH  12  17
ENDBRANCH   1  11
TORSDOF 4
ENDMDL
MODEL 8
REMARK VINA RESULT:      -8.0      0.999      2.108
REMARK  Name = *****
REMARK                            x       y       z     vdW  Elec       q    Type
REMARK                         _______ _______ _______ _____ _____    ______ ____
ROOT
ATOM      1  N   LIG    1       25.883 -20.951   5.037  0.00  0.00    -0.314 N 
ATOM      2  H   LIG    1       26.261 -21.280   4.150  0.00  0.00    +0.152 HD
ENDROOT
BRANCH   1   7
ATOM      3  C   LIG    1       30.080 -18.849   6.862  0.00  0.00    +0.044 C 
ATOM      4  C   LIG    1       28.915 -19.802   6.945  0.00  0.00    -0.046 A 
ATOM      5  C   LIG    1       27.889 -19.825   5.962  0.00  0.00    -0.026 A 
ATOM      6  C   LIG    1       27.959 -18.849   4.811  0.00  0.00    +0.046 C 
ATOM      7  C   LIG    1       26.858 -20.796   6.055  0.00  0.00    +0.035 A 
ATOM      8  C   LIG    1       26.870 -21.691   7.140  0.00  0.00    +0.023 A 
ATOM      9  C   LIG    1       27.850 -21.631   8.126  0.00  0.00    +0.002 A 
ATOM     10  C   LIG    1       28.870 -20.696   8.025  0.00  0.00    +0.003 A 
ENDBRANCH   1   7
BRANCH   1  11
ATOM     11  C   LIG    1       24.681 -20.226   4.824  0.00  0.00    +0.045 A 
ATOM     12  C   LIG    1       23.509 -20.559   5.535  0.00  0.00    +0.080 A 
ATOM     13  C   LIG    1       22.318 -19.847   5.317  0.00  0.00    +0.017 A 
ATOM     14  C   LIG    1       22.285 -18.792   4.407  0.00  0.00    +0.001 A 
ATOM     15  C   LIG    1       23.432 -18.459   3.694  0.00  0.00    +0.002 A 
ATOM     16  C   LIG    1       24.615 -19.177   3.892  0.00  0.00    +0.024 A 
BRANCH  12  17
ATOM     17  C   LIG    1       23.458 -21.645   6.549  0.00  0.00    +0.339 C 
ATOM     18  O   LIG    1       23.338 -21.430   7.742  0.00  0.00    -0.245 OA
BRANCH  17  19
ATOM     19  O   LIG    1       23.611 -22.886   6.035  0.00  0.00    -0.477 OA
ATOM     20  H   LIG    1       22.774 -23.400   6.011  0.00  0.00    +0.295 HD
ENDBRANCH  17  19
ENDBRANCH  12  17
ENDBRANCH   1  11
TORSDOF 4
ENDMDL
MODEL 9
REMARK VINA RESULT:      -8.0      2.351      3.373
REMARK  Name = *****
REMARK                            x       y       z     vdW  Elec       q    Type
REMARK                         _______ _______ _______ _____ _____    ______ ____
ROOT
ATOM      1  N   LIG    1       27.056 -22.298   6.905  0.00  0.00    -0.314 N 
ATOM      2  H   LIG    1       27.308 -23.047   6.261  0.00  0.00    +0.152 HD
ENDROOT
BRANCH   1   7
ATOM      3  C   LIG    1       29.211 -18.066   5.230  0.00  0.00    +0.044 C 
ATOM      4  C   LIG    1       29.109 -19.229   6.183  0.00  0.00    -0.046 A 
ATOM      5  C   LIG    1       28.033 -20.156   6.127  0.00  0.00    -0.026 A 
ATOM      6  C   LIG    1       26.949 -19.955   5.094  0.00  0.00    +0.046 C 
ATOM      7  C   LIG    1       28.031 -21.273   7.002  0.00  0.00    +0.035 A 
ATOM      8  C   LIG    1       29.086 -21.411   7.922  0.00  0.00    +0.023 A 
ATOM      9  C   LIG    1       30.110 -20.473   8.006  0.00  0.00    +0.002 A 
ATOM     10  C   LIG    1       30.124 -19.392   7.137  0.00  0.00    +0.003 A 
ENDBRANCH   1   7
BRANCH   1  11
ATOM     11  C   LIG    1       25.645 -22.214   7.038  0.00  0.00    +0.045 A 
ATOM     12  C   LIG    1       24.817 -23.243   6.544  0.00  0.00    +0.080 A 
ATOM     13  C   LIG    1       23.420 -23.155   6.668  0.00  0.00    +0.017 A 
ATOM     14  C   LIG    1       22.838 -22.056   7.295  0.00  0.00    +0.001 A 
ATOM     15  C   LIG    1       23.643 -21.030   7.779  0.00  0.00    +0.002 A 
ATOM     16  C   LIG    1       25.032 -21.103   7.641  0.00  0.00    +0.024 A 
BRANCH  12  17
ATOM     17  C   LIG    1       25.350 -24.469   5.892  0.00  0.00    +0.339 C 
ATOM     18  O   LIG    1       26.176 -25.192   6.419  0.00  0.00    -0.245 OA
BRANCH  17  19
ATOM     19  O   LIG    1       24.878 -24.678   4.642  0.00  0.00    -0.477 OA
ATOM     20  H   LIG    1       24.614 -25.610   4.479  0.00  0.00    +0.295 HD
ENDBRANCH  17  19
ENDBRANCH  12  17
ENDBRANCH   1  11
TORSDOF 4
ENDMDL
