MODEL 1
REMARK VINA RESULT:      17.3      0.000      0.000
REMARK  Name = *****
REMARK                            x       y       z     vdW  Elec       q    Type
REMARK                         _______ _______ _______ _____ _____    ______ ____
ROOT
ATOM      1  C   LIG    1       28.473 -11.998   4.385  0.00  0.00    +0.073 C 
ATOM      2  C   LIG    1       27.794 -13.364   4.439  0.00  0.00    +0.166 C 
ATOM      3  O   LIG    1       26.379 -13.190   4.569  0.00  0.00    -0.332 OA
ATOM      4  C   LIG    1       25.804 -13.422   3.281  0.00  0.00    +0.164 C 
ATOM      5  C   LIG    1       26.872 -14.225   2.520  0.00  0.00    +0.162 C 
ATOM      6  C   LIG    1       26.439 -15.705   2.554  0.00  0.00    +0.039 C 
ATOM      7  C   LIG    1       25.320 -15.738   3.595  0.00  0.00    +0.007 C 
ATOM      8  C   LIG    1       24.382 -16.952   3.624  0.00  0.00    +0.037 C 
ATOM      9  C   LIG    1       23.343 -16.796   4.774  0.00  0.00    +0.153 C 
ATOM     10  C   LIG    1       22.667 -15.383   4.744  0.00  0.00    +0.154 C 
ATOM     11  C   LIG    1       23.655 -14.210   4.576  0.00  0.00    +0.044 C 
ATOM     12  F   LIG    1       24.085 -16.804   5.946  0.00  0.00    -0.238 F 
ATOM     13  C   LIG    1       22.349 -18.038   4.863  0.00  0.00    +0.047 C 
ATOM     14  C   LIG    1       23.102 -19.397   4.757  0.00  0.00    -0.020 C 
ATOM     15  C   LIG    1       22.371 -20.539   4.784  0.00  0.00    +0.054 C 
ATOM     16  C   LIG    1       21.275 -20.531   3.742  0.00  0.00    +0.179 C 
ATOM     17  C   LIG    1       20.808 -19.207   3.240  0.00  0.00    +0.047 C 
ATOM     18  O   LIG    1       20.728 -21.571   3.396  0.00  0.00    -0.288 OA
ATOM     19  C   LIG    1       24.274 -19.448   3.795  0.00  0.00    +0.194 C 
ATOM     20  F   LIG    1       23.814 -19.547   2.511  0.00  0.00    -0.241 F 
ATOM     21  C   LIG    1       21.592 -17.993   6.219  0.00  0.00    +0.023 C 
ATOM     22  C   LIG    1       21.279 -18.061   3.766  0.00  0.00    -0.009 C 
ATOM     23  C   LIG    1       25.185 -18.239   3.845  0.00  0.00    +0.048 C 
ATOM     24  C   LIG    1       24.587 -14.395   3.372  0.00  0.00    +0.012 C 
ATOM     25  C   LIG    1       23.761 -14.359   2.059  0.00  0.00    +0.015 C 
ATOM     26  O   LIG    1       28.094 -14.068   3.239  0.00  0.00    -0.343 OA
ATOM     27  C   LIG    1       28.301 -14.164   5.631  0.00  0.00    +0.073 C 
ENDROOT
BRANCH  10  28
ATOM     28  O   LIG    1       21.946 -15.117   5.949  0.00  0.00    -0.389 OA
ATOM     29  H   LIG    1       21.166 -14.585   5.702  0.00  0.00    +0.210 HD
ENDBRANCH  10  28
BRANCH   4  30
ATOM     30  C   LIG    1       25.483 -12.082   2.601  0.00  0.00    +0.193 C 
ATOM     31  O   LIG    1       26.261 -11.531   1.815  0.00  0.00    -0.292 OA
BRANCH  30  32
ATOM     32  C   LIG    1       24.133 -11.447   2.909  0.00  0.00    +0.233 C 
BRANCH  32  33
ATOM     33  O   LIG    1       23.859 -11.465   4.305  0.00  0.00    -0.387 OA
ATOM     34  H   LIG    1       24.405 -12.184   4.683  0.00  0.00    +0.210 HD
ENDBRANCH  32  33
ENDBRANCH  30  32
ENDBRANCH   4  30
TORSDOF 4
ENDMDL
