MODEL 1
REMARK VINA RESULT:     -10.1      0.000      0.000
REMARK  Name = *****
REMARK                            x       y       z     vdW  Elec       q    Type
REMARK                         _______ _______ _______ _____ _____    ______ ____
ROOT
ATOM      1  C   LIG    1       24.938 -22.690   6.137  0.00  0.00    +0.067 C 
ENDROOT
BRANCH   1   2
ATOM      2  C   LIG    1       26.207 -21.797   6.478  0.00  0.00    +0.087 C 
ATOM      3  C   LIG    1       26.881 -20.823   5.815  0.00  0.00    +0.138 C 
ATOM      4  C   LIG    1       28.011 -20.098   6.364  0.00  0.00    +0.059 A 
ATOM      5  C   LIG    1       28.528 -20.514   7.566  0.00  0.00    +0.143 A 
ATOM      6  C   LIG    1       29.660 -19.895   8.077  0.00  0.00    +0.047 A 
ATOM      7  C   LIG    1       30.282 -18.873   7.345  0.00  0.00    +0.004 A 
ATOM      8  C   LIG    1       29.771 -18.457   6.121  0.00  0.00    +0.001 A 
ATOM      9  O   LIG    1       27.931 -21.559   8.263  0.00  0.00    -0.422 OA
ATOM     10  C   LIG    1       28.630 -19.061   5.641  0.00  0.00    +0.015 A 
ATOM     11  C   LIG    1       26.616 -21.909   7.935  0.00  0.00    +0.345 C 
ATOM     12  O   LIG    1       25.859 -22.298   8.773  0.00  0.00    -0.245 OA
BRANCH   3  13
ATOM     13  O   LIG    1       26.604 -20.314   4.575  0.00  0.00    -0.505 OA
ATOM     14  H   LIG    1       26.572 -21.116   3.995  0.00  0.00    +0.292 HD
ENDBRANCH   3  13
ENDBRANCH   1   2
BRANCH   1  15
ATOM     15  C   LIG    1       25.103 -24.244   6.223  0.00  0.00    -0.039 A 
ATOM     16  C   LIG    1       26.306 -24.907   6.466  0.00  0.00    +0.011 A 
ATOM     17  C   LIG    1       26.350 -26.322   6.535  0.00  0.00    +0.084 A 
ATOM     18  C   LIG    1       25.213 -27.104   6.288  0.00  0.00    +0.273 A 
ATOM     19  C   LIG    1       24.010 -26.478   6.063  0.00  0.00    +0.084 A 
ATOM     20  C   LIG    1       24.011 -25.100   6.175  0.00  0.00    +0.011 A 
BRANCH  18  21
ATOM     21  N   LIG    1       25.206 -28.554   6.383  0.00  0.00    +0.080 N 
ATOM     22  O   LIG    1       25.197 -29.047   7.519  0.00  0.00    -0.576 OA
ATOM     23  O   LIG    1       25.214 -29.223   5.344  0.00  0.00    +0.041 OA
ENDBRANCH  18  21
ENDBRANCH   1  15
BRANCH   1  24
ATOM     24  C   LIG    1       23.623 -22.283   6.897  0.00  0.00    +0.087 C 
BRANCH  24  26
ATOM     25  C   LIG    1       22.823 -20.117   5.671  0.00  0.00    +0.086 C 
ATOM     26  C   LIG    1       23.205 -20.816   6.956  0.00  0.00    +0.131 C 
ATOM     27  O   LIG    1       23.308 -20.172   8.002  0.00  0.00    -0.298 OA
ENDBRANCH  24  26
ENDBRANCH   1  24
TORSDOF 6
ENDMDL
MODEL 2
REMARK VINA RESULT:      -9.2      2.972      5.474
REMARK  Name = *****
REMARK                            x       y       z     vdW  Elec       q    Type
REMARK                         _______ _______ _______ _____ _____    ______ ____
ROOT
ATOM      1  C   LIG    1       25.334 -22.017   6.483  0.00  0.00    +0.067 C 
ENDROOT
BRANCH   1   2
ATOM      2  C   LIG    1       26.779 -21.505   6.901  0.00  0.00    +0.087 C 
ATOM      3  C   LIG    1       27.716 -20.729   6.298  0.00  0.00    +0.138 C 
ATOM      4  C   LIG    1       28.973 -20.348   6.913  0.00  0.00    +0.059 A 
ATOM      5  C   LIG    1       29.307 -20.918   8.116  0.00  0.00    +0.143 A 
ATOM      6  C   LIG    1       30.540 -20.639   8.689  0.00  0.00    +0.047 A 
ATOM      7  C   LIG    1       31.443 -19.801   8.017  0.00  0.00    +0.004 A 
ATOM      8  C   LIG    1       31.115 -19.231   6.793  0.00  0.00    +0.001 A 
ATOM      9  O   LIG    1       28.425 -21.784   8.753  0.00  0.00    -0.422 OA
ATOM     10  C   LIG    1       29.875 -19.495   6.251  0.00  0.00    +0.015 A 
ATOM     11  C   LIG    1       27.079 -21.761   8.366  0.00  0.00    +0.345 C 
ATOM     12  O   LIG    1       26.211 -21.956   9.163  0.00  0.00    -0.245 OA
BRANCH   3  13
ATOM     13  O   LIG    1       27.638 -20.132   5.070  0.00  0.00    -0.505 OA
ATOM     14  H   LIG    1       28.362 -20.567   4.552  0.00  0.00    +0.292 HD
ENDBRANCH   3  13
ENDBRANCH   1   2
BRANCH   1  15
ATOM     15  C   LIG    1       24.393 -21.005   5.749  0.00  0.00    -0.039 A 
ATOM     16  C   LIG    1       24.516 -20.624   4.413  0.00  0.00    +0.011 A 
ATOM     17  C   LIG    1       23.605 -19.705   3.837  0.00  0.00    +0.084 A 
ATOM     18  C   LIG    1       22.601 -19.091   4.599  0.00  0.00    +0.273 A 
ATOM     19  C   LIG    1       22.445 -19.459   5.914  0.00  0.00    +0.084 A 
ATOM     20  C   LIG    1       23.263 -20.480   6.361  0.00  0.00    +0.011 A 
BRANCH  18  21
ATOM     21  N   LIG    1       21.625 -18.170   4.040  0.00  0.00    +0.080 N 
ATOM     22  O   LIG    1       21.813 -16.962   4.231  0.00  0.00    -0.576 OA
ATOM     23  O   LIG    1       20.663 -18.625   3.412  0.00  0.00    +0.041 OA
ENDBRANCH  18  21
ENDBRANCH   1  15
BRANCH   1  24
ATOM     24  C   LIG    1       25.318 -23.378   5.696  0.00  0.00    +0.087 C 
BRANCH  24  26
ATOM     25  C   LIG    1       25.759 -25.755   6.689  0.00  0.00    +0.086 C 
ATOM     26  C   LIG    1       24.789 -24.640   6.372  0.00  0.00    +0.131 C 
ATOM     27  O   LIG    1       23.579 -24.809   6.533  0.00  0.00    -0.298 OA
ENDBRANCH  24  26
ENDBRANCH   1  24
TORSDOF 6
ENDMDL
MODEL 3
REMARK VINA RESULT:      -8.9      2.975      6.895
REMARK  Name = *****
REMARK                            x       y       z     vdW  Elec       q    Type
REMARK                         _______ _______ _______ _____ _____    ______ ____
ROOT
ATOM      1  C   LIG    1       25.095 -21.197   6.823  0.00  0.00    +0.067 C 
ENDROOT
BRANCH   1   2
ATOM      2  C   LIG    1       24.968 -22.765   6.602  0.00  0.00    +0.087 C 
ATOM      3  C   LIG    1       25.865 -23.773   6.449  0.00  0.00    +0.138 C 
ATOM      4  C   LIG    1       25.503 -25.170   6.309  0.00  0.00    +0.059 A 
ATOM      5  C   LIG    1       24.174 -25.486   6.177  0.00  0.00    +0.143 A 
ATOM      6  C   LIG    1       23.800 -26.804   5.957  0.00  0.00    +0.047 A 
ATOM      7  C   LIG    1       24.787 -27.794   5.841  0.00  0.00    +0.004 A 
ATOM      8  C   LIG    1       26.135 -27.478   5.960  0.00  0.00    +0.001 A 
ATOM      9  O   LIG    1       23.204 -24.492   6.248  0.00  0.00    -0.422 OA
ATOM     10  C   LIG    1       26.488 -26.169   6.207  0.00  0.00    +0.015 A 
ATOM     11  C   LIG    1       23.554 -23.266   6.828  0.00  0.00    +0.345 C 
ATOM     12  O   LIG    1       22.756 -22.638   7.458  0.00  0.00    -0.245 OA
BRANCH   3  13
ATOM     13  O   LIG    1       27.230 -23.680   6.454  0.00  0.00    -0.505 OA
ATOM     14  H   LIG    1       27.449 -23.404   5.528  0.00  0.00    +0.292 HD
ENDBRANCH   3  13
ENDBRANCH   1   2
BRANCH   1  15
ATOM     15  C   LIG    1       26.535 -20.585   6.851  0.00  0.00    -0.039 A 
ATOM     16  C   LIG    1       27.230 -20.127   5.731  0.00  0.00    +0.011 A 
ATOM     17  C   LIG    1       28.530 -19.579   5.862  0.00  0.00    +0.084 A 
ATOM     18  C   LIG    1       29.191 -19.547   7.098  0.00  0.00    +0.273 A 
ATOM     19  C   LIG    1       28.525 -19.976   8.221  0.00  0.00    +0.084 A 
ATOM     20  C   LIG    1       27.204 -20.342   8.042  0.00  0.00    +0.011 A 
BRANCH  18  21
ATOM     21  N   LIG    1       30.510 -18.963   7.283  0.00  0.00    +0.080 N 
ATOM     22  O   LIG    1       30.563 -17.840   7.800  0.00  0.00    -0.576 OA
ATOM     23  O   LIG    1       31.504 -19.600   6.920  0.00  0.00    +0.041 OA
ENDBRANCH  18  21
ENDBRANCH   1  15
BRANCH   1  24
ATOM     24  C   LIG    1       24.197 -20.323   5.873  0.00  0.00    +0.087 C 
BRANCH  24  26
ATOM     25  C   LIG    1       24.676 -19.229   3.547  0.00  0.00    +0.086 C 
ATOM     26  C   LIG    1       24.338 -20.459   4.359  0.00  0.00    +0.131 C 
ATOM     27  O   LIG    1       24.049 -21.514   3.791  0.00  0.00    -0.298 OA
ENDBRANCH  24  26
ENDBRANCH   1  24
TORSDOF 6
ENDMDL
MODEL 4
REMARK VINA RESULT:      -8.9      1.422      2.518
REMARK  Name = *****
REMARK                            x       y       z     vdW  Elec       q    Type
REMARK                         _______ _______ _______ _____ _____    ______ ____
ROOT
ATOM      1  C   LIG    1       24.655 -21.761   5.401  0.00  0.00    +0.067 C 
ENDROOT
BRANCH   1   2
ATOM      2  C   LIG    1       26.043 -21.081   5.769  0.00  0.00    +0.087 C 
ATOM      3  C   LIG    1       27.035 -21.375   6.648  0.00  0.00    +0.138 C 
ATOM      4  C   LIG    1       28.263 -20.613   6.772  0.00  0.00    +0.059 A 
ATOM      5  C   LIG    1       28.376 -19.442   6.066  0.00  0.00    +0.143 A 
ATOM      6  C   LIG    1       29.503 -18.649   6.228  0.00  0.00    +0.047 A 
ATOM      7  C   LIG    1       30.499 -19.037   7.135  0.00  0.00    +0.004 A 
ATOM      8  C   LIG    1       30.385 -20.215   7.863  0.00  0.00    +0.001 A 
ATOM      9  O   LIG    1       27.362 -19.041   5.203  0.00  0.00    -0.422 OA
ATOM     10  C   LIG    1       29.274 -21.007   7.669  0.00  0.00    +0.015 A 
ATOM     11  C   LIG    1       26.436 -20.002   4.777  0.00  0.00    +0.345 C 
ATOM     12  O   LIG    1       25.967 -19.954   3.679  0.00  0.00    -0.245 OA
BRANCH   3  13
ATOM     13  O   LIG    1       27.095 -22.434   7.513  0.00  0.00    -0.505 OA
ATOM     14  H   LIG    1       27.523 -22.052   8.320  0.00  0.00    +0.292 HD
ENDBRANCH   3  13
ENDBRANCH   1   2
BRANCH   1  15
ATOM     15  C   LIG    1       24.537 -23.310   5.588  0.00  0.00    -0.039 A 
ATOM     16  C   LIG    1       23.877 -23.939   6.644  0.00  0.00    +0.011 A 
ATOM     17  C   LIG    1       23.819 -25.353   6.720  0.00  0.00    +0.084 A 
ATOM     18  C   LIG    1       24.479 -26.165   5.787  0.00  0.00    +0.273 A 
ATOM     19  C   LIG    1       25.123 -25.574   4.727  0.00  0.00    +0.084 A 
ATOM     20  C   LIG    1       24.998 -24.200   4.628  0.00  0.00    +0.011 A 
BRANCH  18  21
ATOM     21  N   LIG    1       24.415 -27.618   5.808  0.00  0.00    +0.080 N 
ATOM     22  O   LIG    1       25.167 -28.227   5.037  0.00  0.00    -0.576 OA
ATOM     23  O   LIG    1       23.624 -28.172   6.578  0.00  0.00    +0.041 OA
ENDBRANCH  18  21
ENDBRANCH   1  15
BRANCH   1  24
ATOM     24  C   LIG    1       23.395 -21.080   6.049  0.00  0.00    +0.087 C 
BRANCH  24  26
ATOM     25  C   LIG    1       22.388 -18.956   4.906  0.00  0.00    +0.086 C 
ATOM     26  C   LIG    1       22.332 -20.446   5.156  0.00  0.00    +0.131 C 
ATOM     27  O   LIG    1       21.368 -21.102   4.759  0.00  0.00    -0.298 OA
ENDBRANCH  24  26
ENDBRANCH   1  24
TORSDOF 6
ENDMDL
MODEL 5
REMARK VINA RESULT:      -8.6      1.551      4.118
REMARK  Name = *****
REMARK                            x       y       z     vdW  Elec       q    Type
REMARK                         _______ _______ _______ _____ _____    ______ ____
ROOT
ATOM      1  C   LIG    1       25.703 -23.049   7.021  0.00  0.00    +0.067 C 
ENDROOT
BRANCH   1   2
ATOM      2  C   LIG    1       24.874 -21.886   6.324  0.00  0.00    +0.087 C 
ATOM      3  C   LIG    1       25.162 -20.961   5.373  0.00  0.00    +0.138 C 
ATOM      4  C   LIG    1       24.202 -20.010   4.847  0.00  0.00    +0.059 A 
ATOM      5  C   LIG    1       22.967 -19.937   5.441  0.00  0.00    +0.143 A 
ATOM      6  C   LIG    1       22.056 -18.981   5.016  0.00  0.00    +0.047 A 
ATOM      7  C   LIG    1       22.419 -18.079   4.005  0.00  0.00    +0.004 A 
ATOM      8  C   LIG    1       23.673 -18.139   3.409  0.00  0.00    +0.001 A 
ATOM      9  O   LIG    1       22.632 -20.806   6.474  0.00  0.00    -0.422 OA
ATOM     10  C   LIG    1       24.556 -19.113   3.822  0.00  0.00    +0.015 A 
ATOM     11  C   LIG    1       23.391 -21.973   6.631  0.00  0.00    +0.345 C 
ATOM     12  O   LIG    1       22.884 -22.985   7.012  0.00  0.00    -0.245 OA
BRANCH   3  13
ATOM     13  O   LIG    1       26.348 -20.788   4.712  0.00  0.00    -0.505 OA
ATOM     14  H   LIG    1       26.761 -20.014   5.172  0.00  0.00    +0.292 HD
ENDBRANCH   3  13
ENDBRANCH   1   2
BRANCH   1  15
ATOM     15  C   LIG    1       25.513 -24.502   6.471  0.00  0.00    -0.039 A 
ATOM     16  C   LIG    1       25.122 -24.819   5.170  0.00  0.00    +0.011 A 
ATOM     17  C   LIG    1       24.987 -26.170   4.765  0.00  0.00    +0.084 A 
ATOM     18  C   LIG    1       25.167 -27.227   5.667  0.00  0.00    +0.273 A 
ATOM     19  C   LIG    1       25.569 -26.946   6.951  0.00  0.00    +0.084 A 
ATOM     20  C   LIG    1       25.840 -25.619   7.227  0.00  0.00    +0.011 A 
BRANCH  18  21
ATOM     21  N   LIG    1       25.074 -28.627   5.285  0.00  0.00    +0.080 N 
ATOM     22  O   LIG    1       23.946 -29.137   5.279  0.00  0.00    -0.576 OA
ATOM     23  O   LIG    1       26.106 -29.238   4.990  0.00  0.00    +0.041 OA
ENDBRANCH  18  21
ENDBRANCH   1  15
BRANCH   1  24
ATOM     24  C   LIG    1       27.242 -22.765   7.168  0.00  0.00    +0.087 C 
BRANCH  24  26
ATOM     25  C   LIG    1       29.032 -20.880   7.445  0.00  0.00    +0.086 C 
ATOM     26  C   LIG    1       27.715 -21.492   7.865  0.00  0.00    +0.131 C 
ATOM     27  O   LIG    1       27.111 -21.046   8.842  0.00  0.00    -0.298 OA
ENDBRANCH  24  26
ENDBRANCH   1  24
TORSDOF 6
ENDMDL
MODEL 6
REMARK VINA RESULT:      -8.1      2.964      6.818
REMARK  Name = *****
REMARK                            x       y       z     vdW  Elec       q    Type
REMARK                         _______ _______ _______ _____ _____    ______ ____
ROOT
ATOM      1  C   LIG    1       25.495 -21.079   6.423  0.00  0.00    +0.067 C 
ENDROOT
BRANCH   1   2
ATOM      2  C   LIG    1       25.439 -22.665   6.342  0.00  0.00    +0.087 C 
ATOM      3  C   LIG    1       25.116 -23.549   5.364  0.00  0.00    +0.138 C 
ATOM      4  C   LIG    1       25.189 -24.990   5.514  0.00  0.00    +0.059 A 
ATOM      5  C   LIG    1       25.460 -25.501   6.758  0.00  0.00    +0.143 A 
ATOM      6  C   LIG    1       25.454 -26.875   6.953  0.00  0.00    +0.047 A 
ATOM      7  C   LIG    1       25.140 -27.725   5.882  0.00  0.00    +0.004 A 
ATOM      8  C   LIG    1       24.852 -27.213   4.623  0.00  0.00    +0.001 A 
ATOM      9  O   LIG    1       25.725 -24.649   7.825  0.00  0.00    -0.422 OA
ATOM     10  C   LIG    1       24.891 -25.848   4.439  0.00  0.00    +0.015 A 
ATOM     11  C   LIG    1       26.090 -23.327   7.542  0.00  0.00    +0.345 C 
ATOM     12  O   LIG    1       26.868 -22.745   8.237  0.00  0.00    -0.245 OA
BRANCH   3  13
ATOM     13  O   LIG    1       24.730 -23.269   4.081  0.00  0.00    -0.505 OA
ATOM     14  H   LIG    1       24.238 -22.414   4.167  0.00  0.00    +0.292 HD
ENDBRANCH   3  13
ENDBRANCH   1   2
BRANCH   1  15
ATOM     15  C   LIG    1       26.904 -20.413   6.565  0.00  0.00    -0.039 A 
ATOM     16  C   LIG    1       27.662 -19.913   5.506  0.00  0.00    +0.011 A 
ATOM     17  C   LIG    1       28.926 -19.317   5.740  0.00  0.00    +0.084 A 
ATOM     18  C   LIG    1       29.492 -19.277   7.022  0.00  0.00    +0.273 A 
ATOM     19  C   LIG    1       28.762 -19.747   8.087  0.00  0.00    +0.084 A 
ATOM     20  C   LIG    1       27.472 -20.161   7.806  0.00  0.00    +0.011 A 
BRANCH  18  21
ATOM     21  N   LIG    1       30.769 -18.645   7.311  0.00  0.00    +0.080 N 
ATOM     22  O   LIG    1       31.782 -19.173   6.835  0.00  0.00    -0.576 OA
ATOM     23  O   LIG    1       30.789 -17.626   8.011  0.00  0.00    +0.041 OA
ENDBRANCH  18  21
ENDBRANCH   1  15
BRANCH   1  24
ATOM     24  C   LIG    1       24.699 -20.333   5.292  0.00  0.00    +0.087 C 
BRANCH  24  26
ATOM     25  C   LIG    1       22.456 -19.086   4.794  0.00  0.00    +0.086 C 
ATOM     26  C   LIG    1       23.174 -20.303   5.331  0.00  0.00    +0.131 C 
ATOM     27  O   LIG    1       22.540 -21.187   5.912  0.00  0.00    -0.298 OA
ENDBRANCH  24  26
ENDBRANCH   1  24
TORSDOF 6
ENDMDL
MODEL 7
REMARK VINA RESULT:      -7.1      5.161      8.753
REMARK  Name = *****
REMARK                            x       y       z     vdW  Elec       q    Type
REMARK                         _______ _______ _______ _____ _____    ______ ____
ROOT
ATOM      1  C   LIG    1       24.779 -31.263   8.224  0.00  0.00    +0.067 C 
ENDROOT
BRANCH   1   2
ATOM      2  C   LIG    1       24.987 -29.778   7.698  0.00  0.00    +0.087 C 
ATOM      3  C   LIG    1       24.444 -29.049   6.690  0.00  0.00    +0.138 C 
ATOM      4  C   LIG    1       24.765 -27.659   6.428  0.00  0.00    +0.059 A 
ATOM      5  C   LIG    1       25.782 -27.081   7.145  0.00  0.00    +0.143 A 
ATOM      6  C   LIG    1       26.169 -25.779   6.861  0.00  0.00    +0.047 A 
ATOM      7  C   LIG    1       25.537 -25.080   5.821  0.00  0.00    +0.004 A 
ATOM      8  C   LIG    1       24.516 -25.664   5.083  0.00  0.00    +0.001 A 
ATOM      9  O   LIG    1       26.435 -27.797   8.143  0.00  0.00    -0.422 OA
ATOM     10  C   LIG    1       24.123 -26.947   5.398  0.00  0.00    +0.015 A 
ATOM     11  C   LIG    1       25.805 -28.937   8.660  0.00  0.00    +0.345 C 
ATOM     12  O   LIG    1       25.930 -29.236   9.809  0.00  0.00    -0.245 OA
BRANCH   3  13
ATOM     13  O   LIG    1       23.487 -29.446   5.797  0.00  0.00    -0.505 OA
ATOM     14  H   LIG    1       22.726 -28.840   5.985  0.00  0.00    +0.292 HD
ENDBRANCH   3  13
ENDBRANCH   1   2
BRANCH   1  15
ATOM     15  C   LIG    1       23.432 -31.590   8.951  0.00  0.00    -0.039 A 
ATOM     16  C   LIG    1       22.743 -32.800   8.851  0.00  0.00    +0.011 A 
ATOM     17  C   LIG    1       21.532 -33.002   9.558  0.00  0.00    +0.084 A 
ATOM     18  C   LIG    1       20.946 -31.978  10.316  0.00  0.00    +0.273 A 
ATOM     19  C   LIG    1       21.609 -30.782  10.446  0.00  0.00    +0.084 A 
ATOM     20  C   LIG    1       22.862 -30.715   9.865  0.00  0.00    +0.011 A 
BRANCH  18  21
ATOM     21  N   LIG    1       19.724 -32.154  11.084  0.00  0.00    +0.080 N 
ATOM     22  O   LIG    1       19.343 -33.315  11.283  0.00  0.00    -0.576 OA
ATOM     23  O   LIG    1       19.126 -31.155  11.497  0.00  0.00    +0.041 OA
ENDBRANCH  18  21
ENDBRANCH   1  15
BRANCH   1  24
ATOM     24  C   LIG    1       25.059 -32.385   7.159  0.00  0.00    +0.087 C 
BRANCH  24  26
ATOM     25  C   LIG    1       25.900 -31.936   4.725  0.00  0.00    +0.086 C 
ATOM     26  C   LIG    1       26.215 -32.225   6.175  0.00  0.00    +0.131 C 
ATOM     27  O   LIG    1       27.374 -32.463   6.520  0.00  0.00    -0.298 OA
ENDBRANCH  24  26
ENDBRANCH   1  24
TORSDOF 6
ENDMDL
