MODEL 1
REMARK VINA RESULT:      -2.2      0.000      0.000
REMARK  Name = *****
REMARK                            x       y       z     vdW  Elec       q    Type
REMARK                         _______ _______ _______ _____ _____    ______ ____
ROOT
ATOM      1  C   LIG    1       24.579 -18.385   3.414  0.00  0.00    +0.065 C 
ATOM      2  C   LIG    1       25.836 -17.505   3.328  0.00  0.00    +0.096 C 
ATOM      3  C   LIG    1       25.542 -16.019   3.581  0.00  0.00    +0.065 C 
ATOM      4  C   LIG    1       24.399 -15.655   4.213  0.00  0.00    +0.016 C 
ATOM      5  C   LIG    1       24.018 -14.241   4.570  0.00  0.00    +0.061 C 
ATOM      6  N   LIG    1       23.480 -16.630   4.578  0.00  0.00    -0.321 N 
ATOM      7  H   LIG    1       22.599 -16.300   4.970  0.00  0.00    +0.152 HD
ATOM      8  C   LIG    1       23.487 -17.923   4.082  0.00  0.00    +0.016 C 
ATOM      9  C   LIG    1       22.222 -18.717   4.301  0.00  0.00    +0.061 C 
ENDROOT
BRANCH   2  10
ATOM     10  C   LIG    1       26.918 -18.040   4.284  0.00  0.00    -0.029 A 
ATOM     11  C   LIG    1       26.686 -19.203   5.039  0.00  0.00    +0.088 A 
ATOM     12  C   LIG    1       27.674 -19.686   5.914  0.00  0.00    +0.273 A 
ATOM     13  C   LIG    1       28.895 -19.012   6.052  0.00  0.00    +0.084 A 
ATOM     14  C   LIG    1       29.128 -17.857   5.307  0.00  0.00    +0.007 A 
ATOM     15  C   LIG    1       28.152 -17.376   4.432  0.00  0.00    +0.005 A 
BRANCH  12  16
ATOM     16  N   LIG    1       27.433 -20.912   6.689  0.00  0.00    +0.080 N 
ATOM     17  O   LIG    1       26.258 -21.217   6.939  0.00  0.00    -0.576 OA
ATOM     18  O   LIG    1       28.420 -21.566   7.058  0.00  0.00    +0.041 OA
ENDBRANCH  12  16
ENDBRANCH   2  10
BRANCH   1  19
ATOM     19  C   LIG    1       24.582 -19.718   2.755  0.00  0.00    +0.338 C 
ATOM     20  O   LIG    1       25.307 -20.061   1.830  0.00  0.00    -0.245 OA
BRANCH  19  21
ATOM     21  O   LIG    1       23.697 -20.530   3.401  0.00  0.00    -0.462 OA
BRANCH  21  23
ATOM     22  C   LIG    1       23.404 -21.571   5.589  0.00  0.00    +0.048 C 
ATOM     23  C   LIG    1       24.241 -21.491   4.324  0.00  0.00    +0.229 C 
ENDBRANCH  21  23
ENDBRANCH  19  21
ENDBRANCH   1  19
BRANCH   3  24
ATOM     24  C   LIG    1       26.570 -15.094   3.026  0.00  0.00    +0.337 C 
ATOM     25  O   LIG    1       26.553 -14.687   1.872  0.00  0.00    -0.245 OA
BRANCH  24  26
ATOM     26  O   LIG    1       27.449 -14.703   3.977  0.00  0.00    -0.465 OA
ATOM     27  C   LIG    1       28.361 -13.657   3.632  0.00  0.00    +0.280 C 
ENDBRANCH  24  26
ENDBRANCH   3  24
TORSDOF 7
ENDMDL
MODEL 2
REMARK VINA RESULT:       0.4      2.361      6.401
REMARK  Name = *****
REMARK                            x       y       z     vdW  Elec       q    Type
REMARK                         _______ _______ _______ _____ _____    ______ ____
ROOT
ATOM      1  C   LIG    1       25.057 -18.956   4.114  0.00  0.00    +0.065 C 
ATOM      2  C   LIG    1       23.550 -18.699   3.964  0.00  0.00    +0.096 C 
ATOM      3  C   LIG    1       22.691 -19.757   4.671  0.00  0.00    +0.065 C 
ATOM      4  C   LIG    1       23.238 -20.536   5.637  0.00  0.00    +0.016 C 
ATOM      5  C   LIG    1       22.494 -21.570   6.443  0.00  0.00    +0.061 C 
ATOM      6  N   LIG    1       24.587 -20.403   5.938  0.00  0.00    -0.321 N 
ATOM      7  H   LIG    1       24.971 -21.069   6.608  0.00  0.00    +0.152 HD
ATOM      8  C   LIG    1       25.500 -19.750   5.127  0.00  0.00    +0.016 C 
ATOM      9  C   LIG    1       26.954 -20.020   5.426  0.00  0.00    +0.061 C 
ENDROOT
BRANCH   2  10
ATOM     10  C   LIG    1       23.209 -17.277   4.447  0.00  0.00    -0.029 A 
ATOM     11  C   LIG    1       23.837 -16.160   3.865  0.00  0.00    +0.088 A 
ATOM     12  C   LIG    1       23.527 -14.865   4.311  0.00  0.00    +0.273 A 
ATOM     13  C   LIG    1       22.599 -14.668   5.342  0.00  0.00    +0.084 A 
ATOM     14  C   LIG    1       21.976 -15.771   5.923  0.00  0.00    +0.007 A 
ATOM     15  C   LIG    1       22.276 -17.062   5.480  0.00  0.00    +0.005 A 
BRANCH  12  16
ATOM     16  N   LIG    1       24.175 -13.700   3.689  0.00  0.00    +0.080 N 
ATOM     17  O   LIG    1       24.744 -12.888   4.433  0.00  0.00    -0.576 OA
ATOM     18  O   LIG    1       24.107 -13.591   2.455  0.00  0.00    +0.041 OA
ENDBRANCH  12  16
ENDBRANCH   2  10
BRANCH   1  19
ATOM     19  C   LIG    1       25.998 -18.339   3.141  0.00  0.00    +0.338 C 
ATOM     20  O   LIG    1       26.068 -18.598   1.947  0.00  0.00    -0.245 OA
BRANCH  19  21
ATOM     21  O   LIG    1       26.722 -17.377   3.779  0.00  0.00    -0.462 OA
BRANCH  21  23
ATOM     22  C   LIG    1       27.529 -15.088   4.038  0.00  0.00    +0.048 C 
ATOM     23  C   LIG    1       26.730 -16.063   3.190  0.00  0.00    +0.229 C 
ENDBRANCH  21  23
ENDBRANCH  19  21
ENDBRANCH   1  19
BRANCH   3  24
ATOM     24  C   LIG    1       21.297 -19.853   4.152  0.00  0.00    +0.337 C 
ATOM     25  O   LIG    1       20.637 -20.883   4.191  0.00  0.00    -0.245 OA
BRANCH  24  26
ATOM     26  O   LIG    1       20.842 -18.652   3.730  0.00  0.00    -0.465 OA
ATOM     27  C   LIG    1       19.582 -18.632   3.056  0.00  0.00    +0.280 C 
ENDBRANCH  24  26
ENDBRANCH   3  24
TORSDOF 7
ENDMDL
