MODEL 1
REMARK VINA RESULT:      -8.7      0.000      0.000
REMARK  Name = *****
REMARK                            x       y       z     vdW  Elec       q    Type
REMARK                         _______ _______ _______ _____ _____    ______ ____
ROOT
ATOM      1  N   LIG    1       25.514 -22.067   7.549  0.00  0.00    -0.314 N 
ENDROOT
BRANCH   1   2
ATOM      2  C   LIG    1       25.150 -23.316   7.050  0.00  0.00    +0.030 A 
ATOM      3  C   LIG    1       23.807 -23.673   6.822  0.00  0.00    +0.023 A 
ATOM      4  C   LIG    1       23.432 -24.929   6.321  0.00  0.00    +0.002 A 
ATOM      5  C   LIG    1       24.398 -25.880   6.029  0.00  0.00    +0.000 A 
ATOM      6  C   LIG    1       25.732 -25.571   6.244  0.00  0.00    +0.002 A 
ATOM      7  C   LIG    1       26.094 -24.315   6.750  0.00  0.00    +0.023 A 
ENDBRANCH   1   2
BRANCH   1   8
ATOM      8  C   LIG    1       24.608 -20.906   7.562  0.00  0.00    +0.140 C 
BRANCH   8  12
ATOM      9  C   LIG    1       23.552 -19.477   3.613  0.00  0.00    +0.000 A 
ATOM     10  C   LIG    1       24.870 -19.840   3.886  0.00  0.00    +0.000 A 
ATOM     11  C   LIG    1       25.222 -20.306   5.157  0.00  0.00    +0.005 A 
ATOM     12  C   LIG    1       24.265 -20.401   6.176  0.00  0.00    -0.030 A 
ATOM     13  C   LIG    1       22.936 -20.055   5.875  0.00  0.00    +0.005 A 
ATOM     14  C   LIG    1       22.583 -19.593   4.606  0.00  0.00    +0.000 A 
ENDBRANCH   8  12
ENDBRANCH   1   8
BRANCH   1  15
ATOM     15  C   LIG    1       26.712 -21.927   8.416  0.00  0.00    +0.233 C 
BRANCH  15  16
ATOM     16  C   LIG    1       27.754 -21.018   7.766  0.00  0.00    +0.298 C 
ATOM     17  N   LIG    1       28.187 -21.226   6.469  0.00  0.00    -0.232 N 
ATOM     18  H   LIG    1       27.460 -21.576   5.855  0.00  0.00    +0.291 HD
ATOM     19  C   LIG    1       28.879 -20.031   6.048  0.00  0.00    +0.273 C 
ATOM     20  C   LIG    1       29.200 -19.383   7.400  0.00  0.00    +0.333 C 
ATOM     21  N   LIG    1       28.283 -20.004   8.402  0.00  0.00    -0.082 NA
ENDBRANCH  15  16
ENDBRANCH   1  15
TORSDOF 5
ENDMDL
MODEL 2
REMARK VINA RESULT:      -8.7      0.050      1.079
REMARK  Name = *****
REMARK                            x       y       z     vdW  Elec       q    Type
REMARK                         _______ _______ _______ _____ _____    ______ ____
ROOT
ATOM      1  N   LIG    1       25.551 -22.045   7.546  0.00  0.00    -0.314 N 
ENDROOT
BRANCH   1   2
ATOM      2  C   LIG    1       25.159 -23.290   7.057  0.00  0.00    +0.030 A 
ATOM      3  C   LIG    1       23.806 -23.624   6.851  0.00  0.00    +0.023 A 
ATOM      4  C   LIG    1       23.404 -24.876   6.360  0.00  0.00    +0.002 A 
ATOM      5  C   LIG    1       24.349 -25.843   6.058  0.00  0.00    +0.000 A 
ATOM      6  C   LIG    1       25.691 -25.556   6.252  0.00  0.00    +0.002 A 
ATOM      7  C   LIG    1       26.081 -24.304   6.748  0.00  0.00    +0.023 A 
ENDBRANCH   1   2
BRANCH   1   8
ATOM      8  C   LIG    1       24.666 -20.866   7.563  0.00  0.00    +0.140 C 
BRANCH   8  12
ATOM      9  C   LIG    1       23.596 -19.525   3.587  0.00  0.00    +0.000 A 
ATOM     10  C   LIG    1       22.614 -19.616   4.572  0.00  0.00    +0.000 A 
ATOM     11  C   LIG    1       22.948 -20.045   5.861  0.00  0.00    +0.005 A 
ATOM     12  C   LIG    1       24.266 -20.403   6.178  0.00  0.00    -0.030 A 
ATOM     13  C   LIG    1       25.248 -20.280   5.179  0.00  0.00    +0.005 A 
ATOM     14  C   LIG    1       24.915 -19.848   3.894  0.00  0.00    +0.000 A 
ENDBRANCH   8  12
ENDBRANCH   1   8
BRANCH   1  15
ATOM     15  C   LIG    1       26.760 -21.923   8.402  0.00  0.00    +0.233 C 
BRANCH  15  16
ATOM     16  C   LIG    1       27.797 -21.005   7.755  0.00  0.00    +0.298 C 
ATOM     17  N   LIG    1       28.207 -21.188   6.447  0.00  0.00    -0.232 N 
ATOM     18  H   LIG    1       27.469 -21.522   5.837  0.00  0.00    +0.291 HD
ATOM     19  C   LIG    1       28.900 -19.989   6.041  0.00  0.00    +0.273 C 
ATOM     20  C   LIG    1       29.246 -19.371   7.400  0.00  0.00    +0.333 C 
ATOM     21  N   LIG    1       28.341 -20.008   8.403  0.00  0.00    -0.082 NA
ENDBRANCH  15  16
ENDBRANCH   1  15
TORSDOF 5
ENDMDL
MODEL 3
REMARK VINA RESULT:      -8.4      1.388      4.680
REMARK  Name = *****
REMARK                            x       y       z     vdW  Elec       q    Type
REMARK                         _______ _______ _______ _____ _____    ______ ____
ROOT
ATOM      1  N   LIG    1       25.736 -21.709   6.378  0.00  0.00    -0.314 N 
ENDROOT
BRANCH   1   2
ATOM      2  C   LIG    1       26.995 -21.162   6.620  0.00  0.00    +0.030 A 
ATOM      3  C   LIG    1       27.501 -20.080   5.873  0.00  0.00    +0.023 A 
ATOM      4  C   LIG    1       28.768 -19.524   6.111  0.00  0.00    +0.002 A 
ATOM      5  C   LIG    1       29.578 -20.038   7.111  0.00  0.00    +0.000 A 
ATOM      6  C   LIG    1       29.120 -21.106   7.866  0.00  0.00    +0.002 A 
ATOM      7  C   LIG    1       27.855 -21.656   7.617  0.00  0.00    +0.023 A 
ENDBRANCH   1   2
BRANCH   1   8
ATOM      8  C   LIG    1       25.114 -21.747   5.043  0.00  0.00    +0.140 C 
BRANCH   8  12
ATOM      9  C   LIG    1       22.561 -18.341   4.249  0.00  0.00    +0.000 A 
ATOM     10  C   LIG    1       22.191 -19.267   5.221  0.00  0.00    +0.000 A 
ATOM     11  C   LIG    1       23.009 -20.370   5.489  0.00  0.00    +0.005 A 
ATOM     12  C   LIG    1       24.200 -20.568   4.777  0.00  0.00    -0.030 A 
ATOM     13  C   LIG    1       24.570 -19.610   3.818  0.00  0.00    +0.005 A 
ATOM     14  C   LIG    1       23.755 -18.507   3.553  0.00  0.00    +0.000 A 
ENDBRANCH   8  12
ENDBRANCH   1   8
BRANCH   1  15
ATOM     15  C   LIG    1       25.101 -22.600   7.383  0.00  0.00    +0.233 C 
BRANCH  15  16
ATOM     16  C   LIG    1       25.001 -24.031   6.858  0.00  0.00    +0.298 C 
ATOM     17  N   LIG    1       23.791 -24.576   6.468  0.00  0.00    -0.232 N 
ATOM     18  H   LIG    1       23.168 -23.902   6.036  0.00  0.00    +0.291 HD
ATOM     19  C   LIG    1       24.080 -25.774   5.716  0.00  0.00    +0.273 C 
ATOM     20  C   LIG    1       25.512 -26.072   6.172  0.00  0.00    +0.333 C 
ATOM     21  N   LIG    1       26.051 -24.805   6.752  0.00  0.00    -0.082 NA
ENDBRANCH  15  16
ENDBRANCH   1  15
TORSDOF 5
ENDMDL
MODEL 4
REMARK VINA RESULT:      -8.3      1.495      4.726
REMARK  Name = *****
REMARK                            x       y       z     vdW  Elec       q    Type
REMARK                         _______ _______ _______ _____ _____    ______ ____
ROOT
ATOM      1  N   LIG    1       25.491 -21.960   6.355  0.00  0.00    -0.314 N 
ENDROOT
BRANCH   1   2
ATOM      2  C   LIG    1       26.722 -21.359   6.614  0.00  0.00    +0.030 A 
ATOM      3  C   LIG    1       27.547 -21.764   7.682  0.00  0.00    +0.023 A 
ATOM      4  C   LIG    1       28.786 -21.162   7.949  0.00  0.00    +0.002 A 
ATOM      5  C   LIG    1       29.245 -20.126   7.152  0.00  0.00    +0.000 A 
ATOM      6  C   LIG    1       28.462 -19.693   6.093  0.00  0.00    +0.002 A 
ATOM      7  C   LIG    1       27.222 -20.298   5.839  0.00  0.00    +0.023 A 
ENDBRANCH   1   2
BRANCH   1   8
ATOM      8  C   LIG    1       24.855 -21.962   5.026  0.00  0.00    +0.140 C 
BRANCH   8  12
ATOM      9  C   LIG    1       22.594 -18.361   4.205  0.00  0.00    +0.000 A 
ATOM     10  C   LIG    1       22.190 -19.209   5.234  0.00  0.00    +0.000 A 
ATOM     11  C   LIG    1       22.914 -20.373   5.511  0.00  0.00    +0.005 A 
ATOM     12  C   LIG    1       24.043 -20.713   4.752  0.00  0.00    -0.030 A 
ATOM     13  C   LIG    1       24.450 -19.832   3.735  0.00  0.00    +0.005 A 
ATOM     14  C   LIG    1       23.729 -18.668   3.461  0.00  0.00    +0.000 A 
ENDBRANCH   8  12
ENDBRANCH   1   8
BRANCH   1  15
ATOM     15  C   LIG    1       24.917 -22.936   7.317  0.00  0.00    +0.233 C 
BRANCH  15  16
ATOM     16  C   LIG    1       24.886 -24.341   6.716  0.00  0.00    +0.298 C 
ATOM     17  N   LIG    1       26.049 -25.018   6.400  0.00  0.00    -0.232 N 
ATOM     18  H   LIG    1       26.812 -24.827   7.041  0.00  0.00    +0.291 HD
ATOM     19  C   LIG    1       25.700 -26.403   6.193  0.00  0.00    +0.273 C 
ATOM     20  C   LIG    1       24.192 -26.294   5.941  0.00  0.00    +0.333 C 
ATOM     21  N   LIG    1       23.762 -24.967   6.476  0.00  0.00    -0.082 NA
ENDBRANCH  15  16
ENDBRANCH   1  15
TORSDOF 5
ENDMDL
MODEL 5
REMARK VINA RESULT:      -8.3      1.692      5.146
REMARK  Name = *****
REMARK                            x       y       z     vdW  Elec       q    Type
REMARK                         _______ _______ _______ _____ _____    ______ ____
ROOT
ATOM      1  N   LIG    1       24.347 -21.944   6.679  0.00  0.00    -0.314 N 
ENDROOT
BRANCH   1   2
ATOM      2  C   LIG    1       23.945 -21.051   5.688  0.00  0.00    +0.030 A 
ATOM      3  C   LIG    1       22.962 -20.068   5.914  0.00  0.00    +0.023 A 
ATOM      4  C   LIG    1       22.551 -19.166   4.920  0.00  0.00    +0.002 A 
ATOM      5  C   LIG    1       23.114 -19.219   3.656  0.00  0.00    +0.000 A 
ATOM      6  C   LIG    1       24.082 -20.175   3.389  0.00  0.00    +0.002 A 
ATOM      7  C   LIG    1       24.481 -21.074   4.388  0.00  0.00    +0.023 A 
ENDBRANCH   1   2
BRANCH   1   8
ATOM      8  C   LIG    1       25.206 -21.561   7.814  0.00  0.00    +0.140 C 
BRANCH   8  12
ATOM      9  C   LIG    1       29.224 -20.417   6.677  0.00  0.00    +0.000 A 
ATOM     10  C   LIG    1       28.135 -19.865   6.006  0.00  0.00    +0.000 A 
ATOM     11  C   LIG    1       26.832 -20.224   6.366  0.00  0.00    +0.005 A 
ATOM     12  C   LIG    1       26.602 -21.151   7.393  0.00  0.00    -0.030 A 
ATOM     13  C   LIG    1       27.712 -21.678   8.075  0.00  0.00    +0.005 A 
ATOM     14  C   LIG    1       29.012 -21.316   7.718  0.00  0.00    +0.000 A 
ENDBRANCH   8  12
ENDBRANCH   1   8
BRANCH   1  15
ATOM     15  C   LIG    1       23.648 -23.244   6.845  0.00  0.00    +0.233 C 
BRANCH  15  16
ATOM     16  C   LIG    1       24.516 -24.399   6.347  0.00  0.00    +0.298 C 
ATOM     17  N   LIG    1       24.120 -25.198   5.291  0.00  0.00    -0.232 N 
ATOM     18  H   LIG    1       23.602 -24.695   4.578  0.00  0.00    +0.291 HD
ATOM     19  C   LIG    1       25.278 -25.941   4.855  0.00  0.00    +0.273 C 
ATOM     20  C   LIG    1       26.183 -25.831   6.087  0.00  0.00    +0.333 C 
ATOM     21  N   LIG    1       25.671 -24.683   6.894  0.00  0.00    -0.082 NA
ENDBRANCH  15  16
ENDBRANCH   1  15
TORSDOF 5
ENDMDL
MODEL 6
REMARK VINA RESULT:      -8.2      0.959      4.180
REMARK  Name = *****
REMARK                            x       y       z     vdW  Elec       q    Type
REMARK                         _______ _______ _______ _____ _____    ______ ____
ROOT
ATOM      1  N   LIG    1       26.072 -21.231   7.110  0.00  0.00    -0.314 N 
ENDROOT
BRANCH   1   2
ATOM      2  C   LIG    1       25.133 -20.729   6.210  0.00  0.00    +0.030 A 
ATOM      3  C   LIG    1       23.791 -20.503   6.572  0.00  0.00    +0.023 A 
ATOM      4  C   LIG    1       22.839 -19.999   5.672  0.00  0.00    +0.002 A 
ATOM      5  C   LIG    1       23.203 -19.702   4.368  0.00  0.00    +0.000 A 
ATOM      6  C   LIG    1       24.513 -19.915   3.969  0.00  0.00    +0.002 A 
ATOM      7  C   LIG    1       25.453 -20.424   4.876  0.00  0.00    +0.023 A 
ENDBRANCH   1   2
BRANCH   1   8
ATOM      8  C   LIG    1       26.691 -22.561   6.975  0.00  0.00    +0.140 C 
BRANCH   8  12
ATOM      9  C   LIG    1       23.875 -25.736   6.116  0.00  0.00    +0.000 A 
ATOM     10  C   LIG    1       23.412 -24.520   6.613  0.00  0.00    +0.000 A 
ATOM     11  C   LIG    1       24.311 -23.485   6.892  0.00  0.00    +0.005 A 
ATOM     12  C   LIG    1       25.688 -23.659   6.690  0.00  0.00    -0.030 A 
ATOM     13  C   LIG    1       26.134 -24.884   6.164  0.00  0.00    +0.005 A 
ATOM     14  C   LIG    1       25.236 -25.915   5.883  0.00  0.00    +0.000 A 
ENDBRANCH   8  12
ENDBRANCH   1   8
BRANCH   1  15
ATOM     15  C   LIG    1       26.765 -20.319   8.056  0.00  0.00    +0.233 C 
BRANCH  15  16
ATOM     16  C   LIG    1       28.231 -20.139   7.667  0.00  0.00    +0.298 C 
ATOM     17  N   LIG    1       28.594 -19.581   6.455  0.00  0.00    -0.232 N 
ATOM     18  H   LIG    1       27.960 -18.853   6.142  0.00  0.00    +0.291 HD
ATOM     19  C   LIG    1       29.993 -19.237   6.540  0.00  0.00    +0.273 C 
ATOM     20  C   LIG    1       30.444 -20.114   7.714  0.00  0.00    +0.333 C 
ATOM     21  N   LIG    1       29.208 -20.501   8.459  0.00  0.00    -0.082 NA
ENDBRANCH  15  16
ENDBRANCH   1  15
TORSDOF 5
ENDMDL
MODEL 7
REMARK VINA RESULT:      -8.1      0.953      4.120
REMARK  Name = *****
REMARK                            x       y       z     vdW  Elec       q    Type
REMARK                         _______ _______ _______ _____ _____    ______ ____
ROOT
ATOM      1  N   LIG    1       26.076 -21.258   7.172  0.00  0.00    -0.314 N 
ENDROOT
BRANCH   1   2
ATOM      2  C   LIG    1       25.127 -20.778   6.271  0.00  0.00    +0.030 A 
ATOM      3  C   LIG    1       25.442 -20.492   4.928  0.00  0.00    +0.023 A 
ATOM      4  C   LIG    1       24.492 -20.008   4.015  0.00  0.00    +0.002 A 
ATOM      5  C   LIG    1       23.185 -19.792   4.419  0.00  0.00    +0.000 A 
ATOM      6  C   LIG    1       22.834 -20.055   5.734  0.00  0.00    +0.002 A 
ATOM      7  C   LIG    1       23.792 -20.533   6.638  0.00  0.00    +0.023 A 
ENDBRANCH   1   2
BRANCH   1   8
ATOM      8  C   LIG    1       26.702 -22.587   7.057  0.00  0.00    +0.140 C 
BRANCH   8  12
ATOM      9  C   LIG    1       23.829 -25.681   6.097  0.00  0.00    +0.000 A 
ATOM     10  C   LIG    1       25.187 -25.911   5.884  0.00  0.00    +0.000 A 
ATOM     11  C   LIG    1       26.125 -24.920   6.193  0.00  0.00    +0.005 A 
ATOM     12  C   LIG    1       25.716 -23.681   6.706  0.00  0.00    -0.030 A 
ATOM     13  C   LIG    1       24.344 -23.477   6.937  0.00  0.00    +0.005 A 
ATOM     14  C   LIG    1       23.409 -24.467   6.632  0.00  0.00    +0.000 A 
ENDBRANCH   8  12
ENDBRANCH   1   8
BRANCH   1  15
ATOM     15  C   LIG    1       26.772 -20.324   8.094  0.00  0.00    +0.233 C 
BRANCH  15  16
ATOM     16  C   LIG    1       28.228 -20.126   7.676  0.00  0.00    +0.298 C 
ATOM     17  N   LIG    1       28.560 -19.598   6.442  0.00  0.00    -0.232 N 
ATOM     18  H   LIG    1       27.907 -18.894   6.117  0.00  0.00    +0.291 HD
ATOM     19  C   LIG    1       29.953 -19.223   6.494  0.00  0.00    +0.273 C 
ATOM     20  C   LIG    1       30.440 -20.054   7.686  0.00  0.00    +0.333 C 
ATOM     21  N   LIG    1       29.224 -20.443   8.462  0.00  0.00    -0.082 NA
ENDBRANCH  15  16
ENDBRANCH   1  15
TORSDOF 5
ENDMDL
MODEL 8
REMARK VINA RESULT:      -7.8      2.068      5.587
REMARK  Name = *****
REMARK                            x       y       z     vdW  Elec       q    Type
REMARK                         _______ _______ _______ _____ _____    ______ ____
ROOT
ATOM      1  N   LIG    1       24.577 -23.543   6.368  0.00  0.00    -0.314 N 
ENDROOT
BRANCH   1   2
ATOM      2  C   LIG    1       24.149 -22.325   5.842  0.00  0.00    +0.030 A 
ATOM      3  C   LIG    1       24.691 -21.785   4.659  0.00  0.00    +0.023 A 
ATOM      4  C   LIG    1       24.267 -20.559   4.124  0.00  0.00    +0.002 A 
ATOM      5  C   LIG    1       23.278 -19.826   4.759  0.00  0.00    +0.000 A 
ATOM      6  C   LIG    1       22.721 -20.319   5.929  0.00  0.00    +0.002 A 
ATOM      7  C   LIG    1       23.157 -21.542   6.458  0.00  0.00    +0.023 A 
ENDBRANCH   1   2
BRANCH   1   8
ATOM      8  C   LIG    1       25.764 -23.679   7.231  0.00  0.00    +0.140 C 
BRANCH   8  12
ATOM      9  C   LIG    1       27.604 -19.902   8.277  0.00  0.00    +0.000 A 
ATOM     10  C   LIG    1       26.384 -20.256   8.849  0.00  0.00    +0.000 A 
ATOM     11  C   LIG    1       25.781 -21.475   8.521  0.00  0.00    +0.005 A 
ATOM     12  C   LIG    1       26.384 -22.349   7.606  0.00  0.00    -0.030 A 
ATOM     13  C   LIG    1       27.627 -21.986   7.058  0.00  0.00    +0.005 A 
ATOM     14  C   LIG    1       28.230 -20.772   7.388  0.00  0.00    +0.000 A 
ENDBRANCH   8  12
ENDBRANCH   1   8
BRANCH   1  15
ATOM     15  C   LIG    1       23.664 -24.715   6.382  0.00  0.00    +0.233 C 
BRANCH  15  16
ATOM     16  C   LIG    1       24.343 -25.943   5.778  0.00  0.00    +0.298 C 
ATOM     17  N   LIG    1       25.261 -25.829   4.750  0.00  0.00    -0.232 N 
ATOM     18  H   LIG    1       25.833 -24.993   4.813  0.00  0.00    +0.291 HD
ATOM     19  C   LIG    1       25.957 -27.090   4.651  0.00  0.00    +0.273 C 
ATOM     20  C   LIG    1       24.983 -28.024   5.379  0.00  0.00    +0.333 C 
ATOM     21  N   LIG    1       24.090 -27.154   6.203  0.00  0.00    -0.082 NA
ENDBRANCH  15  16
ENDBRANCH   1  15
TORSDOF 5
ENDMDL
MODEL 9
REMARK VINA RESULT:      -7.7      1.442      5.233
REMARK  Name = *****
REMARK                            x       y       z     vdW  Elec       q    Type
REMARK                         _______ _______ _______ _____ _____    ______ ____
ROOT
ATOM      1  N   LIG    1       24.313 -22.829   5.643  0.00  0.00    -0.314 N 
ENDROOT
BRANCH   1   2
ATOM      2  C   LIG    1       23.934 -21.583   5.145  0.00  0.00    +0.030 A 
ATOM      3  C   LIG    1       22.716 -20.970   5.500  0.00  0.00    +0.023 A 
ATOM      4  C   LIG    1       22.327 -19.717   5.002  0.00  0.00    +0.002 A 
ATOM      5  C   LIG    1       23.151 -19.030   4.125  0.00  0.00    +0.000 A 
ATOM      6  C   LIG    1       24.356 -19.600   3.745  0.00  0.00    +0.002 A 
ATOM      7  C   LIG    1       24.731 -20.855   4.245  0.00  0.00    +0.023 A 
ENDBRANCH   1   2
BRANCH   1   8
ATOM      8  C   LIG    1       24.917 -23.883   4.810  0.00  0.00    +0.140 C 
BRANCH   8  12
ATOM      9  C   LIG    1       25.353 -27.667   6.870  0.00  0.00    +0.000 A 
ATOM     10  C   LIG    1       24.213 -27.426   6.106  0.00  0.00    +0.000 A 
ATOM     11  C   LIG    1       24.062 -26.208   5.433  0.00  0.00    +0.005 A 
ATOM     12  C   LIG    1       25.043 -25.211   5.528  0.00  0.00    -0.030 A 
ATOM     13  C   LIG    1       26.198 -25.483   6.282  0.00  0.00    +0.005 A 
ATOM     14  C   LIG    1       26.350 -26.699   6.950  0.00  0.00    +0.000 A 
ENDBRANCH   8  12
ENDBRANCH   1   8
BRANCH   1  15
ATOM     15  C   LIG    1       24.457 -23.039   7.106  0.00  0.00    +0.233 C 
BRANCH  15  16
ATOM     16  C   LIG    1       25.467 -22.059   7.702  0.00  0.00    +0.298 C 
ATOM     17  N   LIG    1       26.812 -22.131   7.394  0.00  0.00    -0.232 N 
ATOM     18  H   LIG    1       26.991 -22.425   6.440  0.00  0.00    +0.291 HD
ATOM     19  C   LIG    1       27.420 -20.893   7.821  0.00  0.00    +0.273 C 
ATOM     20  C   LIG    1       26.377 -20.381   8.821  0.00  0.00    +0.333 C 
ATOM     21  N   LIG    1       25.107 -21.109   8.527  0.00  0.00    -0.082 NA
ENDBRANCH  15  16
ENDBRANCH   1  15
TORSDOF 5
ENDMDL
