MODEL 1
REMARK VINA RESULT:      -8.5      0.000      0.000
REMARK  Name = *****
REMARK                            x       y       z     vdW  Elec       q    Type
REMARK                         _______ _______ _______ _____ _____    ______ ____
ROOT
ATOM      1  N   LIG    1       24.491 -22.556   6.905  0.00  0.00    -0.279 N 
ATOM      2  H   LIG    1       23.623 -22.227   7.304  0.00  0.00    +0.155 HD
ENDROOT
BRANCH   1   3
ATOM      3  C   LIG    1       25.266 -21.548   6.290  0.00  0.00    +0.130 A 
ATOM      4  N   LIG    1       24.803 -20.814   5.276  0.00  0.00    -0.217 NA
ATOM      5  C   LIG    1       25.640 -19.930   4.710  0.00  0.00    +0.130 A 
ATOM      6  C   LIG    1       25.091 -19.155   3.552  0.00  0.00    +0.088 C 
ATOM      7  N   LIG    1       26.919 -19.725   5.079  0.00  0.00    -0.217 NA
ATOM      8  C   LIG    1       27.395 -20.456   6.100  0.00  0.00    +0.127 A 
ATOM      9  C   LIG    1       26.566 -21.387   6.720  0.00  0.00    +0.087 A 
BRANCH   8  10
ATOM     10  N   LIG    1       28.736 -20.294   6.511  0.00  0.00    -0.313 N 
ATOM     11  C   LIG    1       29.064 -20.843   7.838  0.00  0.00    +0.122 C 
ATOM     12  C   LIG    1       30.513 -20.588   8.268  0.00  0.00    +0.103 C 
ATOM     13  N   LIG    1       30.934 -19.177   8.178  0.00  0.00    -0.297 NA
ATOM     14  C   LIG    1       30.752 -18.784   6.755  0.00  0.00    +0.103 C 
ATOM     15  C   LIG    1       29.318 -18.972   6.176  0.00  0.00    +0.122 C 
BRANCH  13  16
ATOM     16  C   LIG    1       30.158 -18.281   9.068  0.00  0.00    +0.112 C 
BRANCH  16  17
ATOM     17  C   LIG    1       30.960 -17.759  10.273  0.00  0.00    +0.171 C 
BRANCH  17  18
ATOM     18  O   LIG    1       32.334 -18.109  10.162  0.00  0.00    -0.394 OA
ATOM     19  H   LIG    1       32.347 -19.028   9.831  0.00  0.00    +0.209 HD
ENDBRANCH  17  18
ENDBRANCH  16  17
ENDBRANCH  13  16
ENDBRANCH   8  10
ENDBRANCH   1   3
BRANCH   1  22
ATOM     20  C   LIG    1       24.992 -26.262   6.474  0.00  0.00    +0.095 A 
ATOM     21  S   LIG    1       25.904 -24.870   6.789  0.00  0.00    -0.048 S 
ATOM     22  C   LIG    1       24.509 -23.879   6.623  0.00  0.00    +0.164 A 
ATOM     23  N   LIG    1       23.424 -24.536   6.269  0.00  0.00    -0.232 NA
ATOM     24  C   LIG    1       23.691 -25.896   6.161  0.00  0.00    +0.133 A 
BRANCH  20  27
ATOM     25  N   LIG    1       25.091 -28.288   7.692  0.00  0.00    -0.280 N 
ATOM     26  H   LIG    1       24.231 -27.938   8.086  0.00  0.00    +0.155 HD
ATOM     27  C   LIG    1       25.562 -27.584   6.580  0.00  0.00    +0.257 C 
ATOM     28  O   LIG    1       26.303 -28.044   5.738  0.00  0.00    -0.269 OA
BRANCH  25  31
ATOM     29  C   LIG    1       27.013 -28.855   9.799  0.00  0.00    +0.045 C 
ATOM     30  C   LIG    1       26.373 -29.918   8.949  0.00  0.00    -0.028 A 
ATOM     31  C   LIG    1       25.432 -29.633   7.934  0.00  0.00    +0.055 A 
ATOM     32  C   LIG    1       24.902 -30.676   7.152  0.00  0.00    +0.062 A 
ATOM     33 CL   LIG    1       23.918 -30.387   5.754  0.00  0.00    -0.082 Cl
ATOM     34  C   LIG    1       25.266 -31.997   7.406  0.00  0.00    +0.022 A 
ATOM     35  C   LIG    1       26.164 -32.290   8.429  0.00  0.00    +0.002 A 
ATOM     36  C   LIG    1       26.721 -31.258   9.185  0.00  0.00    +0.005 A 
ENDBRANCH  25  31
ENDBRANCH  20  27
ENDBRANCH   1  22
TORSDOF 8
ENDMDL
MODEL 2
REMARK VINA RESULT:      -8.3      1.802      2.289
REMARK  Name = *****
REMARK                            x       y       z     vdW  Elec       q    Type
REMARK                         _______ _______ _______ _____ _____    ______ ____
ROOT
ATOM      1  N   LIG    1       24.962 -23.997   4.729  0.00  0.00    -0.279 N 
ATOM      2  H   LIG    1       25.276 -24.074   3.772  0.00  0.00    +0.155 HD
ENDROOT
BRANCH   1   3
ATOM      3  C   LIG    1       24.832 -22.668   5.192  0.00  0.00    +0.130 A 
ATOM      4  N   LIG    1       23.716 -21.960   5.013  0.00  0.00    -0.217 NA
ATOM      5  C   LIG    1       23.714 -20.681   5.424  0.00  0.00    +0.130 A 
ATOM      6  C   LIG    1       22.455 -19.912   5.171  0.00  0.00    +0.088 C 
ATOM      7  N   LIG    1       24.755 -20.049   5.998  0.00  0.00    -0.217 NA
ATOM      8  C   LIG    1       25.883 -20.753   6.185  0.00  0.00    +0.127 A 
ATOM      9  C   LIG    1       25.935 -22.082   5.776  0.00  0.00    +0.087 A 
BRANCH   8  10
ATOM     10  N   LIG    1       27.010 -20.129   6.764  0.00  0.00    -0.313 N 
ATOM     11  C   LIG    1       28.249 -20.193   5.970  0.00  0.00    +0.122 C 
ATOM     12  C   LIG    1       29.458 -19.558   6.665  0.00  0.00    +0.103 C 
ATOM     13  N   LIG    1       29.701 -20.053   8.034  0.00  0.00    -0.297 NA
ATOM     14  C   LIG    1       28.462 -19.757   8.803  0.00  0.00    +0.103 C 
ATOM     15  C   LIG    1       27.144 -20.352   8.223  0.00  0.00    +0.122 C 
BRANCH  13  16
ATOM     16  C   LIG    1       30.008 -21.502   8.082  0.00  0.00    +0.112 C 
BRANCH  16  17
ATOM     17  C   LIG    1       30.997 -21.888   9.196  0.00  0.00    +0.171 C 
BRANCH  17  18
ATOM     18  O   LIG    1       32.120 -21.016   9.206  0.00  0.00    -0.394 OA
ATOM     19  H   LIG    1       32.269 -20.787  10.144  0.00  0.00    +0.209 HD
ENDBRANCH  17  18
ENDBRANCH  16  17
ENDBRANCH  13  16
ENDBRANCH   8  10
ENDBRANCH   1   3
BRANCH   1  22
ATOM     20  C   LIG    1       25.169 -27.309   6.505  0.00  0.00    +0.095 A 
ATOM     21  S   LIG    1       24.025 -26.346   5.711  0.00  0.00    -0.048 S 
ATOM     22  C   LIG    1       25.185 -25.100   5.480  0.00  0.00    +0.164 A 
ATOM     23  N   LIG    1       26.354 -25.344   6.037  0.00  0.00    -0.232 NA
ATOM     24  C   LIG    1       26.351 -26.596   6.643  0.00  0.00    +0.133 A 
BRANCH  20  27
ATOM     25  N   LIG    1       25.922 -29.254   7.622  0.00  0.00    -0.280 N 
ATOM     26  H   LIG    1       26.582 -28.606   8.025  0.00  0.00    +0.155 HD
ATOM     27  C   LIG    1       24.877 -28.665   6.904  0.00  0.00    +0.257 C 
ATOM     28  O   LIG    1       23.804 -29.188   6.699  0.00  0.00    -0.269 OA
BRANCH  25  31
ATOM     29  C   LIG    1       25.602 -29.433  10.507  0.00  0.00    +0.045 C 
ATOM     30  C   LIG    1       25.668 -30.633   9.601  0.00  0.00    -0.028 A 
ATOM     31  C   LIG    1       25.814 -30.534   8.199  0.00  0.00    +0.055 A 
ATOM     32  C   LIG    1       25.904 -31.702   7.417  0.00  0.00    +0.062 A 
ATOM     33 CL   LIG    1       26.303 -31.665   5.730  0.00  0.00    -0.082 Cl
ATOM     34  C   LIG    1       25.805 -32.956   8.016  0.00  0.00    +0.022 A 
ATOM     35  C   LIG    1       25.624 -33.061   9.393  0.00  0.00    +0.002 A 
ATOM     36  C   LIG    1       25.568 -31.909  10.179  0.00  0.00    +0.005 A 
ENDBRANCH  25  31
ENDBRANCH  20  27
ENDBRANCH   1  22
TORSDOF 8
ENDMDL
MODEL 3
REMARK VINA RESULT:      -8.3      1.603      1.694
REMARK  Name = *****
REMARK                            x       y       z     vdW  Elec       q    Type
REMARK                         _______ _______ _______ _____ _____    ______ ____
ROOT
ATOM      1  N   LIG    1       25.839 -23.786   7.482  0.00  0.00    -0.279 N 
ATOM      2  H   LIG    1       25.537 -23.730   8.446  0.00  0.00    +0.155 HD
ENDROOT
BRANCH   1   3
ATOM      3  C   LIG    1       26.231 -22.548   6.924  0.00  0.00    +0.130 A 
ATOM      4  N   LIG    1       25.474 -21.896   6.041  0.00  0.00    -0.217 NA
ATOM      5  C   LIG    1       25.965 -20.763   5.512  0.00  0.00    +0.130 A 
ATOM      6  C   LIG    1       25.099 -20.083   4.497  0.00  0.00    +0.088 C 
ATOM      7  N   LIG    1       27.169 -20.232   5.797  0.00  0.00    -0.217 NA
ATOM      8  C   LIG    1       27.938 -20.879   6.687  0.00  0.00    +0.127 A 
ATOM      9  C   LIG    1       27.475 -22.057   7.263  0.00  0.00    +0.087 A 
BRANCH   8  10
ATOM     10  N   LIG    1       29.218 -20.373   7.004  0.00  0.00    -0.313 N 
ATOM     11  C   LIG    1       29.774 -20.816   8.294  0.00  0.00    +0.122 C 
ATOM     12  C   LIG    1       31.135 -20.194   8.623  0.00  0.00    +0.103 C 
ATOM     13  N   LIG    1       31.169 -18.722   8.529  0.00  0.00    -0.297 NA
ATOM     14  C   LIG    1       30.786 -18.391   7.130  0.00  0.00    +0.103 C 
ATOM     15  C   LIG    1       29.412 -18.946   6.652  0.00  0.00    +0.122 C 
BRANCH  13  16
ATOM     16  C   LIG    1       30.255 -18.057   9.488  0.00  0.00    +0.112 C 
BRANCH  16  17
ATOM     17  C   LIG    1       30.956 -17.551  10.761  0.00  0.00    +0.171 C 
BRANCH  17  18
ATOM     18  O   LIG    1       30.332 -16.373  11.254  0.00  0.00    -0.394 OA
ATOM     19  H   LIG    1       29.399 -16.429  10.971  0.00  0.00    +0.209 HD
ENDBRANCH  17  18
ENDBRANCH  16  17
ENDBRANCH  13  16
ENDBRANCH   8  10
ENDBRANCH   1   3
BRANCH   1  22
ATOM     20  C   LIG    1       24.676 -27.089   6.102  0.00  0.00    +0.095 A 
ATOM     21  S   LIG    1       25.815 -26.484   7.200  0.00  0.00    -0.048 S 
ATOM     22  C   LIG    1       25.376 -24.867   6.815  0.00  0.00    +0.164 A 
ATOM     23  N   LIG    1       24.480 -24.768   5.854  0.00  0.00    -0.232 NA
ATOM     24  C   LIG    1       24.087 -26.031   5.425  0.00  0.00    +0.133 A 
BRANCH  20  27
ATOM     25  N   LIG    1       24.948 -29.242   7.043  0.00  0.00    -0.280 N 
ATOM     26  H   LIG    1       25.179 -28.707   7.867  0.00  0.00    +0.155 HD
ATOM     27  C   LIG    1       24.403 -28.501   5.990  0.00  0.00    +0.257 C 
ATOM     28  O   LIG    1       23.705 -28.964   5.114  0.00  0.00    -0.269 OA
BRANCH  25  31
ATOM     29  C   LIG    1       23.528 -30.145   9.415  0.00  0.00    +0.045 C 
ATOM     30  C   LIG    1       24.037 -31.073   8.346  0.00  0.00    -0.028 A 
ATOM     31  C   LIG    1       24.718 -30.623   7.193  0.00  0.00    +0.055 A 
ATOM     32  C   LIG    1       25.198 -31.554   6.252  0.00  0.00    +0.062 A 
ATOM     33 CL   LIG    1       26.227 -31.098   4.932  0.00  0.00    -0.082 Cl
ATOM     34  C   LIG    1       24.965 -32.916   6.430  0.00  0.00    +0.022 A 
ATOM     35  C   LIG    1       24.264 -33.364   7.546  0.00  0.00    +0.002 A 
ATOM     36  C   LIG    1       23.814 -32.451   8.501  0.00  0.00    +0.005 A 
ENDBRANCH  25  31
ENDBRANCH  20  27
ENDBRANCH   1  22
TORSDOF 8
ENDMDL
MODEL 4
REMARK VINA RESULT:      -8.2      3.338     10.953
REMARK  Name = *****
REMARK                            x       y       z     vdW  Elec       q    Type
REMARK                         _______ _______ _______ _____ _____    ______ ____
ROOT
ATOM      1  N   LIG    1       24.588 -26.844   6.128  0.00  0.00    -0.279 N 
ATOM      2  H   LIG    1       23.887 -27.081   5.440  0.00  0.00    +0.155 HD
ENDROOT
BRANCH   1   3
ATOM      3  C   LIG    1       25.019 -27.934   6.917  0.00  0.00    +0.130 A 
ATOM      4  N   LIG    1       25.668 -27.765   8.070  0.00  0.00    -0.217 NA
ATOM      5  C   LIG    1       26.100 -28.863   8.711  0.00  0.00    +0.130 A 
ATOM      6  C   LIG    1       26.856 -28.626   9.981  0.00  0.00    +0.088 C 
ATOM      7  N   LIG    1       25.939 -30.128   8.279  0.00  0.00    -0.217 NA
ATOM      8  C   LIG    1       25.285 -30.311   7.121  0.00  0.00    +0.127 A 
ATOM      9  C   LIG    1       24.817 -29.204   6.418  0.00  0.00    +0.087 A 
BRANCH   8  10
ATOM     10  N   LIG    1       25.107 -31.617   6.615  0.00  0.00    -0.313 N 
ATOM     11  C   LIG    1       26.319 -32.261   6.081  0.00  0.00    +0.122 C 
ATOM     12  C   LIG    1       26.066 -33.651   5.488  0.00  0.00    +0.103 C 
ATOM     13  N   LIG    1       24.979 -33.698   4.491  0.00  0.00    -0.297 NA
ATOM     14  C   LIG    1       23.758 -33.217   5.193  0.00  0.00    +0.103 C 
ATOM     15  C   LIG    1       23.858 -31.803   5.839  0.00  0.00    +0.122 C 
BRANCH  13  16
ATOM     16  C   LIG    1       25.252 -32.867   3.295  0.00  0.00    +0.112 C 
BRANCH  16  17
ATOM     17  C   LIG    1       26.377 -33.418   2.402  0.00  0.00    +0.171 C 
BRANCH  17  18
ATOM     18  O   LIG    1       26.354 -32.810   1.117  0.00  0.00    -0.394 OA
ATOM     19  H   LIG    1       26.885 -31.995   1.200  0.00  0.00    +0.209 HD
ENDBRANCH  17  18
ENDBRANCH  16  17
ENDBRANCH  13  16
ENDBRANCH   8  10
ENDBRANCH   1   3
BRANCH   1  22
ATOM     20  C   LIG    1       25.193 -23.200   6.853  0.00  0.00    +0.095 A 
ATOM     21  S   LIG    1       26.065 -24.645   6.719  0.00  0.00    -0.048 S 
ATOM     22  C   LIG    1       24.616 -25.535   6.469  0.00  0.00    +0.164 A 
ATOM     23  N   LIG    1       23.519 -24.811   6.560  0.00  0.00    -0.232 NA
ATOM     24  C   LIG    1       23.835 -23.478   6.800  0.00  0.00    +0.133 A 
BRANCH  20  27
ATOM     25  N   LIG    1       27.149 -21.935   6.437  0.00  0.00    -0.280 N 
ATOM     26  H   LIG    1       27.343 -22.693   5.801  0.00  0.00    +0.155 HD
ATOM     27  C   LIG    1       25.853 -21.921   6.963  0.00  0.00    +0.257 C 
ATOM     28  O   LIG    1       25.296 -20.934   7.394  0.00  0.00    -0.269 OA
BRANCH  25  31
ATOM     29  C   LIG    1       29.348 -21.619   8.314  0.00  0.00    +0.045 C 
ATOM     30  C   LIG    1       29.002 -20.604   7.258  0.00  0.00    -0.028 A 
ATOM     31  C   LIG    1       27.937 -20.772   6.345  0.00  0.00    +0.055 A 
ATOM     32  C   LIG    1       27.649 -19.762   5.407  0.00  0.00    +0.062 A 
ATOM     33 CL   LIG    1       26.234 -19.796   4.406  0.00  0.00    -0.082 Cl
ATOM     34  C   LIG    1       28.440 -18.616   5.345  0.00  0.00    +0.022 A 
ATOM     35  C   LIG    1       29.514 -18.461   6.217  0.00  0.00    +0.002 A 
ATOM     36  C   LIG    1       29.785 -19.440   7.173  0.00  0.00    +0.005 A 
ENDBRANCH  25  31
ENDBRANCH  20  27
ENDBRANCH   1  22
TORSDOF 8
ENDMDL
MODEL 5
REMARK VINA RESULT:      -8.0      1.714      2.039
REMARK  Name = *****
REMARK                            x       y       z     vdW  Elec       q    Type
REMARK                         _______ _______ _______ _____ _____    ______ ____
ROOT
ATOM      1  N   LIG    1       24.748 -24.086   4.985  0.00  0.00    -0.279 N 
ATOM      2  H   LIG    1       24.633 -23.858   4.007  0.00  0.00    +0.155 HD
ENDROOT
BRANCH   1   3
ATOM      3  C   LIG    1       25.054 -22.979   5.807  0.00  0.00    +0.130 A 
ATOM      4  N   LIG    1       24.106 -22.231   6.375  0.00  0.00    -0.217 NA
ATOM      5  C   LIG    1       24.495 -21.157   7.079  0.00  0.00    +0.130 A 
ATOM      6  C   LIG    1       23.397 -20.325   7.668  0.00  0.00    +0.088 C 
ATOM      7  N   LIG    1       25.771 -20.763   7.254  0.00  0.00    -0.217 NA
ATOM      8  C   LIG    1       26.734 -21.509   6.689  0.00  0.00    +0.127 A 
ATOM      9  C   LIG    1       26.382 -22.633   5.949  0.00  0.00    +0.087 A 
BRANCH   8  10
ATOM     10  N   LIG    1       28.086 -21.127   6.827  0.00  0.00    -0.313 N 
ATOM     11  C   LIG    1       28.686 -21.380   8.148  0.00  0.00    +0.122 C 
ATOM     12  C   LIG    1       30.134 -20.893   8.269  0.00  0.00    +0.103 C 
ATOM     13  N   LIG    1       30.337 -19.486   7.875  0.00  0.00    -0.297 NA
ATOM     14  C   LIG    1       29.886 -19.387   6.461  0.00  0.00    +0.103 C 
ATOM     15  C   LIG    1       28.421 -19.835   6.181  0.00  0.00    +0.122 C 
BRANCH  13  16
ATOM     16  C   LIG    1       29.589 -18.531   8.726  0.00  0.00    +0.112 C 
BRANCH  16  17
ATOM     17  C   LIG    1       30.468 -17.805   9.760  0.00  0.00    +0.171 C 
BRANCH  17  18
ATOM     18  O   LIG    1       30.569 -18.557  10.963  0.00  0.00    -0.394 OA
ATOM     19  H   LIG    1       30.807 -19.463  10.688  0.00  0.00    +0.209 HD
ENDBRANCH  17  18
ENDBRANCH  16  17
ENDBRANCH  13  16
ENDBRANCH   8  10
ENDBRANCH   1   3
BRANCH   1  22
ATOM     20  C   LIG    1       25.059 -27.738   5.844  0.00  0.00    +0.095 A 
ATOM     21  S   LIG    1       24.228 -26.360   6.372  0.00  0.00    -0.048 S 
ATOM     22  C   LIG    1       25.053 -25.383   5.223  0.00  0.00    +0.164 A 
ATOM     23  N   LIG    1       25.967 -26.027   4.528  0.00  0.00    -0.232 NA
ATOM     24  C   LIG    1       25.994 -27.370   4.887  0.00  0.00    +0.133 A 
BRANCH  20  27
ATOM     25  N   LIG    1       25.790 -29.618   7.080  0.00  0.00    -0.280 N 
ATOM     26  H   LIG    1       26.475 -28.960   7.422  0.00  0.00    +0.155 HD
ATOM     27  C   LIG    1       24.744 -29.054   6.344  0.00  0.00    +0.257 C 
ATOM     28  O   LIG    1       23.653 -29.563   6.200  0.00  0.00    -0.269 OA
BRANCH  25  31
ATOM     29  C   LIG    1       25.276 -29.576   9.942  0.00  0.00    +0.045 C 
ATOM     30  C   LIG    1       25.424 -30.841   9.142  0.00  0.00    -0.028 A 
ATOM     31  C   LIG    1       25.664 -30.851   7.749  0.00  0.00    +0.055 A 
ATOM     32  C   LIG    1       25.828 -32.073   7.072  0.00  0.00    +0.062 A 
ATOM     33 CL   LIG    1       26.340 -32.161   5.417  0.00  0.00    -0.082 Cl
ATOM     34  C   LIG    1       25.709 -33.278   7.761  0.00  0.00    +0.022 A 
ATOM     35  C   LIG    1       25.436 -33.278   9.126  0.00  0.00    +0.002 A 
ATOM     36  C   LIG    1       25.306 -32.070   9.812  0.00  0.00    +0.005 A 
ENDBRANCH  25  31
ENDBRANCH  20  27
ENDBRANCH   1  22
TORSDOF 8
ENDMDL
MODEL 6
REMARK VINA RESULT:      -7.7      4.203      9.545
REMARK  Name = *****
REMARK                            x       y       z     vdW  Elec       q    Type
REMARK                         _______ _______ _______ _____ _____    ______ ____
ROOT
ATOM      1  N   LIG    1       26.598 -27.135   6.611  0.00  0.00    -0.279 N 
ATOM      2  H   LIG    1       27.433 -27.339   6.080  0.00  0.00    +0.155 HD
ENDROOT
BRANCH   1   3
ATOM      3  C   LIG    1       26.094 -28.233   7.344  0.00  0.00    +0.130 A 
ATOM      4  N   LIG    1       25.314 -29.161   6.788  0.00  0.00    -0.217 NA
ATOM      5  C   LIG    1       24.825 -30.126   7.582  0.00  0.00    +0.130 A 
ATOM      6  C   LIG    1       23.925 -31.125   6.925  0.00  0.00    +0.088 C 
ATOM      7  N   LIG    1       25.052 -30.231   8.906  0.00  0.00    -0.217 NA
ATOM      8  C   LIG    1       25.838 -29.304   9.476  0.00  0.00    +0.127 A 
ATOM      9  C   LIG    1       26.369 -28.282   8.694  0.00  0.00    +0.087 A 
BRANCH   8  10
ATOM     10  N   LIG    1       26.090 -29.358  10.865  0.00  0.00    -0.313 N 
ATOM     11  C   LIG    1       24.990 -28.896  11.728  0.00  0.00    +0.122 C 
ATOM     12  C   LIG    1       25.332 -28.915  13.222  0.00  0.00    +0.103 C 
ATOM     13  N   LIG    1       26.583 -28.215  13.568  0.00  0.00    -0.297 NA
ATOM     14  C   LIG    1       27.659 -28.891  12.794  0.00  0.00    +0.103 C 
ATOM     15  C   LIG    1       27.459 -28.939  11.251  0.00  0.00    +0.122 C 
BRANCH  13  16
ATOM     16  C   LIG    1       26.547 -26.767  13.250  0.00  0.00    +0.112 C 
BRANCH  16  17
ATOM     17  C   LIG    1       27.526 -25.926  14.086  0.00  0.00    +0.171 C 
BRANCH  17  18
ATOM     18  O   LIG    1       27.884 -24.730  13.404  0.00  0.00    -0.394 OA
ATOM     19  H   LIG    1       27.163 -24.098  13.583  0.00  0.00    +0.209 HD
ENDBRANCH  17  18
ENDBRANCH  16  17
ENDBRANCH  13  16
ENDBRANCH   8  10
ENDBRANCH   1   3
BRANCH   1  22
ATOM     20  C   LIG    1       24.937 -23.867   5.756  0.00  0.00    +0.095 A 
ATOM     21  S   LIG    1       25.614 -24.653   7.094  0.00  0.00    -0.048 S 
ATOM     22  C   LIG    1       25.898 -26.069   6.162  0.00  0.00    +0.164 A 
ATOM     23  N   LIG    1       25.439 -26.000   4.929  0.00  0.00    -0.232 NA
ATOM     24  C   LIG    1       24.869 -24.754   4.691  0.00  0.00    +0.133 A 
BRANCH  20  27
ATOM     25  N   LIG    1       24.229 -21.962   4.544  0.00  0.00    -0.280 N 
ATOM     26  H   LIG    1       24.006 -22.655   3.845  0.00  0.00    +0.155 HD
ATOM     27  C   LIG    1       24.556 -22.476   5.803  0.00  0.00    +0.257 C 
ATOM     28  O   LIG    1       24.456 -21.862   6.843  0.00  0.00    -0.269 OA
BRANCH  25  31
ATOM     29  C   LIG    1       26.138 -19.818   4.081  0.00  0.00    +0.045 C 
ATOM     30  C   LIG    1       24.650 -19.606   4.152  0.00  0.00    -0.028 A 
ATOM     31  C   LIG    1       23.730 -20.657   4.368  0.00  0.00    +0.055 A 
ATOM     32  C   LIG    1       22.353 -20.380   4.460  0.00  0.00    +0.062 A 
ATOM     33 CL   LIG    1       21.192 -21.574   4.940  0.00  0.00    -0.082 Cl
ATOM     34  C   LIG    1       21.888 -19.077   4.293  0.00  0.00    +0.022 A 
ATOM     35  C   LIG    1       22.785 -18.041   4.044  0.00  0.00    +0.002 A 
ATOM     36  C   LIG    1       24.155 -18.303   3.985  0.00  0.00    +0.005 A 
ENDBRANCH  25  31
ENDBRANCH  20  27
ENDBRANCH   1  22
TORSDOF 8
ENDMDL
MODEL 7
REMARK VINA RESULT:      -7.7      3.384     10.251
REMARK  Name = *****
REMARK                            x       y       z     vdW  Elec       q    Type
REMARK                         _______ _______ _______ _____ _____    ______ ____
ROOT
ATOM      1  N   LIG    1       24.105 -26.550   5.518  0.00  0.00    -0.279 N 
ATOM      2  H   LIG    1       23.267 -26.612   4.956  0.00  0.00    +0.155 HD
ENDROOT
BRANCH   1   3
ATOM      3  C   LIG    1       24.602 -27.797   5.958  0.00  0.00    +0.130 A 
ATOM      4  N   LIG    1       24.896 -28.784   5.111  0.00  0.00    -0.217 NA
ATOM      5  C   LIG    1       25.293 -29.957   5.630  0.00  0.00    +0.130 A 
ATOM      6  C   LIG    1       25.577 -31.048   4.646  0.00  0.00    +0.088 C 
ATOM      7  N   LIG    1       25.414 -30.223   6.945  0.00  0.00    -0.217 NA
ATOM      8  C   LIG    1       25.123 -29.236   7.807  0.00  0.00    +0.127 A 
ATOM      9  C   LIG    1       24.706 -28.001   7.319  0.00  0.00    +0.087 A 
BRANCH   8  10
ATOM     10  N   LIG    1       25.213 -29.471   9.197  0.00  0.00    -0.313 N 
ATOM     11  C   LIG    1       26.474 -30.078   9.657  0.00  0.00    +0.122 C 
ATOM     12  C   LIG    1       26.502 -30.371  11.161  0.00  0.00    +0.103 C 
ATOM     13  N   LIG    1       25.349 -31.151  11.650  0.00  0.00    -0.297 NA
ATOM     14  C   LIG    1       24.140 -30.352  11.312  0.00  0.00    +0.103 C 
ATOM     15  C   LIG    1       23.965 -29.986   9.808  0.00  0.00    +0.122 C 
BRANCH  13  16
ATOM     16  C   LIG    1       25.263 -32.502  11.046  0.00  0.00    +0.112 C 
BRANCH  16  17
ATOM     17  C   LIG    1       25.282 -33.643  12.077  0.00  0.00    +0.171 C 
BRANCH  17  18
ATOM     18  O   LIG    1       25.939 -33.240  13.273  0.00  0.00    -0.394 OA
ATOM     19  H   LIG    1       25.399 -32.514  13.639  0.00  0.00    +0.209 HD
ENDBRANCH  17  18
ENDBRANCH  16  17
ENDBRANCH  13  16
ENDBRANCH   8  10
ENDBRANCH   1   3
BRANCH   1  22
ATOM     20  C   LIG    1       25.089 -23.159   6.822  0.00  0.00    +0.095 A 
ATOM     21  S   LIG    1       25.813 -24.550   6.184  0.00  0.00    -0.048 S 
ATOM     22  C   LIG    1       24.292 -25.347   6.108  0.00  0.00    +0.164 A 
ATOM     23  N   LIG    1       23.294 -24.648   6.609  0.00  0.00    -0.232 NA
ATOM     24  C   LIG    1       23.740 -23.403   7.039  0.00  0.00    +0.133 A 
BRANCH  20  27
ATOM     25  N   LIG    1       27.055 -21.929   6.352  0.00  0.00    -0.280 N 
ATOM     26  H   LIG    1       27.123 -22.587   5.590  0.00  0.00    +0.155 HD
ATOM     27  C   LIG    1       25.835 -21.942   7.036  0.00  0.00    +0.257 C 
ATOM     28  O   LIG    1       25.397 -21.011   7.677  0.00  0.00    -0.269 OA
BRANCH  25  31
ATOM     29  C   LIG    1       29.212 -21.799   8.298  0.00  0.00    +0.045 C 
ATOM     30  C   LIG    1       28.942 -20.723   7.281  0.00  0.00    -0.028 A 
ATOM     31  C   LIG    1       27.897 -20.801   6.333  0.00  0.00    +0.055 A 
ATOM     32  C   LIG    1       27.681 -19.739   5.435  0.00  0.00    +0.062 A 
ATOM     33 CL   LIG    1       26.294 -19.663   4.397  0.00  0.00    -0.082 Cl
ATOM     34  C   LIG    1       28.524 -18.629   5.446  0.00  0.00    +0.022 A 
ATOM     35  C   LIG    1       29.579 -18.562   6.352  0.00  0.00    +0.002 A 
ATOM     36  C   LIG    1       29.778 -19.595   7.269  0.00  0.00    +0.005 A 
ENDBRANCH  25  31
ENDBRANCH  20  27
ENDBRANCH   1  22
TORSDOF 8
ENDMDL
MODEL 8
REMARK VINA RESULT:      -7.6      3.297      9.396
REMARK  Name = *****
REMARK                            x       y       z     vdW  Elec       q    Type
REMARK                         _______ _______ _______ _____ _____    ______ ____
ROOT
ATOM      1  N   LIG    1       24.502 -26.895   5.639  0.00  0.00    -0.279 N 
ATOM      2  H   LIG    1       23.918 -26.937   4.814  0.00  0.00    +0.155 HD
ENDROOT
BRANCH   1   3
ATOM      3  C   LIG    1       24.668 -28.135   6.296  0.00  0.00    +0.130 A 
ATOM      4  N   LIG    1       24.160 -29.270   5.813  0.00  0.00    -0.217 NA
ATOM      5  C   LIG    1       24.309 -30.384   6.546  0.00  0.00    +0.130 A 
ATOM      6  C   LIG    1       23.691 -31.627   5.984  0.00  0.00    +0.088 C 
ATOM      7  N   LIG    1       24.926 -30.451   7.741  0.00  0.00    -0.217 NA
ATOM      8  C   LIG    1       25.444 -29.315   8.236  0.00  0.00    +0.127 A 
ATOM      9  C   LIG    1       25.316 -28.133   7.514  0.00  0.00    +0.087 A 
BRANCH   8  10
ATOM     10  N   LIG    1       26.084 -29.329   9.495  0.00  0.00    -0.313 N 
ATOM     11  C   LIG    1       25.448 -30.172  10.521  0.00  0.00    +0.122 C 
ATOM     12  C   LIG    1       26.140 -30.106  11.887  0.00  0.00    +0.103 C 
ATOM     13  N   LIG    1       26.343 -28.738  12.401  0.00  0.00    -0.297 NA
ATOM     14  C   LIG    1       27.166 -28.034  11.381  0.00  0.00    +0.103 C 
ATOM     15  C   LIG    1       26.581 -28.004   9.938  0.00  0.00    +0.122 C 
BRANCH  13  16
ATOM     16  C   LIG    1       25.072 -28.011  12.633  0.00  0.00    +0.112 C 
BRANCH  16  17
ATOM     17  C   LIG    1       25.226 -26.766  13.524  0.00  0.00    +0.171 C 
BRANCH  17  18
ATOM     18  O   LIG    1       24.046 -25.974  13.504  0.00  0.00    -0.394 OA
ATOM     19  H   LIG    1       23.311 -26.590  13.687  0.00  0.00    +0.209 HD
ENDBRANCH  17  18
ENDBRANCH  16  17
ENDBRANCH  13  16
ENDBRANCH   8  10
ENDBRANCH   1   3
BRANCH   1  22
ATOM     20  C   LIG    1       25.267 -23.429   6.891  0.00  0.00    +0.095 A 
ATOM     21  S   LIG    1       26.085 -24.828   6.400  0.00  0.00    -0.048 S 
ATOM     22  C   LIG    1       24.598 -25.664   6.191  0.00  0.00    +0.164 A 
ATOM     23  N   LIG    1       23.537 -24.969   6.546  0.00  0.00    -0.232 NA
ATOM     24  C   LIG    1       23.907 -23.697   6.966  0.00  0.00    +0.133 A 
BRANCH  20  27
ATOM     25  N   LIG    1       27.174 -22.103   6.441  0.00  0.00    -0.280 N 
ATOM     26  H   LIG    1       27.266 -22.737   5.662  0.00  0.00    +0.155 HD
ATOM     27  C   LIG    1       25.960 -22.186   7.131  0.00  0.00    +0.257 C 
ATOM     28  O   LIG    1       25.486 -21.292   7.797  0.00  0.00    -0.269 OA
BRANCH  25  31
ATOM     29  C   LIG    1       29.353 -21.939   8.359  0.00  0.00    +0.045 C 
ATOM     30  C   LIG    1       29.021 -20.844   7.381  0.00  0.00    -0.028 A 
ATOM     31  C   LIG    1       27.966 -20.938   6.446  0.00  0.00    +0.055 A 
ATOM     32  C   LIG    1       27.690 -19.859   5.586  0.00  0.00    +0.062 A 
ATOM     33 CL   LIG    1       26.285 -19.811   4.571  0.00  0.00    -0.082 Cl
ATOM     34  C   LIG    1       28.484 -18.714   5.621  0.00  0.00    +0.022 A 
ATOM     35  C   LIG    1       29.548 -18.629   6.514  0.00  0.00    +0.002 A 
ATOM     36  C   LIG    1       29.807 -19.680   7.394  0.00  0.00    +0.005 A 
ENDBRANCH  25  31
ENDBRANCH  20  27
ENDBRANCH   1  22
TORSDOF 8
ENDMDL
MODEL 9
REMARK VINA RESULT:      -7.5      4.270     10.523
REMARK  Name = *****
REMARK                            x       y       z     vdW  Elec       q    Type
REMARK                         _______ _______ _______ _____ _____    ______ ____
ROOT
ATOM      1  N   LIG    1       25.652 -27.699   5.047  0.00  0.00    -0.279 N 
ATOM      2  H   LIG    1       25.501 -27.787   4.052  0.00  0.00    +0.155 HD
ENDROOT
BRANCH   1   3
ATOM      3  C   LIG    1       25.343 -28.862   5.787  0.00  0.00    +0.130 A 
ATOM      4  N   LIG    1       25.290 -30.070   5.223  0.00  0.00    -0.217 NA
ATOM      5  C   LIG    1       24.917 -31.104   5.993  0.00  0.00    +0.130 A 
ATOM      6  C   LIG    1       24.834 -32.434   5.311  0.00  0.00    +0.088 C 
ATOM      7  N   LIG    1       24.584 -31.022   7.295  0.00  0.00    -0.217 NA
ATOM      8  C   LIG    1       24.637 -29.812   7.874  0.00  0.00    +0.127 A 
ATOM      9  C   LIG    1       25.017 -28.708   7.118  0.00  0.00    +0.087 A 
BRANCH   8  10
ATOM     10  N   LIG    1       24.277 -29.670   9.233  0.00  0.00    -0.313 N 
ATOM     11  C   LIG    1       25.399 -29.514  10.174  0.00  0.00    +0.122 C 
ATOM     12  C   LIG    1       24.964 -29.426  11.640  0.00  0.00    +0.103 C 
ATOM     13  N   LIG    1       24.076 -30.520  12.078  0.00  0.00    -0.297 NA
ATOM     14  C   LIG    1       22.883 -30.459  11.191  0.00  0.00    +0.103 C 
ATOM     15  C   LIG    1       23.166 -30.553   9.663  0.00  0.00    +0.122 C 
BRANCH  13  16
ATOM     16  C   LIG    1       24.715 -31.855  11.997  0.00  0.00    +0.112 C 
BRANCH  16  17
ATOM     17  C   LIG    1       25.245 -32.370  13.347  0.00  0.00    +0.171 C 
BRANCH  17  18
ATOM     18  O   LIG    1       26.548 -31.865  13.611  0.00  0.00    -0.394 OA
ATOM     19  H   LIG    1       27.111 -32.649  13.753  0.00  0.00    +0.209 HD
ENDBRANCH  17  18
ENDBRANCH  16  17
ENDBRANCH  13  16
ENDBRANCH   8  10
ENDBRANCH   1   3
BRANCH   1  22
ATOM     20  C   LIG    1       25.165 -24.089   5.996  0.00  0.00    +0.095 A 
ATOM     21  S   LIG    1       24.853 -25.129   4.697  0.00  0.00    -0.048 S 
ATOM     22  C   LIG    1       25.649 -26.424   5.500  0.00  0.00    +0.164 A 
ATOM     23  N   LIG    1       26.197 -26.087   6.649  0.00  0.00    -0.232 NA
ATOM     24  C   LIG    1       25.945 -24.749   6.935  0.00  0.00    +0.133 A 
BRANCH  20  27
ATOM     25  N   LIG    1       24.360 -22.228   4.776  0.00  0.00    -0.280 N 
ATOM     26  H   LIG    1       24.281 -22.914   4.040  0.00  0.00    +0.155 HD
ATOM     27  C   LIG    1       24.626 -22.751   6.046  0.00  0.00    +0.257 C 
ATOM     28  O   LIG    1       24.363 -22.191   7.088  0.00  0.00    -0.269 OA
BRANCH  25  31
ATOM     29  C   LIG    1       26.035 -19.938   4.140  0.00  0.00    +0.045 C 
ATOM     30  C   LIG    1       24.540 -19.860   4.290  0.00  0.00    -0.028 A 
ATOM     31  C   LIG    1       23.734 -20.981   4.590  0.00  0.00    +0.055 A 
ATOM     32  C   LIG    1       22.344 -20.825   4.752  0.00  0.00    +0.062 A 
ATOM     33 CL   LIG    1       21.325 -22.102   5.333  0.00  0.00    -0.082 Cl
ATOM     34  C   LIG    1       21.753 -19.576   4.573  0.00  0.00    +0.022 A 
ATOM     35  C   LIG    1       22.536 -18.474   4.241  0.00  0.00    +0.002 A 
ATOM     36  C   LIG    1       23.919 -18.612   4.113  0.00  0.00    +0.005 A 
ENDBRANCH  25  31
ENDBRANCH  20  27
ENDBRANCH   1  22
TORSDOF 8
ENDMDL
