MODEL 1
REMARK VINA RESULT:      -4.9      0.000      0.000
REMARK  Name = *****
REMARK                            x       y       z     vdW  Elec       q    Type
REMARK                         _______ _______ _______ _____ _____    ______ ____
ROOT
ATOM      1  C   LIG    1       25.962 -27.748   7.738  0.00  0.00    -0.031 A 
ATOM      2  C   LIG    1       25.154 -28.698   7.051  0.00  0.00    +0.007 A 
ATOM      3  C   LIG    1       24.368 -28.246   5.941  0.00  0.00    +0.072 A 
ATOM      4  C   LIG    1       23.590 -29.148   5.244  0.00  0.00    +0.032 A 
ATOM      5  C   LIG    1       23.536 -30.490   5.596  0.00  0.00    +0.048 A 
ATOM      6  C   LIG    1       24.242 -30.933   6.700  0.00  0.00    +0.134 A 
ATOM      7  N   LIG    1       24.325 -26.979   5.518  0.00  0.00    -0.245 NA
ATOM      8  C   LIG    1       25.080 -26.125   6.208  0.00  0.00    +0.093 A 
ATOM      9  C   LIG    1       25.126 -24.686   6.002  0.00  0.00    +0.071 C 
ATOM     10  N   LIG    1       25.962 -24.145   6.956  0.00  0.00    -0.302 N 
ATOM     11  C   LIG    1       26.536 -25.183   7.813  0.00  0.00    +0.163 C 
ATOM     12  C   LIG    1       26.211 -22.805   7.086  0.00  0.00    +0.259 C 
ATOM     13  O   LIG    1       26.953 -22.324   7.935  0.00  0.00    -0.267 OA
ATOM     14  C   LIG    1       25.481 -21.934   6.111  0.00  0.00    +0.061 C 
ATOM     15  C   LIG    1       25.693 -20.471   6.269  0.00  0.00    +0.273 C 
ATOM     16  O   LIG    1       24.887 -19.647   5.405  0.00  0.00    -0.458 OA
ATOM     17  C   LIG    1       24.430 -20.133   4.230  0.00  0.00    +0.344 C 
ATOM     18  C   LIG    1       23.931 -21.597   4.207  0.00  0.00    +0.188 C 
ATOM     19  O   LIG    1       24.311 -19.406   3.244  0.00  0.00    -0.247 OA
ATOM     20  C   LIG    1       24.676 -22.472   5.176  0.00  0.00    +0.008 C 
ATOM     21  C   LIG    1       24.498 -23.917   5.109  0.00  0.00    +0.035 C 
ATOM     22  C   LIG    1       25.065 -30.060   7.414  0.00  0.00    +0.056 A 
ATOM     23  C   LIG    1       25.894 -26.435   7.292  0.00  0.00    +0.004 A 
ENDROOT
BRANCH   1  25
ATOM     24  C   LIG    1       26.101 -28.408  10.162  0.00  0.00    +0.009 C 
ATOM     25  C   LIG    1       26.874 -28.101   8.887  0.00  0.00    +0.033 C 
ENDBRANCH   1  25
BRANCH  18  26
ATOM     26  O   LIG    1       24.180 -22.106   2.884  0.00  0.00    -0.373 OA
ATOM     27  H   LIG    1       24.076 -21.346   2.275  0.00  0.00    +0.211 HD
ENDBRANCH  18  26
BRANCH  18  28
ATOM     28  C   LIG    1       22.401 -21.613   4.424  0.00  0.00    +0.048 C 
ATOM     29  C   LIG    1       21.819 -20.330   5.007  0.00  0.00    +0.007 C 
ENDBRANCH  18  28
BRANCH   6  30
ATOM     30  O   LIG    1       24.206 -32.262   7.159  0.00  0.00    -0.411 OA
BRANCH  30  31
ATOM     31  C   LIG    1       24.887 -32.698   8.304  0.00  0.00    +0.408 C 
ATOM     32  N   LIG    1       24.083 -32.654   9.429  0.00  0.00    -0.267 N 
ATOM     33  C   LIG    1       24.675 -32.806  10.743  0.00  0.00    +0.112 C 
ATOM     34  C   LIG    1       24.637 -31.477  11.496  0.00  0.00    +0.038 C 
ATOM     35  C   LIG    1       23.212 -30.853  11.529  0.00  0.00    +0.060 C 
ATOM     36  C   LIG    1       22.649 -30.810  10.085  0.00  0.00    +0.038 C 
ATOM     37  C   LIG    1       22.719 -32.172   9.415  0.00  0.00    +0.112 C 
ATOM     38  O   LIG    1       26.045 -33.076   8.332  0.00  0.00    -0.226 OA
BRANCH  35  39
ATOM     39  N   LIG    1       23.222 -29.499  12.144  0.00  0.00    -0.299 NA
ATOM     40  C   LIG    1       21.890 -28.914  12.381  0.00  0.00    +0.085 C 
ATOM     41  C   LIG    1       21.119 -29.590  13.517  0.00  0.00    +0.015 C 
ATOM     42  C   LIG    1       21.924 -29.577  14.813  0.00  0.00    +0.002 C 
ATOM     43  C   LIG    1       23.352 -30.070  14.594  0.00  0.00    +0.015 C 
ATOM     44  C   LIG    1       24.008 -29.394  13.387  0.00  0.00    +0.085 C 
ENDBRANCH  35  39
ENDBRANCH  30  31
ENDBRANCH   6  30
TORSDOF 6
ENDMDL
MODEL 2
REMARK VINA RESULT:      -3.9      1.964      3.679
REMARK  Name = *****
REMARK                            x       y       z     vdW  Elec       q    Type
REMARK                         _______ _______ _______ _____ _____    ______ ____
ROOT
ATOM      1  C   LIG    1       24.629 -28.542   6.564  0.00  0.00    -0.031 A 
ATOM      2  C   LIG    1       25.318 -29.195   7.626  0.00  0.00    +0.007 A 
ATOM      3  C   LIG    1       26.122 -28.399   8.506  0.00  0.00    +0.072 A 
ATOM      4  C   LIG    1       26.785 -29.002   9.556  0.00  0.00    +0.032 A 
ATOM      5  C   LIG    1       26.706 -30.370   9.780  0.00  0.00    +0.048 A 
ATOM      6  C   LIG    1       25.983 -31.162   8.907  0.00  0.00    +0.134 A 
ATOM      7  N   LIG    1       26.287 -27.079   8.383  0.00  0.00    -0.245 NA
ATOM      8  C   LIG    1       25.642 -26.519   7.361  0.00  0.00    +0.093 A 
ATOM      9  C   LIG    1       25.742 -25.123   6.964  0.00  0.00    +0.071 C 
ATOM     10  N   LIG    1       24.989 -24.948   5.823  0.00  0.00    -0.302 N 
ATOM     11  C   LIG    1       24.328 -26.192   5.424  0.00  0.00    +0.163 C 
ATOM     12  C   LIG    1       24.885 -23.763   5.147  0.00  0.00    +0.259 C 
ATOM     13  O   LIG    1       24.216 -23.608   4.131  0.00  0.00    -0.267 OA
ATOM     14  C   LIG    1       25.680 -22.636   5.731  0.00  0.00    +0.061 C 
ATOM     15  C   LIG    1       25.626 -21.352   4.983  0.00  0.00    +0.273 C 
ATOM     16  O   LIG    1       26.494 -20.321   5.489  0.00  0.00    -0.458 OA
ATOM     17  C   LIG    1       26.872 -20.323   6.786  0.00  0.00    +0.344 C 
ATOM     18  C   LIG    1       27.214 -21.687   7.430  0.00  0.00    +0.188 C 
ATOM     19  O   LIG    1       27.044 -19.270   7.400  0.00  0.00    -0.247 OA
ATOM     20  C   LIG    1       26.403 -22.813   6.852  0.00  0.00    +0.008 C 
ATOM     21  C   LIG    1       26.427 -24.114   7.508  0.00  0.00    +0.035 C 
ATOM     22  C   LIG    1       25.272 -30.589   7.850  0.00  0.00    +0.056 A 
ATOM     23  C   LIG    1       24.824 -27.173   6.446  0.00  0.00    +0.004 A 
ENDROOT
BRANCH   1  25
ATOM     24  C   LIG    1       24.465 -30.208   4.685  0.00  0.00    +0.009 C 
ATOM     25  C   LIG    1       23.711 -29.253   5.601  0.00  0.00    +0.033 C 
ENDBRANCH   1  25
BRANCH  18  26
ATOM     26  O   LIG    1       26.884 -21.588   8.827  0.00  0.00    -0.373 OA
ATOM     27  H   LIG    1       27.025 -22.480   9.205  0.00  0.00    +0.211 HD
ENDBRANCH  18  26
BRANCH  18  28
ATOM     28  C   LIG    1       28.738 -21.923   7.334  0.00  0.00    +0.048 C 
ATOM     29  C   LIG    1       29.594 -20.934   8.118  0.00  0.00    +0.007 C 
ENDBRANCH  18  28
BRANCH   6  30
ATOM     30  O   LIG    1       25.889 -32.560   9.027  0.00  0.00    -0.411 OA
BRANCH  30  31
ATOM     31  C   LIG    1       25.451 -33.203  10.192  0.00  0.00    +0.408 C 
ATOM     32  N   LIG    1       24.085 -33.420  10.178  0.00  0.00    -0.267 N 
ATOM     33  C   LIG    1       23.408 -33.823  11.394  0.00  0.00    +0.112 C 
ATOM     34  C   LIG    1       22.536 -32.682  11.918  0.00  0.00    +0.038 C 
ATOM     35  C   LIG    1       21.574 -32.123  10.832  0.00  0.00    +0.060 C 
ATOM     36  C   LIG    1       22.391 -31.797   9.555  0.00  0.00    +0.038 C 
ATOM     37  C   LIG    1       23.221 -32.987   9.101  0.00  0.00    +0.112 C 
ATOM     38  O   LIG    1       26.166 -33.544  11.119  0.00  0.00    -0.226 OA
BRANCH  35  39
ATOM     39  N   LIG    1       20.836 -30.927  11.318  0.00  0.00    -0.299 NA
ATOM     40  C   LIG    1       19.681 -30.530  10.492  0.00  0.00    +0.085 C 
ATOM     41  C   LIG    1       18.496 -31.492  10.597  0.00  0.00    +0.015 C 
ATOM     42  C   LIG    1       18.054 -31.667  12.047  0.00  0.00    +0.002 C 
ATOM     43  C   LIG    1       19.237 -31.968  12.963  0.00  0.00    +0.015 C 
ATOM     44  C   LIG    1       20.401 -31.003  12.725  0.00  0.00    +0.085 C 
ENDBRANCH  35  39
ENDBRANCH  30  31
ENDBRANCH   6  30
TORSDOF 6
ENDMDL
MODEL 3
REMARK VINA RESULT:      -3.6      1.548      3.362
REMARK  Name = *****
REMARK                            x       y       z     vdW  Elec       q    Type
REMARK                         _______ _______ _______ _____ _____    ______ ____
ROOT
ATOM      1  C   LIG    1       24.596 -28.302   6.365  0.00  0.00    -0.031 A 
ATOM      2  C   LIG    1       25.293 -29.021   7.378  0.00  0.00    +0.007 A 
ATOM      3  C   LIG    1       26.135 -28.288   8.275  0.00  0.00    +0.072 A 
ATOM      4  C   LIG    1       26.808 -28.956   9.278  0.00  0.00    +0.032 A 
ATOM      5  C   LIG    1       26.702 -30.331   9.437  0.00  0.00    +0.048 A 
ATOM      6  C   LIG    1       25.940 -31.063   8.545  0.00  0.00    +0.134 A 
ATOM      7  N   LIG    1       26.329 -26.967   8.213  0.00  0.00    -0.245 NA
ATOM      8  C   LIG    1       25.674 -26.343   7.235  0.00  0.00    +0.093 A 
ATOM      9  C   LIG    1       25.798 -24.932   6.904  0.00  0.00    +0.071 C 
ATOM     10  N   LIG    1       25.023 -24.684   5.791  0.00  0.00    -0.302 N 
ATOM     11  C   LIG    1       24.325 -25.892   5.348  0.00  0.00    +0.163 C 
ATOM     12  C   LIG    1       24.932 -23.465   5.176  0.00  0.00    +0.259 C 
ATOM     13  O   LIG    1       24.244 -23.246   4.186  0.00  0.00    -0.267 OA
ATOM     14  C   LIG    1       25.766 -22.386   5.796  0.00  0.00    +0.061 C 
ATOM     15  C   LIG    1       25.726 -21.067   5.112  0.00  0.00    +0.273 C 
ATOM     16  O   LIG    1       26.629 -20.082   5.647  0.00  0.00    -0.458 OA
ATOM     17  C   LIG    1       27.036 -20.155   6.933  0.00  0.00    +0.344 C 
ATOM     18  C   LIG    1       27.361 -21.557   7.501  0.00  0.00    +0.188 C 
ATOM     19  O   LIG    1       27.248 -19.138   7.593  0.00  0.00    -0.247 OA
ATOM     20  C   LIG    1       26.511 -22.635   6.889  0.00  0.00    +0.008 C 
ATOM     21  C   LIG    1       26.519 -23.967   7.481  0.00  0.00    +0.035 C 
ATOM     22  C   LIG    1       25.219 -30.423   7.534  0.00  0.00    +0.056 A 
ATOM     23  C   LIG    1       24.821 -26.933   6.309  0.00  0.00    +0.004 A 
ENDROOT
BRANCH   1  25
ATOM     24  C   LIG    1       24.364 -29.641   4.248  0.00  0.00    +0.009 C 
ATOM     25  C   LIG    1       23.639 -28.944   5.391  0.00  0.00    +0.033 C 
ENDBRANCH   1  25
BRANCH  18  26
ATOM     26  O   LIG    1       27.065 -21.519   8.910  0.00  0.00    -0.373 OA
ATOM     27  H   LIG    1       26.221 -22.003   9.024  0.00  0.00    +0.211 HD
ENDBRANCH  18  26
BRANCH  18  28
ATOM     28  C   LIG    1       28.877 -21.822   7.358  0.00  0.00    +0.048 C 
ATOM     29  C   LIG    1       29.759 -21.065   8.344  0.00  0.00    +0.007 C 
ENDBRANCH  18  28
BRANCH   6  30
ATOM     30  O   LIG    1       25.817 -32.463   8.598  0.00  0.00    -0.411 OA
BRANCH  30  31
ATOM     31  C   LIG    1       25.815 -33.189   9.797  0.00  0.00    +0.408 C 
ATOM     32  N   LIG    1       24.597 -33.107  10.447  0.00  0.00    -0.267 N 
ATOM     33  C   LIG    1       24.482 -33.560  11.819  0.00  0.00    +0.112 C 
ATOM     34  C   LIG    1       24.293 -32.367  12.756  0.00  0.00    +0.038 C 
ATOM     35  C   LIG    1       23.125 -31.442  12.311  0.00  0.00    +0.060 C 
ATOM     36  C   LIG    1       23.310 -31.082  10.813  0.00  0.00    +0.038 C 
ATOM     37  C   LIG    1       23.483 -32.325   9.956  0.00  0.00    +0.112 C 
ATOM     38  O   LIG    1       26.759 -33.824  10.236  0.00  0.00    -0.226 OA
BRANCH  35  39
ATOM     39  N   LIG    1       23.047 -30.218  13.152  0.00  0.00    -0.299 NA
ATOM     40  C   LIG    1       22.250 -29.118  12.577  0.00  0.00    +0.085 C 
ATOM     41  C   LIG    1       20.745 -29.394  12.570  0.00  0.00    +0.015 C 
ATOM     42  C   LIG    1       20.237 -29.718  13.972  0.00  0.00    +0.002 C 
ATOM     43  C   LIG    1       21.102 -30.775  14.654  0.00  0.00    +0.015 C 
ATOM     44  C   LIG    1       22.594 -30.450  14.536  0.00  0.00    +0.085 C 
ENDBRANCH  35  39
ENDBRANCH  30  31
ENDBRANCH   6  30
TORSDOF 6
ENDMDL
MODEL 4
REMARK VINA RESULT:      -3.6      0.895      1.295
REMARK  Name = *****
REMARK                            x       y       z     vdW  Elec       q    Type
REMARK                         _______ _______ _______ _____ _____    ______ ____
ROOT
ATOM      1  C   LIG    1       25.957 -27.741   7.733  0.00  0.00    -0.031 A 
ATOM      2  C   LIG    1       25.150 -28.690   7.043  0.00  0.00    +0.007 A 
ATOM      3  C   LIG    1       24.366 -28.236   5.932  0.00  0.00    +0.072 A 
ATOM      4  C   LIG    1       23.589 -29.137   5.233  0.00  0.00    +0.032 A 
ATOM      5  C   LIG    1       23.535 -30.480   5.583  0.00  0.00    +0.048 A 
ATOM      6  C   LIG    1       24.238 -30.924   6.687  0.00  0.00    +0.134 A 
ATOM      7  N   LIG    1       24.325 -26.968   5.511  0.00  0.00    -0.245 NA
ATOM      8  C   LIG    1       25.079 -26.116   6.203  0.00  0.00    +0.093 A 
ATOM      9  C   LIG    1       25.125 -24.676   5.999  0.00  0.00    +0.071 C 
ATOM     10  N   LIG    1       25.960 -24.136   6.955  0.00  0.00    -0.302 N 
ATOM     11  C   LIG    1       26.532 -25.176   7.812  0.00  0.00    +0.163 C 
ATOM     12  C   LIG    1       26.208 -22.797   7.088  0.00  0.00    +0.259 C 
ATOM     13  O   LIG    1       26.949 -22.318   7.939  0.00  0.00    -0.267 OA
ATOM     14  C   LIG    1       25.481 -21.924   6.112  0.00  0.00    +0.061 C 
ATOM     15  C   LIG    1       25.692 -20.462   6.272  0.00  0.00    +0.273 C 
ATOM     16  O   LIG    1       24.889 -19.637   5.408  0.00  0.00    -0.458 OA
ATOM     17  C   LIG    1       24.434 -20.121   4.232  0.00  0.00    +0.344 C 
ATOM     18  C   LIG    1       23.934 -21.585   4.206  0.00  0.00    +0.188 C 
ATOM     19  O   LIG    1       24.316 -19.392   3.247  0.00  0.00    -0.247 OA
ATOM     20  C   LIG    1       24.677 -22.461   5.175  0.00  0.00    +0.008 C 
ATOM     21  C   LIG    1       24.499 -23.906   5.106  0.00  0.00    +0.035 C 
ATOM     22  C   LIG    1       25.060 -30.052   7.404  0.00  0.00    +0.056 A 
ATOM     23  C   LIG    1       25.890 -26.427   7.288  0.00  0.00    +0.004 A 
ENDROOT
BRANCH   1  25
ATOM     24  C   LIG    1       26.096 -28.629  10.083  0.00  0.00    +0.009 C 
ATOM     25  C   LIG    1       26.867 -28.096   8.883  0.00  0.00    +0.033 C 
ENDBRANCH   1  25
BRANCH  18  26
ATOM     26  O   LIG    1       24.186 -22.092   2.883  0.00  0.00    -0.373 OA
ATOM     27  H   LIG    1       23.347 -21.988   2.387  0.00  0.00    +0.211 HD
ENDBRANCH  18  26
BRANCH  18  28
ATOM     28  C   LIG    1       22.404 -21.601   4.421  0.00  0.00    +0.048 C 
ATOM     29  C   LIG    1       21.822 -20.320   5.009  0.00  0.00    +0.007 C 
ENDBRANCH  18  28
BRANCH   6  30
ATOM     30  O   LIG    1       24.201 -32.254   7.145  0.00  0.00    -0.411 OA
BRANCH  30  31
ATOM     31  C   LIG    1       24.988 -32.723   8.205  0.00  0.00    +0.408 C 
ATOM     32  N   LIG    1       24.232 -33.395   9.148  0.00  0.00    -0.267 N 
ATOM     33  C   LIG    1       24.811 -33.718  10.437  0.00  0.00    +0.112 C 
ATOM     34  C   LIG    1       24.176 -32.860  11.532  0.00  0.00    +0.038 C 
ATOM     35  C   LIG    1       22.623 -32.933  11.517  0.00  0.00    +0.060 C 
ATOM     36  C   LIG    1       22.119 -32.647  10.078  0.00  0.00    +0.038 C 
ATOM     37  C   LIG    1       22.796 -33.548   9.058  0.00  0.00    +0.112 C 
ATOM     38  O   LIG    1       26.193 -32.573   8.306  0.00  0.00    -0.226 OA
BRANCH  35  39
ATOM     39  N   LIG    1       22.022 -31.988  12.495  0.00  0.00    -0.299 NA
ATOM     40  C   LIG    1       22.931 -31.539  13.566  0.00  0.00    +0.085 C 
ATOM     41  C   LIG    1       24.021 -30.581  13.080  0.00  0.00    +0.015 C 
ATOM     42  C   LIG    1       23.416 -29.369  12.377  0.00  0.00    +0.002 C 
ATOM     43  C   LIG    1       22.381 -29.782  11.334  0.00  0.00    +0.015 C 
ATOM     44  C   LIG    1       21.386 -30.802  11.893  0.00  0.00    +0.085 C 
ENDBRANCH  35  39
ENDBRANCH  30  31
ENDBRANCH   6  30
TORSDOF 6
ENDMDL
MODEL 5
REMARK VINA RESULT:      -3.4      1.360      1.841
REMARK  Name = *****
REMARK                            x       y       z     vdW  Elec       q    Type
REMARK                         _______ _______ _______ _____ _____    ______ ____
ROOT
ATOM      1  C   LIG    1       25.993 -27.667   7.758  0.00  0.00    -0.031 A 
ATOM      2  C   LIG    1       25.198 -28.634   7.080  0.00  0.00    +0.007 A 
ATOM      3  C   LIG    1       24.407 -28.204   5.966  0.00  0.00    +0.072 A 
ATOM      4  C   LIG    1       23.641 -29.123   5.277  0.00  0.00    +0.032 A 
ATOM      5  C   LIG    1       23.604 -30.462   5.643  0.00  0.00    +0.048 A 
ATOM      6  C   LIG    1       24.315 -30.884   6.752  0.00  0.00    +0.134 A 
ATOM      7  N   LIG    1       24.348 -26.941   5.530  0.00  0.00    -0.245 NA
ATOM      8  C   LIG    1       25.091 -26.071   6.211  0.00  0.00    +0.093 A 
ATOM      9  C   LIG    1       25.119 -24.633   5.991  0.00  0.00    +0.071 C 
ATOM     10  N   LIG    1       25.947 -24.072   6.939  0.00  0.00    -0.302 N 
ATOM     11  C   LIG    1       26.534 -25.094   7.807  0.00  0.00    +0.163 C 
ATOM     12  C   LIG    1       26.179 -22.728   7.056  0.00  0.00    +0.259 C 
ATOM     13  O   LIG    1       26.914 -22.229   7.901  0.00  0.00    -0.267 OA
ATOM     14  C   LIG    1       25.438 -21.876   6.071  0.00  0.00    +0.061 C 
ATOM     15  C   LIG    1       25.631 -20.409   6.214  0.00  0.00    +0.273 C 
ATOM     16  O   LIG    1       24.815 -19.605   5.342  0.00  0.00    -0.458 OA
ATOM     17  C   LIG    1       24.365 -20.108   4.172  0.00  0.00    +0.344 C 
ATOM     18  C   LIG    1       23.885 -21.579   4.164  0.00  0.00    +0.188 C 
ATOM     19  O   LIG    1       24.237 -19.393   3.178  0.00  0.00    -0.247 OA
ATOM     20  C   LIG    1       24.641 -22.434   5.142  0.00  0.00    +0.008 C 
ATOM     21  C   LIG    1       24.481 -23.882   5.089  0.00  0.00    +0.035 C 
ATOM     22  C   LIG    1       25.126 -29.993   7.458  0.00  0.00    +0.056 A 
ATOM     23  C   LIG    1       25.908 -26.359   7.299  0.00  0.00    +0.004 A 
ENDROOT
BRANCH   1  25
ATOM     24  C   LIG    1       26.168 -28.663  10.062  0.00  0.00    +0.009 C 
ATOM     25  C   LIG    1       26.909 -27.996   8.911  0.00  0.00    +0.033 C 
ENDBRANCH   1  25
BRANCH  18  26
ATOM     26  O   LIG    1       24.141 -22.098   2.846  0.00  0.00    -0.373 OA
ATOM     27  H   LIG    1       24.577 -22.966   2.975  0.00  0.00    +0.211 HD
ENDBRANCH  18  26
BRANCH  18  28
ATOM     28  C   LIG    1       22.355 -21.613   4.381  0.00  0.00    +0.048 C 
ATOM     29  C   LIG    1       21.762 -20.346   4.986  0.00  0.00    +0.007 C 
ENDBRANCH  18  28
BRANCH   6  30
ATOM     30  O   LIG    1       24.296 -32.209   7.224  0.00  0.00    -0.411 OA
BRANCH  30  31
ATOM     31  C   LIG    1       23.126 -32.862   7.632  0.00  0.00    +0.408 C 
ATOM     32  N   LIG    1       22.671 -32.392   8.850  0.00  0.00    -0.267 N 
ATOM     33  C   LIG    1       21.639 -33.118   9.562  0.00  0.00    +0.112 C 
ATOM     34  C   LIG    1       22.224 -33.785  10.807  0.00  0.00    +0.038 C 
ATOM     35  C   LIG    1       23.006 -32.786  11.705  0.00  0.00    +0.060 C 
ATOM     36  C   LIG    1       24.026 -32.014  10.828  0.00  0.00    +0.038 C 
ATOM     37  C   LIG    1       23.358 -31.378   9.620  0.00  0.00    +0.112 C 
ATOM     38  O   LIG    1       22.556 -33.740   7.007  0.00  0.00    -0.226 OA
BRANCH  35  39
ATOM     39  N   LIG    1       23.682 -33.478  12.833  0.00  0.00    -0.299 NA
ATOM     40  C   LIG    1       24.871 -32.786  13.365  0.00  0.00    +0.085 C 
ATOM     41  C   LIG    1       24.539 -31.513  14.146  0.00  0.00    +0.015 C 
ATOM     42  C   LIG    1       23.562 -31.802  15.282  0.00  0.00    +0.002 C 
ATOM     43  C   LIG    1       22.365 -32.618  14.801  0.00  0.00    +0.015 C 
ATOM     44  C   LIG    1       22.798 -33.823  13.962  0.00  0.00    +0.085 C 
ENDBRANCH  35  39
ENDBRANCH  30  31
ENDBRANCH   6  30
TORSDOF 6
ENDMDL
MODEL 6
REMARK VINA RESULT:      -2.8      3.365     11.983
REMARK  Name = *****
REMARK                            x       y       z     vdW  Elec       q    Type
REMARK                         _______ _______ _______ _____ _____    ______ ____
ROOT
ATOM      1  C   LIG    1       25.157 -25.348   4.827  0.00  0.00    -0.031 A 
ATOM      2  C   LIG    1       25.231 -24.164   5.614  0.00  0.00    +0.007 A 
ATOM      3  C   LIG    1       25.471 -24.296   7.020  0.00  0.00    +0.072 A 
ATOM      4  C   LIG    1       25.566 -23.165   7.806  0.00  0.00    +0.032 A 
ATOM      5  C   LIG    1       25.424 -21.891   7.271  0.00  0.00    +0.048 A 
ATOM      6  C   LIG    1       25.133 -21.746   5.927  0.00  0.00    +0.134 A 
ATOM      7  N   LIG    1       25.609 -25.466   7.652  0.00  0.00    -0.245 NA
ATOM      8  C   LIG    1       25.510 -26.544   6.875  0.00  0.00    +0.093 A 
ATOM      9  C   LIG    1       25.528 -27.922   7.342  0.00  0.00    +0.071 C 
ATOM     10  N   LIG    1       25.324 -28.744   6.253  0.00  0.00    -0.302 N 
ATOM     11  C   LIG    1       25.195 -27.970   5.017  0.00  0.00    +0.163 C 
ATOM     12  C   LIG    1       25.242 -30.108   6.327  0.00  0.00    +0.259 C 
ATOM     13  O   LIG    1       25.059 -30.838   5.360  0.00  0.00    -0.267 OA
ATOM     14  C   LIG    1       25.373 -30.670   7.709  0.00  0.00    +0.061 C 
ATOM     15  C   LIG    1       25.232 -32.146   7.822  0.00  0.00    +0.273 C 
ATOM     16  O   LIG    1       25.236 -32.652   9.170  0.00  0.00    -0.458 OA
ATOM     17  C   LIG    1       25.850 -31.962  10.156  0.00  0.00    +0.344 C 
ATOM     18  C   LIG    1       25.700 -30.423  10.153  0.00  0.00    +0.188 C 
ATOM     19  O   LIG    1       26.413 -32.544  11.084  0.00  0.00    -0.247 OA
ATOM     20  C   LIG    1       25.584 -29.861   8.764  0.00  0.00    +0.008 C 
ATOM     21  C   LIG    1       25.678 -28.419   8.572  0.00  0.00    +0.035 C 
ATOM     22  C   LIG    1       25.058 -22.863   5.091  0.00  0.00    +0.056 A 
ATOM     23  C   LIG    1       25.291 -26.553   5.502  0.00  0.00    +0.004 A 
ENDROOT
BRANCH   1  25
ATOM     24  C   LIG    1       25.874 -26.345   2.630  0.00  0.00    +0.009 C 
ATOM     25  C   LIG    1       24.962 -25.346   3.330  0.00  0.00    +0.033 C 
ENDBRANCH   1  25
BRANCH  18  26
ATOM     26  O   LIG    1       26.897 -29.882  10.741  0.00  0.00    -0.373 OA
ATOM     27  H   LIG    1       27.573 -29.884  10.033  0.00  0.00    +0.211 HD
ENDBRANCH  18  26
BRANCH  18  28
ATOM     28  C   LIG    1       24.520 -30.028  11.070  0.00  0.00    +0.048 C 
ATOM     29  C   LIG    1       23.136 -30.288  10.486  0.00  0.00    +0.007 C 
ENDBRANCH  18  28
BRANCH   6  30
ATOM     30  O   LIG    1       24.922 -20.499   5.311  0.00  0.00    -0.411 OA
BRANCH  30  31
ATOM     31  C   LIG    1       23.655 -19.921   5.162  0.00  0.00    +0.408 C 
ATOM     32  N   LIG    1       23.637 -18.972   4.156  0.00  0.00    -0.267 N 
ATOM     33  C   LIG    1       22.503 -18.079   4.030  0.00  0.00    +0.112 C 
ATOM     34  C   LIG    1       22.900 -16.659   4.432  0.00  0.00    +0.038 C 
ATOM     35  C   LIG    1       24.165 -16.160   3.677  0.00  0.00    +0.060 C 
ATOM     36  C   LIG    1       25.285 -17.224   3.816  0.00  0.00    +0.038 C 
ATOM     37  C   LIG    1       24.806 -18.601   3.389  0.00  0.00    +0.112 C 
ATOM     38  O   LIG    1       22.671 -20.203   5.824  0.00  0.00    -0.226 OA
BRANCH  35  39
ATOM     39  N   LIG    1       24.615 -14.836   4.181  0.00  0.00    -0.299 NA
ATOM     40  C   LIG    1       26.063 -14.727   4.437  0.00  0.00    +0.085 C 
ATOM     41  C   LIG    1       26.909 -14.700   3.162  0.00  0.00    +0.015 C 
ATOM     42  C   LIG    1       26.467 -13.575   2.231  0.00  0.00    +0.002 C 
ATOM     43  C   LIG    1       24.954 -13.577   2.025  0.00  0.00    +0.015 C 
ATOM     44  C   LIG    1       24.200 -13.688   3.352  0.00  0.00    +0.085 C 
ENDBRANCH  35  39
ENDBRANCH  30  31
ENDBRANCH   6  30
TORSDOF 6
ENDMDL
MODEL 7
REMARK VINA RESULT:      -2.0      3.418     11.753
REMARK  Name = *****
REMARK                            x       y       z     vdW  Elec       q    Type
REMARK                         _______ _______ _______ _____ _____    ______ ____
ROOT
ATOM      1  C   LIG    1       24.971 -26.352   5.659  0.00  0.00    -0.031 A 
ATOM      2  C   LIG    1       25.206 -24.968   5.903  0.00  0.00    +0.007 A 
ATOM      3  C   LIG    1       25.794 -24.588   7.153  0.00  0.00    +0.072 A 
ATOM      4  C   LIG    1       26.050 -23.256   7.409  0.00  0.00    +0.032 A 
ATOM      5  C   LIG    1       25.741 -22.263   6.489  0.00  0.00    +0.048 A 
ATOM      6  C   LIG    1       25.120 -22.606   5.301  0.00  0.00    +0.134 A 
ATOM      7  N   LIG    1       26.120 -25.449   8.122  0.00  0.00    -0.245 NA
ATOM      8  C   LIG    1       25.860 -26.728   7.855  0.00  0.00    +0.093 A 
ATOM      9  C   LIG    1       26.034 -27.834   8.784  0.00  0.00    +0.071 C 
ATOM     10  N   LIG    1       25.588 -28.984   8.167  0.00  0.00    -0.302 N 
ATOM     11  C   LIG    1       25.131 -28.714   6.802  0.00  0.00    +0.163 C 
ATOM     12  C   LIG    1       25.567 -30.215   8.764  0.00  0.00    +0.259 C 
ATOM     13  O   LIG    1       25.168 -31.237   8.216  0.00  0.00    -0.267 OA
ATOM     14  C   LIG    1       26.056 -30.235  10.179  0.00  0.00    +0.061 C 
ATOM     15  C   LIG    1       25.991 -31.551  10.867  0.00  0.00    +0.273 C 
ATOM     16  O   LIG    1       26.347 -31.523  12.261  0.00  0.00    -0.458 OA
ATOM     17  C   LIG    1       27.168 -30.561  12.737  0.00  0.00    +0.344 C 
ATOM     18  C   LIG    1       26.977 -29.126  12.195  0.00  0.00    +0.188 C 
ATOM     19  O   LIG    1       27.962 -30.796  13.648  0.00  0.00    -0.247 OA
ATOM     20  C   LIG    1       26.501 -29.110  10.769  0.00  0.00    +0.008 C 
ATOM     21  C   LIG    1       26.502 -27.851  10.034  0.00  0.00    +0.035 C 
ATOM     22  C   LIG    1       24.870 -23.944   4.990  0.00  0.00    +0.056 A 
ATOM     23  C   LIG    1       25.305 -27.228   6.683  0.00  0.00    +0.004 A 
ENDROOT
BRANCH   1  25
ATOM     24  C   LIG    1       25.138 -28.141   3.898  0.00  0.00    +0.009 C 
ATOM     25  C   LIG    1       24.408 -26.890   4.367  0.00  0.00    +0.033 C 
ENDBRANCH   1  25
BRANCH  18  26
ATOM     26  O   LIG    1       28.267 -28.488  12.228  0.00  0.00    -0.373 OA
ATOM     27  H   LIG    1       28.357 -28.101  13.123  0.00  0.00    +0.211 HD
ENDBRANCH  18  26
BRANCH  18  28
ATOM     28  C   LIG    1       26.053 -28.341  13.154  0.00  0.00    +0.048 C 
ATOM     29  C   LIG    1       26.775 -27.533  14.226  0.00  0.00    +0.007 C 
ENDBRANCH  18  28
BRANCH   6  30
ATOM     30  O   LIG    1       24.725 -21.663   4.334  0.00  0.00    -0.411 OA
BRANCH  30  31
ATOM     31  C   LIG    1       23.560 -20.893   4.443  0.00  0.00    +0.408 C 
ATOM     32  N   LIG    1       23.601 -19.778   3.627  0.00  0.00    -0.267 N 
ATOM     33  C   LIG    1       22.620 -18.725   3.795  0.00  0.00    +0.112 C 
ATOM     34  C   LIG    1       23.277 -17.478   4.386  0.00  0.00    +0.038 C 
ATOM     35  C   LIG    1       24.530 -17.030   3.582  0.00  0.00    +0.060 C 
ATOM     36  C   LIG    1       25.472 -18.249   3.397  0.00  0.00    +0.038 C 
ATOM     37  C   LIG    1       24.739 -19.438   2.799  0.00  0.00    +0.112 C 
ATOM     38  O   LIG    1       22.609 -21.154   5.161  0.00  0.00    -0.226 OA
BRANCH  35  39
ATOM     39  N   LIG    1       25.234 -15.903   4.249  0.00  0.00    -0.299 NA
ATOM     40  C   LIG    1       26.504 -15.502   3.617  0.00  0.00    +0.085 C 
ATOM     41  C   LIG    1       26.321 -14.792   2.274  0.00  0.00    +0.015 C 
ATOM     42  C   LIG    1       25.410 -13.576   2.412  0.00  0.00    +0.002 C 
ATOM     43  C   LIG    1       24.125 -13.918   3.163  0.00  0.00    +0.015 C 
ATOM     44  C   LIG    1       24.410 -14.696   4.450  0.00  0.00    +0.085 C 
ENDBRANCH  35  39
ENDBRANCH  30  31
ENDBRANCH   6  30
TORSDOF 6
ENDMDL
