MODEL 1
REMARK VINA RESULT:      -5.6      0.000      0.000
REMARK  Name = *****
REMARK                            x       y       z     vdW  Elec       q    Type
REMARK                         _______ _______ _______ _____ _____    ______ ____
ROOT
ATOM      1  O   LIG    1       28.563 -19.815   5.562  0.00  0.00    -0.223 OA
ATOM      2  C   LIG    1       27.371 -20.079   5.620  0.00  0.00    +0.419 C 
ATOM      3  O   LIG    1       26.749 -20.652   6.738  0.00  0.00    -0.408 OA
ATOM      4  C   LIG    1       25.432 -20.751   6.322  0.00  0.00    +0.157 A 
ATOM      5  C   LIG    1       25.244 -20.278   5.039  0.00  0.00    +0.089 A 
ATOM      6  C   LIG    1       24.021 -20.275   4.411  0.00  0.00    +0.049 A 
ATOM      7  C   LIG    1       22.949 -20.786   5.145  0.00  0.00    +0.043 A 
ATOM      8  C   LIG    1       23.124 -21.275   6.457  0.00  0.00    +0.023 A 
ATOM      9 CL   LIG    1       21.381 -20.823   4.436  0.00  0.00    -0.084 Cl
ATOM     10  C   LIG    1       24.387 -21.259   7.062  0.00  0.00    +0.050 A 
ATOM     11  N   LIG    1       26.468 -19.857   4.607  0.00  0.00    -0.288 N 
ATOM     12  H   LIG    1       26.713 -19.452   3.718  0.00  0.00    +0.172 HD
ENDROOT
TORSDOF 0
ENDMDL
MODEL 2
REMARK VINA RESULT:      -5.3      1.224      1.999
REMARK  Name = *****
REMARK                            x       y       z     vdW  Elec       q    Type
REMARK                         _______ _______ _______ _____ _____    ______ ____
ROOT
ATOM      1  O   LIG    1       28.595 -20.495   7.057  0.00  0.00    -0.223 OA
ATOM      2  C   LIG    1       27.525 -20.452   6.469  0.00  0.00    +0.419 C 
ATOM      3  O   LIG    1       27.349 -19.874   5.205  0.00  0.00    -0.408 OA
ATOM      4  C   LIG    1       25.997 -20.072   4.977  0.00  0.00    +0.157 A 
ATOM      5  C   LIG    1       25.374 -20.725   6.021  0.00  0.00    +0.089 A 
ATOM      6  C   LIG    1       24.034 -21.031   6.023  0.00  0.00    +0.049 A 
ATOM      7  C   LIG    1       23.310 -20.642   4.894  0.00  0.00    +0.043 A 
ATOM      8  C   LIG    1       23.931 -19.974   3.818  0.00  0.00    +0.023 A 
ATOM      9 CL   LIG    1       21.625 -20.985   4.812  0.00  0.00    -0.084 Cl
ATOM     10  C   LIG    1       25.300 -19.681   3.855  0.00  0.00    +0.050 A 
ATOM     11  N   LIG    1       26.342 -20.960   6.954  0.00  0.00    -0.288 N 
ATOM     12  H   LIG    1       26.255 -21.417   7.846  0.00  0.00    +0.172 HD
ENDROOT
TORSDOF 0
ENDMDL
MODEL 3
REMARK VINA RESULT:      -4.8      3.399      4.569
REMARK  Name = *****
REMARK                            x       y       z     vdW  Elec       q    Type
REMARK                         _______ _______ _______ _____ _____    ______ ____
ROOT
ATOM      1  O   LIG    1       21.295 -21.199   4.845  0.00  0.00    -0.223 OA
ATOM      2  C   LIG    1       22.485 -20.957   4.986  0.00  0.00    +0.419 C 
ATOM      3  O   LIG    1       23.258 -20.254   4.052  0.00  0.00    -0.408 OA
ATOM      4  C   LIG    1       24.505 -20.242   4.654  0.00  0.00    +0.157 A 
ATOM      5  C   LIG    1       24.512 -20.889   5.873  0.00  0.00    +0.089 A 
ATOM      6  C   LIG    1       25.637 -21.007   6.655  0.00  0.00    +0.049 A 
ATOM      7  C   LIG    1       26.803 -20.429   6.149  0.00  0.00    +0.043 A 
ATOM      8  C   LIG    1       26.814 -19.763   4.905  0.00  0.00    +0.023 A 
ATOM      9 CL   LIG    1       28.260 -20.529   7.062  0.00  0.00    -0.084 Cl
ATOM     10  C   LIG    1       25.646 -19.665   4.139  0.00  0.00    +0.050 A 
ATOM     11  N   LIG    1       23.239 -21.335   6.074  0.00  0.00    -0.288 N 
ATOM     12  H   LIG    1       22.871 -21.849   6.857  0.00  0.00    +0.172 HD
ENDROOT
TORSDOF 0
ENDMDL
MODEL 4
REMARK VINA RESULT:      -4.7      3.352      4.110
REMARK  Name = *****
REMARK                            x       y       z     vdW  Elec       q    Type
REMARK                         _______ _______ _______ _____ _____    ______ ____
ROOT
ATOM      1  O   LIG    1       21.550 -18.947   3.921  0.00  0.00    -0.223 OA
ATOM      2  C   LIG    1       22.555 -19.344   4.491  0.00  0.00    +0.419 C 
ATOM      3  O   LIG    1       22.545 -20.025   5.716  0.00  0.00    -0.408 OA
ATOM      4  C   LIG    1       23.893 -20.254   5.935  0.00  0.00    +0.157 A 
ATOM      5  C   LIG    1       24.687 -19.753   4.924  0.00  0.00    +0.089 A 
ATOM      6  C   LIG    1       26.058 -19.860   4.923  0.00  0.00    +0.049 A 
ATOM      7  C   LIG    1       26.628 -20.513   6.018  0.00  0.00    +0.043 A 
ATOM      8  C   LIG    1       25.830 -21.031   7.060  0.00  0.00    +0.023 A 
ATOM      9 CL   LIG    1       28.338 -20.691   6.099  0.00  0.00    -0.084 Cl
ATOM     10  C   LIG    1       24.436 -20.902   7.023  0.00  0.00    +0.050 A 
ATOM     11  N   LIG    1       23.839 -19.184   4.021  0.00  0.00    -0.288 N 
ATOM     12  H   LIG    1       24.062 -18.720   3.156  0.00  0.00    +0.172 HD
ENDROOT
TORSDOF 0
ENDMDL
MODEL 5
REMARK VINA RESULT:      -4.2      6.645      7.280
REMARK  Name = *****
REMARK                            x       y       z     vdW  Elec       q    Type
REMARK                         _______ _______ _______ _____ _____    ______ ____
ROOT
ATOM      1  O   LIG    1       29.474 -13.097   3.464  0.00  0.00    -0.223 OA
ATOM      2  C   LIG    1       28.269 -13.302   3.497  0.00  0.00    +0.419 C 
ATOM      3  O   LIG    1       27.316 -12.463   2.902  0.00  0.00    -0.408 OA
ATOM      4  C   LIG    1       26.128 -13.107   3.208  0.00  0.00    +0.157 A 
ATOM      5  C   LIG    1       26.324 -14.260   3.939  0.00  0.00    +0.089 A 
ATOM      6  C   LIG    1       25.292 -15.067   4.360  0.00  0.00    +0.049 A 
ATOM      7  C   LIG    1       24.005 -14.658   4.007  0.00  0.00    +0.043 A 
ATOM      8  C   LIG    1       23.788 -13.481   3.259  0.00  0.00    +0.023 A 
ATOM      9 CL   LIG    1       22.654 -15.607   4.493  0.00  0.00    -0.084 Cl
ATOM     10  C   LIG    1       24.866 -12.687   2.850  0.00  0.00    +0.050 A 
ATOM     11  N   LIG    1       27.672 -14.375   4.115  0.00  0.00    -0.288 N 
ATOM     12  H   LIG    1       28.181 -15.095   4.601  0.00  0.00    +0.172 HD
ENDROOT
TORSDOF 0
ENDMDL
MODEL 6
REMARK VINA RESULT:      -3.5      2.500      2.955
REMARK  Name = *****
REMARK                            x       y       z     vdW  Elec       q    Type
REMARK                         _______ _______ _______ _____ _____    ______ ____
ROOT
ATOM      1  O   LIG    1       26.407 -16.195   3.039  0.00  0.00    -0.223 OA
ATOM      2  C   LIG    1       25.812 -17.207   3.378  0.00  0.00    +0.419 C 
ATOM      3  O   LIG    1       26.438 -18.430   3.655  0.00  0.00    -0.408 OA
ATOM      4  C   LIG    1       25.366 -19.241   3.985  0.00  0.00    +0.157 A 
ATOM      5  C   LIG    1       24.159 -18.576   3.919  0.00  0.00    +0.089 A 
ATOM      6  C   LIG    1       22.954 -19.177   4.202  0.00  0.00    +0.049 A 
ATOM      7  C   LIG    1       23.006 -20.523   4.568  0.00  0.00    +0.043 A 
ATOM      8  C   LIG    1       24.232 -21.217   4.641  0.00  0.00    +0.023 A 
ATOM      9 CL   LIG    1       21.545 -21.355   4.939  0.00  0.00    -0.084 Cl
ATOM     10  C   LIG    1       25.438 -20.569   4.345  0.00  0.00    +0.050 A 
ATOM     11  N   LIG    1       24.448 -17.299   3.537  0.00  0.00    -0.288 N 
ATOM     12  H   LIG    1       23.815 -16.531   3.387  0.00  0.00    +0.172 HD
ENDROOT
TORSDOF 0
ENDMDL
MODEL 7
REMARK VINA RESULT:      -3.5      5.778      6.478
REMARK  Name = *****
REMARK                            x       y       z     vdW  Elec       q    Type
REMARK                         _______ _______ _______ _____ _____    ______ ____
ROOT
ATOM      1  O   LIG    1       25.431 -18.911   3.408  0.00  0.00    -0.223 OA
ATOM      2  C   LIG    1       25.415 -17.690   3.456  0.00  0.00    +0.419 C 
ATOM      3  O   LIG    1       26.512 -16.879   3.135  0.00  0.00    -0.408 OA
ATOM      4  C   LIG    1       26.006 -15.606   3.341  0.00  0.00    +0.157 A 
ATOM      5  C   LIG    1       24.692 -15.620   3.761  0.00  0.00    +0.089 A 
ATOM      6  C   LIG    1       23.977 -14.477   4.030  0.00  0.00    +0.049 A 
ATOM      7  C   LIG    1       24.656 -13.269   3.858  0.00  0.00    +0.043 A 
ATOM      8  C   LIG    1       26.000 -13.237   3.429  0.00  0.00    +0.023 A 
ATOM      9 CL   LIG    1       23.838 -11.787   4.174  0.00  0.00    -0.084 Cl
ATOM     10  C   LIG    1       26.693 -14.425   3.164  0.00  0.00    +0.050 A 
ATOM     11  N   LIG    1       24.328 -16.933   3.830  0.00  0.00    -0.288 N 
ATOM     12  H   LIG    1       23.441 -17.325   4.099  0.00  0.00    +0.172 HD
ENDROOT
TORSDOF 0
ENDMDL
MODEL 8
REMARK VINA RESULT:      -3.3      5.841      6.462
REMARK  Name = *****
REMARK                            x       y       z     vdW  Elec       q    Type
REMARK                         _______ _______ _______ _____ _____    ______ ____
ROOT
ATOM      1  O   LIG    1       29.033 -12.292   4.174  0.00  0.00    -0.223 OA
ATOM      2  C   LIG    1       28.157 -13.136   4.061  0.00  0.00    +0.419 C 
ATOM      3  O   LIG    1       26.787 -12.865   4.188  0.00  0.00    -0.408 OA
ATOM      4  C   LIG    1       26.221 -14.111   3.981  0.00  0.00    +0.157 A 
ATOM      5  C   LIG    1       27.165 -15.089   3.742  0.00  0.00    +0.089 A 
ATOM      6  C   LIG    1       26.842 -16.405   3.509  0.00  0.00    +0.049 A 
ATOM      7  C   LIG    1       25.481 -16.719   3.526  0.00  0.00    +0.043 A 
ATOM      8  C   LIG    1       24.503 -15.731   3.768  0.00  0.00    +0.023 A 
ATOM      9 CL   LIG    1       24.985 -18.343   3.245  0.00  0.00    -0.084 Cl
ATOM     10  C   LIG    1       24.874 -14.401   4.001  0.00  0.00    +0.050 A 
ATOM     11  N   LIG    1       28.378 -14.467   3.793  0.00  0.00    -0.288 N 
ATOM     12  H   LIG    1       29.293 -14.866   3.666  0.00  0.00    +0.172 HD
ENDROOT
TORSDOF 0
ENDMDL
MODEL 9
REMARK VINA RESULT:      -3.3      6.005      6.810
REMARK  Name = *****
REMARK                            x       y       z     vdW  Elec       q    Type
REMARK                         _______ _______ _______ _____ _____    ______ ____
ROOT
ATOM      1  O   LIG    1       25.358 -18.851   3.203  0.00  0.00    -0.223 OA
ATOM      2  C   LIG    1       25.678 -17.685   3.378  0.00  0.00    +0.419 C 
ATOM      3  O   LIG    1       24.762 -16.627   3.468  0.00  0.00    -0.408 OA
ATOM      4  C   LIG    1       25.593 -15.536   3.663  0.00  0.00    +0.157 A 
ATOM      5  C   LIG    1       26.928 -15.885   3.691  0.00  0.00    +0.089 A 
ATOM      6  C   LIG    1       27.939 -14.971   3.871  0.00  0.00    +0.049 A 
ATOM      7  C   LIG    1       27.548 -13.640   4.026  0.00  0.00    +0.043 A 
ATOM      8  C   LIG    1       26.188 -13.266   4.000  0.00  0.00    +0.023 A 
ATOM      9 CL   LIG    1       28.749 -12.427   4.255  0.00  0.00    -0.084 Cl
ATOM     10  C   LIG    1       25.187 -14.228   3.815  0.00  0.00    +0.050 A 
ATOM     11  N   LIG    1       26.971 -17.236   3.513  0.00  0.00    -0.288 N 
ATOM     12  H   LIG    1       27.777 -17.838   3.478  0.00  0.00    +0.172 HD
ENDROOT
TORSDOF 0
ENDMDL
