MODEL 1
REMARK VINA RESULT:      51.2      0.000      0.000
REMARK  Name = *****
REMARK                            x       y       z     vdW  Elec       q    Type
REMARK                         _______ _______ _______ _____ _____    ______ ____
ROOT
ATOM      1  C   LIG    1       24.388 -16.737   2.267  0.00  0.00    +0.000 C 
ATOM      2  C   LIG    1       25.580 -17.279   2.578  0.00  0.00    +0.000 C 
ENDROOT
BRANCH   1   4
ATOM      3  C   LIG    1       22.934 -18.729   2.864  0.00  0.00    +0.074 C 
ATOM      4  C   LIG    1       23.169 -17.504   2.371  0.00  0.00    +0.006 C 
BRANCH   3   7
ATOM      5  C   LIG    1       25.993 -19.208   2.258  0.00  0.00    +0.027 C 
ATOM      6  C   LIG    1       25.207 -20.156   3.141  0.00  0.00    +0.081 C 
ATOM      7  C   LIG    1       23.790 -19.714   3.583  0.00  0.00    +0.195 C 
ATOM      8  N   LIG    1       23.535 -20.228   4.764  0.00  0.00    -0.194 N 
ATOM      9  C   LIG    1       24.723 -20.796   5.304  0.00  0.00    +0.213 A 
ATOM     10  C   LIG    1       24.903 -21.470   6.497  0.00  0.00    +0.079 A 
ATOM     11  C   LIG    1       26.205 -21.566   6.989  0.00  0.00    +0.015 A 
ATOM     12  C   LIG    1       27.254 -20.852   6.377  0.00  0.00    -0.017 A 
ATOM     13  C   LIG    1       27.058 -20.241   5.110  0.00  0.00    -0.007 A 
ATOM     14  C   LIG    1       28.098 -19.424   4.612  0.00  0.00    +0.009 A 
ATOM     15  C   LIG    1       29.262 -19.189   5.346  0.00  0.00    +0.001 A 
ATOM     16  C   LIG    1       29.451 -19.824   6.564  0.00  0.00    +0.001 A 
ATOM     17  C   LIG    1       28.468 -20.679   7.059  0.00  0.00    +0.008 A 
ATOM     18  C   LIG    1       25.798 -20.408   4.511  0.00  0.00    +0.047 A 
ATOM     19  C   LIG    1       25.039 -21.535   2.439  0.00  0.00    +0.027 C 
BRANCH   8  20
ATOM     20  C   LIG    1       22.343 -20.057   5.642  0.00  0.00    +0.358 C 
BRANCH  20  21
ATOM     21  C   LIG    1       22.761 -19.336   6.931  0.00  0.00    +0.074 C 
BRANCH  21  22
ATOM     22  C   LIG    1       23.275 -17.911   6.693  0.00  0.00    +0.031 C 
BRANCH  22  23
ATOM     23  C   LIG    1       22.837 -17.404   5.316  0.00  0.00    +0.198 C 
BRANCH  23  24
ATOM     24  S   LIG    1       22.375 -15.683   5.361  0.00  0.00    +0.080 S 
ATOM     25  O   LIG    1       21.642 -15.424   6.598  0.00  0.00    -0.147 OA
ATOM     26  O   LIG    1       21.895 -15.282   4.076  0.00  0.00    -0.147 OA
BRANCH  24  27
ATOM     27  O   LIG    1       23.847 -15.064   5.521  0.00  0.00    -0.254 OA
ATOM     28  H   LIG    1       24.258 -14.962   4.622  0.00  0.00    +0.244 HD
ENDBRANCH  24  27
ENDBRANCH  23  24
ENDBRANCH  22  23
ENDBRANCH  21  22
ENDBRANCH  20  21
ENDBRANCH   8  20
ENDBRANCH   3   7
ENDBRANCH   1   4
BRANCH   2  29
ATOM     29  C   LIG    1       26.848 -16.573   2.526  0.00  0.00    +0.000 C 
ATOM     30  C   LIG    1       27.051 -15.302   2.124  0.00  0.00    +0.002 C 
BRANCH  30  31
ATOM     31  C   LIG    1       26.027 -14.309   1.851  0.00  0.00    +0.020 C 
ATOM     32  C   LIG    1       25.636 -13.328   2.697  0.00  0.00    +0.021 C 
ATOM     33  C   LIG    1       24.160 -12.754   2.656  0.00  0.00    +0.031 C 
ATOM     34  C   LIG    1       23.151 -13.782   2.092  0.00  0.00    +0.022 C 
ATOM     35  C   LIG    1       24.091 -11.460   1.831  0.00  0.00    +0.022 C 
ATOM     36  C   LIG    1       23.933 -12.482   4.143  0.00  0.00    -0.007 A 
ATOM     37  C   LIG    1       25.163 -12.657   4.812  0.00  0.00    +0.038 A 
ATOM     38  C   LIG    1       25.271 -12.531   6.188  0.00  0.00    +0.024 A 
ATOM     39  C   LIG    1       24.129 -12.227   6.917  0.00  0.00    +0.010 A 
ATOM     40  C   LIG    1       22.892 -12.019   6.281  0.00  0.00    -0.018 A 
ATOM     41  C   LIG    1       21.767 -11.710   7.060  0.00  0.00    +0.008 A 
ATOM     42  C   LIG    1       20.534 -11.447   6.469  0.00  0.00    +0.001 A 
ATOM     43  C   LIG    1       20.414 -11.483   5.087  0.00  0.00    +0.001 A 
ATOM     44  C   LIG    1       21.518 -11.811   4.296  0.00  0.00    +0.009 A 
ATOM     45  C   LIG    1       22.776 -12.111   4.866  0.00  0.00    -0.012 A 
ATOM     46  N   LIG    1       26.253 -12.984   3.932  0.00  0.00    -0.302 N 
BRANCH  46  47
ATOM     47  C   LIG    1       27.199 -11.825   3.997  0.00  0.00    +0.111 C 
BRANCH  47  48
ATOM     48  C   LIG    1       28.612 -12.107   3.477  0.00  0.00    +0.021 C 
BRANCH  48  49
ATOM     49  C   LIG    1       28.894 -13.529   2.962  0.00  0.00    +0.027 C 
BRANCH  49  50
ATOM     50  C   LIG    1       29.473 -14.362   4.112  0.00  0.00    +0.198 C 
BRANCH  50  51
ATOM     51  S   LIG    1       28.264 -14.897   5.302  0.00  0.00    +0.080 S 
ATOM     52  O   LIG    1       27.075 -15.407   4.615  0.00  0.00    -0.147 OA
ATOM     53  O   LIG    1       28.176 -13.977   6.403  0.00  0.00    -0.147 OA
BRANCH  51  54
ATOM     54  O   LIG    1       29.069 -16.197   5.845  0.00  0.00    -0.254 OA
ATOM     55  H   LIG    1       29.067 -16.891   5.150  0.00  0.00    +0.244 HD
ENDBRANCH  51  54
ENDBRANCH  50  51
ENDBRANCH  49  50
ENDBRANCH  48  49
ENDBRANCH  47  48
ENDBRANCH  46  47
ENDBRANCH  30  31
ENDBRANCH   2  29
TORSDOF 16
ENDMDL
