MODEL 1
REMARK VINA RESULT:      -7.2      0.000      0.000
REMARK  Name = *****
REMARK                            x       y       z     vdW  Elec       q    Type
REMARK                         _______ _______ _______ _____ _____    ______ ____
ROOT
ATOM      1  C   LIG    1       24.146 -31.579   9.131  0.00  0.00    +0.134 C 
ATOM      2  C   LIG    1       24.256 -30.088   9.501  0.00  0.00    +0.079 C 
ATOM      3  C   LIG    1       24.054 -29.831  11.007  0.00  0.00    +0.158 C 
ATOM      4  C   LIG    1       22.635 -30.264  11.329  0.00  0.00    +0.030 A 
ATOM      5  C   LIG    1       22.120 -31.449  10.769  0.00  0.00    +0.007 A 
ATOM      6  C   LIG    1       20.866 -31.908  11.195  0.00  0.00    +0.132 A 
ATOM      7  C   LIG    1       20.083 -31.165  12.094  0.00  0.00    +0.078 A 
ATOM      8  C   LIG    1       18.771 -31.668  12.520  0.00  0.00    +0.198 C 
ATOM      9  O   LIG    1       18.397 -32.778  12.140  0.00  0.00    -0.286 OA
ATOM     10  C   LIG    1       17.909 -30.852  13.387  0.00  0.00    +0.037 A 
ATOM     11  C   LIG    1       18.317 -29.589  13.824  0.00  0.00    +0.075 A 
ATOM     12  C   LIG    1       17.451 -28.843  14.650  0.00  0.00    +0.132 A 
ATOM     13  C   LIG    1       16.193 -29.368  14.989  0.00  0.00    +0.046 A 
ATOM     14  C   LIG    1       15.802 -30.631  14.548  0.00  0.00    +0.004 A 
ATOM     15  C   LIG    1       19.658 -29.093  13.410  0.00  0.00    +0.202 C 
ATOM     16  O   LIG    1       20.091 -27.994  13.750  0.00  0.00    -0.286 OA
ATOM     17  C   LIG    1       16.661 -31.376  13.753  0.00  0.00    +0.012 A 
ATOM     18  C   LIG    1       20.531 -29.930  12.549  0.00  0.00    +0.078 A 
ATOM     19  C   LIG    1       21.809 -29.488  12.167  0.00  0.00    +0.135 A 
ATOM     20  C   LIG    1       22.809 -32.172   9.619  0.00  0.00    +0.082 C 
ENDROOT
BRANCH   1  21
ATOM     21  O   LIG    1       25.207 -32.337   9.720  0.00  0.00    -0.381 OA
ATOM     22  H   LIG    1       25.936 -32.412   9.080  0.00  0.00    +0.211 HD
ENDBRANCH   1  21
BRANCH  19  23
ATOM     23  O   LIG    1       22.294 -28.266  12.560  0.00  0.00    -0.506 OA
ATOM     24  H   LIG    1       21.556 -27.612  12.555  0.00  0.00    +0.292 HD
ENDBRANCH  19  23
BRANCH   6  25
ATOM     25  O   LIG    1       20.434 -33.098  10.665  0.00  0.00    -0.506 OA
ATOM     26  H   LIG    1       19.981 -32.917   9.810  0.00  0.00    +0.292 HD
ENDBRANCH   6  25
BRANCH  12  27
ATOM     27  O   LIG    1       17.839 -27.593  15.053  0.00  0.00    -0.494 OA
ATOM     28  C   LIG    1       17.102 -26.497  14.519  0.00  0.00    +0.277 C 
ENDBRANCH  12  27
BRANCH   1  29
ATOM     29  C   LIG    1       24.228 -31.734   7.590  0.00  0.00    +0.202 C 
ATOM     30  O   LIG    1       23.356 -32.323   6.947  0.00  0.00    -0.291 OA
BRANCH  29  31
ATOM     31  C   LIG    1       25.449 -31.139   6.892  0.00  0.00    +0.309 C 
BRANCH  31  32
ATOM     32  O   LIG    1       25.141 -30.597   5.608  0.00  0.00    -0.457 OA
BRANCH  32  33
ATOM     33  C   LIG    1       24.519 -29.385   5.640  0.00  0.00    +0.307 C 
ATOM     34  O   LIG    1       23.337 -29.211   5.746  0.00  0.00    -0.251 OA
BRANCH  33  35
ATOM     35  C   LIG    1       25.537 -28.264   5.599  0.00  0.00    +0.120 C 
BRANCH  35  36
ATOM     36  C   LIG    1       25.559 -27.343   6.822  0.00  0.00    +0.011 C 
BRANCH  36  38
ATOM     37  C   LIG    1       24.082 -25.319   6.219  0.00  0.00    +0.004 C 
ATOM     38  C   LIG    1       25.477 -25.838   6.528  0.00  0.00    -0.003 C 
ENDBRANCH  36  38
ENDBRANCH  35  36
ENDBRANCH  33  35
ENDBRANCH  32  33
ENDBRANCH  31  32
ENDBRANCH  29  31
ENDBRANCH   1  29
BRANCH   3  39
ATOM     39  O   LIG    1       25.048 -30.537  11.778  0.00  0.00    -0.343 OA
BRANCH  39  40
ATOM     40  C   LIG    1       25.635 -29.790  12.856  0.00  0.00    +0.253 C 
ATOM     41  O   LIG    1       25.227 -28.426  12.797  0.00  0.00    -0.346 OA
ATOM     42  C   LIG    1       25.748 -27.653  13.889  0.00  0.00    +0.148 C 
ATOM     43  C   LIG    1       25.027 -26.313  13.887  0.00  0.00    +0.040 C 
ATOM     44  C   LIG    1       27.264 -27.511  13.684  0.00  0.00    +0.163 C 
ATOM     45  C   LIG    1       27.891 -28.919  13.722  0.00  0.00    +0.109 C 
ATOM     46  C   LIG    1       27.172 -29.877  12.751  0.00  0.00    +0.086 C 
BRANCH  45  47
ATOM     47  N   LIG    1       29.334 -28.864  13.450  0.00  0.00    -0.302 N 
ATOM     48  H   LIG    1       29.654 -28.237  12.712  0.00  0.00    +0.149 HD
ATOM     49  C   LIG    1       30.239 -29.739  14.043  0.00  0.00    +0.318 C 
ATOM     50  O   LIG    1       29.864 -30.562  14.882  0.00  0.00    -0.266 OA
BRANCH  49  51
ATOM     51  C   LIG    1       31.718 -29.605  13.599  0.00  0.00    +0.469 C 
ATOM     52  F   LIG    1       32.386 -30.790  13.656  0.00  0.00    -0.162 F 
ATOM     53  F   LIG    1       32.417 -28.728  14.372  0.00  0.00    -0.162 F 
ATOM     54  F   LIG    1       31.838 -29.160  12.314  0.00  0.00    -0.162 F 
ENDBRANCH  49  51
ENDBRANCH  45  47
BRANCH  44  55
ATOM     55  O   LIG    1       27.552 -26.900  12.416  0.00  0.00    -0.387 OA
ATOM     56  H   LIG    1       28.006 -26.055  12.615  0.00  0.00    +0.210 HD
ENDBRANCH  44  55
ENDBRANCH  39  40
ENDBRANCH   3  39
TORSDOF 16
ENDMDL
MODEL 2
REMARK VINA RESULT:      -6.2      2.501      3.214
REMARK  Name = *****
REMARK                            x       y       z     vdW  Elec       q    Type
REMARK                         _______ _______ _______ _____ _____    ______ ____
ROOT
ATOM      1  C   LIG    1       24.028 -31.501   9.057  0.00  0.00    +0.134 C 
ATOM      2  C   LIG    1       24.127 -30.011   9.431  0.00  0.00    +0.079 C 
ATOM      3  C   LIG    1       23.981 -29.767  10.946  0.00  0.00    +0.158 C 
ATOM      4  C   LIG    1       22.582 -30.225  11.320  0.00  0.00    +0.030 A 
ATOM      5  C   LIG    1       22.065 -31.415  10.772  0.00  0.00    +0.007 A 
ATOM      6  C   LIG    1       20.837 -31.897  11.245  0.00  0.00    +0.132 A 
ATOM      7  C   LIG    1       20.078 -31.173  12.178  0.00  0.00    +0.078 A 
ATOM      8  C   LIG    1       18.791 -31.701  12.651  0.00  0.00    +0.198 C 
ATOM      9  O   LIG    1       18.422 -32.815  12.278  0.00  0.00    -0.286 OA
ATOM     10  C   LIG    1       17.951 -30.905  13.556  0.00  0.00    +0.037 A 
ATOM     11  C   LIG    1       18.354 -29.637  13.986  0.00  0.00    +0.075 A 
ATOM     12  C   LIG    1       17.509 -28.911  14.850  0.00  0.00    +0.132 A 
ATOM     13  C   LIG    1       16.274 -29.459  15.234  0.00  0.00    +0.046 A 
ATOM     14  C   LIG    1       15.887 -30.726  14.800  0.00  0.00    +0.004 A 
ATOM     15  C   LIG    1       19.670 -29.117  13.523  0.00  0.00    +0.202 C 
ATOM     16  O   LIG    1       20.097 -28.013  13.853  0.00  0.00    -0.286 OA
ATOM     17  C   LIG    1       16.726 -31.451  13.967  0.00  0.00    +0.012 A 
ATOM     18  C   LIG    1       20.522 -29.933  12.623  0.00  0.00    +0.078 A 
ATOM     19  C   LIG    1       21.777 -29.468  12.194  0.00  0.00    +0.135 A 
ATOM     20  C   LIG    1       22.721 -32.120   9.592  0.00  0.00    +0.082 C 
ENDROOT
BRANCH   1  21
ATOM     21  O   LIG    1       25.123 -32.245   9.599  0.00  0.00    -0.381 OA
ATOM     22  H   LIG    1       25.945 -31.970   9.153  0.00  0.00    +0.211 HD
ENDBRANCH   1  21
BRANCH  19  23
ATOM     23  O   LIG    1       22.257 -28.241  12.577  0.00  0.00    -0.506 OA
ATOM     24  H   LIG    1       22.066 -27.586  11.864  0.00  0.00    +0.292 HD
ENDBRANCH  19  23
BRANCH   6  25
ATOM     25  O   LIG    1       20.404 -33.092  10.724  0.00  0.00    -0.506 OA
ATOM     26  H   LIG    1       20.012 -32.925   9.837  0.00  0.00    +0.292 HD
ENDBRANCH   6  25
BRANCH  12  27
ATOM     27  O   LIG    1       17.892 -27.657  15.245  0.00  0.00    -0.494 OA
ATOM     28  C   LIG    1       17.447 -26.573  14.435  0.00  0.00    +0.277 C 
ENDBRANCH  12  27
BRANCH   1  29
ATOM     29  C   LIG    1       24.053 -31.646   7.513  0.00  0.00    +0.202 C 
ATOM     30  O   LIG    1       23.175 -32.260   6.901  0.00  0.00    -0.291 OA
BRANCH  29  31
ATOM     31  C   LIG    1       25.223 -31.007   6.769  0.00  0.00    +0.309 C 
BRANCH  31  32
ATOM     32  O   LIG    1       25.275 -29.590   6.934  0.00  0.00    -0.457 OA
BRANCH  32  33
ATOM     33  C   LIG    1       24.919 -28.879   5.827  0.00  0.00    +0.307 C 
ATOM     34  O   LIG    1       24.929 -29.292   4.701  0.00  0.00    -0.251 OA
BRANCH  33  35
ATOM     35  C   LIG    1       24.430 -27.499   6.216  0.00  0.00    +0.120 C 
BRANCH  35  36
ATOM     36  C   LIG    1       25.355 -26.338   5.841  0.00  0.00    +0.011 C 
BRANCH  36  38
ATOM     37  C   LIG    1       23.716 -24.464   6.510  0.00  0.00    +0.004 C 
ATOM     38  C   LIG    1       25.125 -25.026   6.607  0.00  0.00    -0.003 C 
ENDBRANCH  36  38
ENDBRANCH  35  36
ENDBRANCH  33  35
ENDBRANCH  32  33
ENDBRANCH  31  32
ENDBRANCH  29  31
ENDBRANCH   1  29
BRANCH   3  39
ATOM     39  O   LIG    1       25.015 -30.460  11.673  0.00  0.00    -0.343 OA
BRANCH  39  40
ATOM     40  C   LIG    1       26.088 -29.635  12.154  0.00  0.00    +0.253 C 
ATOM     41  O   LIG    1       26.793 -30.293  13.204  0.00  0.00    -0.346 OA
ATOM     42  C   LIG    1       27.909 -29.525  13.678  0.00  0.00    +0.148 C 
ATOM     43  C   LIG    1       28.741 -30.430  14.573  0.00  0.00    +0.040 C 
ATOM     44  C   LIG    1       27.355 -28.300  14.423  0.00  0.00    +0.163 C 
ATOM     45  C   LIG    1       26.548 -27.450  13.423  0.00  0.00    +0.109 C 
ATOM     46  C   LIG    1       25.505 -28.305  12.675  0.00  0.00    +0.086 C 
BRANCH  45  47
ATOM     47  N   LIG    1       25.920 -26.301  14.091  0.00  0.00    -0.302 N 
ATOM     48  H   LIG    1       25.068 -26.471  14.625  0.00  0.00    +0.149 HD
ATOM     49  C   LIG    1       26.350 -24.993  13.887  0.00  0.00    +0.318 C 
ATOM     50  O   LIG    1       27.331 -24.754  13.179  0.00  0.00    -0.266 OA
BRANCH  49  51
ATOM     51  C   LIG    1       25.538 -23.883  14.604  0.00  0.00    +0.469 C 
ATOM     52  F   LIG    1       24.482 -24.382  15.303  0.00  0.00    -0.162 F 
ATOM     53  F   LIG    1       25.030 -22.965  13.735  0.00  0.00    -0.162 F 
ATOM     54  F   LIG    1       26.293 -23.183  15.500  0.00  0.00    -0.162 F 
ENDBRANCH  49  51
ENDBRANCH  45  47
BRANCH  44  55
ATOM     55  O   LIG    1       26.495 -28.706  15.500  0.00  0.00    -0.387 OA
ATOM     56  H   LIG    1       27.072 -29.121  16.173  0.00  0.00    +0.210 HD
ENDBRANCH  44  55
ENDBRANCH  39  40
ENDBRANCH   3  39
TORSDOF 16
ENDMDL
MODEL 3
REMARK VINA RESULT:      -5.9      2.893      4.052
REMARK  Name = *****
REMARK                            x       y       z     vdW  Elec       q    Type
REMARK                         _______ _______ _______ _____ _____    ______ ____
ROOT
ATOM      1  C   LIG    1       24.566 -31.106   8.616  0.00  0.00    +0.134 C 
ATOM      2  C   LIG    1       24.617 -29.698   9.238  0.00  0.00    +0.079 C 
ATOM      3  C   LIG    1       24.384 -29.712  10.762  0.00  0.00    +0.158 C 
ATOM      4  C   LIG    1       22.976 -30.241  10.975  0.00  0.00    +0.030 A 
ATOM      5  C   LIG    1       22.513 -31.327  10.208  0.00  0.00    +0.007 A 
ATOM      6  C   LIG    1       21.270 -31.894  10.524  0.00  0.00    +0.132 A 
ATOM      7  C   LIG    1       20.448 -31.344  11.520  0.00  0.00    +0.078 A 
ATOM      8  C   LIG    1       19.148 -31.955  11.825  0.00  0.00    +0.198 C 
ATOM      9  O   LIG    1       18.821 -32.995  11.253  0.00  0.00    -0.286 OA
ATOM     10  C   LIG    1       18.245 -31.330  12.802  0.00  0.00    +0.037 A 
ATOM     11  C   LIG    1       18.600 -30.149  13.458  0.00  0.00    +0.075 A 
ATOM     12  C   LIG    1       17.696 -29.586  14.382  0.00  0.00    +0.132 A 
ATOM     13  C   LIG    1       16.453 -30.202  14.599  0.00  0.00    +0.046 A 
ATOM     14  C   LIG    1       16.114 -31.382  13.939  0.00  0.00    +0.004 A 
ATOM     15  C   LIG    1       19.929 -29.545  13.164  0.00  0.00    +0.202 C 
ATOM     16  O   LIG    1       20.317 -28.508  13.697  0.00  0.00    -0.286 OA
ATOM     17  C   LIG    1       17.011 -31.950  13.046  0.00  0.00    +0.012 A 
ATOM     18  C   LIG    1       20.844 -30.191  12.190  0.00  0.00    +0.078 A 
ATOM     19  C   LIG    1       22.111 -29.649  11.916  0.00  0.00    +0.135 A 
ATOM     20  C   LIG    1       23.245 -31.818   8.966  0.00  0.00    +0.082 C 
ENDROOT
BRANCH   1  21
ATOM     21  O   LIG    1       25.645 -31.918   9.088  0.00  0.00    -0.381 OA
ATOM     22  H   LIG    1       25.343 -32.842   9.150  0.00  0.00    +0.211 HD
ENDBRANCH   1  21
BRANCH  19  23
ATOM     23  O   LIG    1       22.546 -28.497  12.524  0.00  0.00    -0.506 OA
ATOM     24  H   LIG    1       22.120 -27.723  12.086  0.00  0.00    +0.292 HD
ENDBRANCH  19  23
BRANCH   6  25
ATOM     25  O   LIG    1       20.889 -32.989   9.788  0.00  0.00    -0.506 OA
ATOM     26  H   LIG    1       20.080 -32.759   9.277  0.00  0.00    +0.292 HD
ENDBRANCH   6  25
BRANCH  12  27
ATOM     27  O   LIG    1       18.032 -28.412  15.001  0.00  0.00    -0.494 OA
ATOM     28  C   LIG    1       17.377 -27.236  14.534  0.00  0.00    +0.277 C 
ENDBRANCH  12  27
BRANCH   1  29
ATOM     29  C   LIG    1       24.677 -30.990   7.073  0.00  0.00    +0.202 C 
ATOM     30  O   LIG    1       23.721 -30.641   6.375  0.00  0.00    -0.291 OA
BRANCH  29  31
ATOM     31  C   LIG    1       26.022 -31.340   6.441  0.00  0.00    +0.309 C 
BRANCH  31  32
ATOM     32  O   LIG    1       26.181 -32.741   6.223  0.00  0.00    -0.457 OA
BRANCH  32  33
ATOM     33  C   LIG    1       27.462 -33.190   6.341  0.00  0.00    +0.307 C 
ATOM     34  O   LIG    1       28.100 -33.218   7.356  0.00  0.00    -0.251 OA
BRANCH  33  35
ATOM     35  C   LIG    1       27.961 -33.731   5.016  0.00  0.00    +0.120 C 
BRANCH  35  36
ATOM     36  C   LIG    1       26.915 -33.824   3.902  0.00  0.00    +0.011 C 
BRANCH  36  38
ATOM     37  C   LIG    1       26.861 -32.651   1.608  0.00  0.00    +0.004 C 
ATOM     38  C   LIG    1       27.458 -33.754   2.467  0.00  0.00    -0.003 C 
ENDBRANCH  36  38
ENDBRANCH  35  36
ENDBRANCH  33  35
ENDBRANCH  32  33
ENDBRANCH  31  32
ENDBRANCH  29  31
ENDBRANCH   1  29
BRANCH   3  39
ATOM     39  O   LIG    1       25.391 -30.507  11.421  0.00  0.00    -0.343 OA
BRANCH  39  40
ATOM     40  C   LIG    1       26.412 -29.763  12.105  0.00  0.00    +0.253 C 
ATOM     41  O   LIG    1       26.882 -30.487  13.239  0.00  0.00    -0.346 OA
ATOM     42  C   LIG    1       27.943 -29.803  13.922  0.00  0.00    +0.148 C 
ATOM     43  C   LIG    1       28.551 -30.778  14.918  0.00  0.00    +0.040 C 
ATOM     44  C   LIG    1       27.343 -28.561  14.599  0.00  0.00    +0.163 C 
ATOM     45  C   LIG    1       26.775 -27.639  13.503  0.00  0.00    +0.109 C 
ATOM     46  C   LIG    1       25.829 -28.409  12.559  0.00  0.00    +0.086 C 
BRANCH  45  47
ATOM     47  N   LIG    1       26.111 -26.467  14.088  0.00  0.00    -0.302 N 
ATOM     48  H   LIG    1       25.256 -26.623  14.623  0.00  0.00    +0.149 HD
ATOM     49  C   LIG    1       26.511 -25.163  13.806  0.00  0.00    +0.318 C 
ATOM     50  O   LIG    1       27.495 -24.946  13.095  0.00  0.00    -0.266 OA
BRANCH  49  51
ATOM     51  C   LIG    1       25.664 -24.030  14.440  0.00  0.00    +0.469 C 
ATOM     52  F   LIG    1       26.433 -23.094  15.062  0.00  0.00    -0.162 F 
ATOM     53  F   LIG    1       24.788 -24.495  15.375  0.00  0.00    -0.162 F 
ATOM     54  F   LIG    1       24.917 -23.359  13.517  0.00  0.00    -0.162 F 
ENDBRANCH  49  51
ENDBRANCH  45  47
BRANCH  44  55
ATOM     55  O   LIG    1       26.285 -28.932  15.498  0.00  0.00    -0.387 OA
ATOM     56  H   LIG    1       26.653 -29.625  16.084  0.00  0.00    +0.210 HD
ENDBRANCH  44  55
ENDBRANCH  39  40
ENDBRANCH   3  39
TORSDOF 16
ENDMDL
MODEL 4
REMARK VINA RESULT:      -5.1      3.225      8.066
REMARK  Name = *****
REMARK                            x       y       z     vdW  Elec       q    Type
REMARK                         _______ _______ _______ _____ _____    ______ ____
ROOT
ATOM      1  C   LIG    1       22.416 -31.978  14.556  0.00  0.00    +0.134 C 
ATOM      2  C   LIG    1       23.409 -33.154  14.590  0.00  0.00    +0.079 C 
ATOM      3  C   LIG    1       24.797 -32.778  14.035  0.00  0.00    +0.158 C 
ATOM      4  C   LIG    1       24.591 -32.413  12.576  0.00  0.00    +0.030 A 
ATOM      5  C   LIG    1       23.477 -31.639  12.198  0.00  0.00    +0.007 A 
ATOM      6  C   LIG    1       23.386 -31.189  10.874  0.00  0.00    +0.132 A 
ATOM      7  C   LIG    1       24.330 -31.570   9.906  0.00  0.00    +0.078 A 
ATOM      8  C   LIG    1       24.206 -31.088   8.524  0.00  0.00    +0.198 C 
ATOM      9  O   LIG    1       23.313 -30.289   8.241  0.00  0.00    -0.286 OA
ATOM     10  C   LIG    1       25.136 -31.557   7.488  0.00  0.00    +0.037 A 
ATOM     11  C   LIG    1       26.154 -32.466   7.793  0.00  0.00    +0.075 A 
ATOM     12  C   LIG    1       27.017 -32.890   6.762  0.00  0.00    +0.132 A 
ATOM     13  C   LIG    1       26.820 -32.418   5.454  0.00  0.00    +0.046 A 
ATOM     14  C   LIG    1       25.803 -31.509   5.167  0.00  0.00    +0.004 A 
ATOM     15  C   LIG    1       26.290 -32.934   9.199  0.00  0.00    +0.202 C 
ATOM     16  O   LIG    1       27.156 -33.733   9.549  0.00  0.00    -0.286 OA
ATOM     17  C   LIG    1       24.965 -31.074   6.183  0.00  0.00    +0.012 A 
ATOM     18  C   LIG    1       25.358 -32.442  10.244  0.00  0.00    +0.078 A 
ATOM     19  C   LIG    1       25.486 -32.855  11.581  0.00  0.00    +0.135 A 
ATOM     20  C   LIG    1       22.302 -31.391  13.135  0.00  0.00    +0.082 C 
ENDROOT
BRANCH   1  21
ATOM     21  O   LIG    1       22.828 -30.928  15.437  0.00  0.00    -0.381 OA
ATOM     22  H   LIG    1       23.199 -30.199  14.909  0.00  0.00    +0.211 HD
ENDBRANCH   1  21
BRANCH  19  23
ATOM     23  O   LIG    1       26.463 -33.737  11.970  0.00  0.00    -0.506 OA
ATOM     24  H   LIG    1       26.066 -34.635  12.064  0.00  0.00    +0.292 HD
ENDBRANCH  19  23
BRANCH   6  25
ATOM     25  O   LIG    1       22.314 -30.387  10.569  0.00  0.00    -0.506 OA
ATOM     26  H   LIG    1       21.534 -30.695  11.083  0.00  0.00    +0.292 HD
ENDBRANCH   6  25
BRANCH  12  27
ATOM     27  O   LIG    1       27.994 -33.804   7.055  0.00  0.00    -0.494 OA
ATOM     28  C   LIG    1       29.131 -33.815   6.197  0.00  0.00    +0.277 C 
ENDBRANCH  12  27
BRANCH   1  29
ATOM     29  C   LIG    1       21.017 -32.474  15.004  0.00  0.00    +0.202 C 
ATOM     30  O   LIG    1       20.720 -33.672  15.006  0.00  0.00    -0.291 OA
BRANCH  29  31
ATOM     31  C   LIG    1       20.003 -31.416  15.433  0.00  0.00    +0.309 C 
BRANCH  31  32
ATOM     32  O   LIG    1       18.992 -31.189  14.452  0.00  0.00    -0.457 OA
BRANCH  32  33
ATOM     33  C   LIG    1       18.689 -29.877  14.245  0.00  0.00    +0.307 C 
ATOM     34  O   LIG    1       17.737 -29.303  14.695  0.00  0.00    -0.251 OA
BRANCH  33  35
ATOM     35  C   LIG    1       19.767 -29.205  13.419  0.00  0.00    +0.120 C 
BRANCH  35  36
ATOM     36  C   LIG    1       20.634 -28.187  14.164  0.00  0.00    +0.011 C 
BRANCH  36  38
ATOM     37  C   LIG    1       22.286 -26.425  13.262  0.00  0.00    +0.004 C 
ATOM     38  C   LIG    1       22.007 -27.893  13.541  0.00  0.00    -0.003 C 
ENDBRANCH  36  38
ENDBRANCH  35  36
ENDBRANCH  33  35
ENDBRANCH  32  33
ENDBRANCH  31  32
ENDBRANCH  29  31
ENDBRANCH   1  29
BRANCH   3  39
ATOM     39  O   LIG    1       25.377 -31.706  14.808  0.00  0.00    -0.343 OA
BRANCH  39  40
ATOM     40  C   LIG    1       26.034 -30.682  14.043  0.00  0.00    +0.253 C 
ATOM     41  O   LIG    1       27.427 -30.653  14.341  0.00  0.00    -0.346 OA
ATOM     42  C   LIG    1       28.133 -29.680  13.557  0.00  0.00    +0.148 C 
ATOM     43  C   LIG    1       29.621 -29.933  13.743  0.00  0.00    +0.040 C 
ATOM     44  C   LIG    1       27.704 -28.286  14.040  0.00  0.00    +0.163 C 
ATOM     45  C   LIG    1       26.191 -28.131  13.789  0.00  0.00    +0.109 C 
ATOM     46  C   LIG    1       25.402 -29.317  14.381  0.00  0.00    +0.086 C 
BRANCH  45  47
ATOM     47  N   LIG    1       25.697 -26.848  14.304  0.00  0.00    -0.302 N 
ATOM     48  H   LIG    1       24.998 -26.871  15.047  0.00  0.00    +0.149 HD
ATOM     49  C   LIG    1       26.024 -25.630  13.714  0.00  0.00    +0.318 C 
ATOM     50  O   LIG    1       26.806 -25.581  12.761  0.00  0.00    -0.266 OA
BRANCH  49  51
ATOM     51  C   LIG    1       25.364 -24.368  14.327  0.00  0.00    +0.469 C 
ATOM     52  F   LIG    1       24.577 -23.709  13.433  0.00  0.00    -0.162 F 
ATOM     53  F   LIG    1       26.281 -23.466  14.775  0.00  0.00    -0.162 F 
ATOM     54  F   LIG    1       24.567 -24.664  15.393  0.00  0.00    -0.162 F 
ENDBRANCH  49  51
ENDBRANCH  45  47
BRANCH  44  55
ATOM     55  O   LIG    1       27.968 -28.129  15.444  0.00  0.00    -0.387 OA
ATOM     56  H   LIG    1       28.809 -28.598  15.620  0.00  0.00    +0.210 HD
ENDBRANCH  44  55
ENDBRANCH  39  40
ENDBRANCH   3  39
TORSDOF 16
ENDMDL
