MODEL 1
REMARK VINA RESULT:      -4.8      0.000      0.000
REMARK  Name = *****
REMARK                            x       y       z     vdW  Elec       q    Type
REMARK                         _______ _______ _______ _____ _____    ______ ____
ROOT
ATOM      1  CA  GLN A  1       26.583 -14.294   4.367  0.00  0.00    +0.161 C 
ENDROOT
BRANCH   1   2
ATOM      2  N   GLN A  1       26.315 -13.186   5.322  0.00  0.00    -0.318 NA
ATOM      3  H1  GLN A  1       25.350 -13.257   5.656  0.00  0.00    +0.119 HD
ATOM      4  H2  GLN A  1       26.876 -13.331   6.166  0.00  0.00    +0.119 HD
ENDBRANCH   1   2
BRANCH   1   5
ATOM      5  C   GLN A  1       27.559 -13.832   3.262  0.00  0.00    +0.322 C 
ATOM      6  O   GLN A  1       28.636 -13.307   3.472  0.00  0.00    -0.249 OA
BRANCH   5   7
ATOM      7  OXT GLN A  1       27.078 -14.046   2.007  0.00  0.00    -0.479 OA
ATOM      8  HXT GLN A  1       27.217 -13.313   1.360  0.00  0.00    +0.295 HD
ENDBRANCH   5   7
ENDBRANCH   1   5
BRANCH   1   9
ATOM      9  CB  GLN A  1       25.251 -14.759   3.757  0.00  0.00    +0.039 C 
BRANCH   9  10
ATOM     10  CG  GLN A  1       24.041 -13.891   4.117  0.00  0.00    +0.098 C 
BRANCH  10  14
ATOM     11  NE2 GLN A  1       24.202 -12.814   1.940  0.00  0.00    -0.329 N 
ATOM     12 HE21 GLN A  1       24.528 -13.687   1.547  0.00  0.00    +0.145 HD
ATOM     13 HE22 GLN A  1       24.229 -11.992   1.348  0.00  0.00    +0.145 HD
ATOM     14  CD  GLN A  1       23.956 -12.647   3.267  0.00  0.00    +0.210 C 
ATOM     15  OE1 GLN A  1       23.750 -11.546   3.769  0.00  0.00    -0.276 OA
ENDBRANCH  10  14
ENDBRANCH   9  10
ENDBRANCH   1   9
TORSDOF 6
ENDMDL
MODEL 2
REMARK VINA RESULT:      -4.7      1.501      1.763
REMARK  Name = *****
REMARK                            x       y       z     vdW  Elec       q    Type
REMARK                         _______ _______ _______ _____ _____    ______ ____
ROOT
ATOM      1  CA  GLN A  1       27.509 -14.023   4.083  0.00  0.00    +0.161 C 
ENDROOT
BRANCH   1   2
ATOM      2  N   GLN A  1       28.405 -12.979   3.518  0.00  0.00    -0.318 NA
ATOM      3  H1  GLN A  1       27.857 -12.356   2.918  0.00  0.00    +0.119 HD
ATOM      4  H2  GLN A  1       28.727 -12.370   4.275  0.00  0.00    +0.119 HD
ENDBRANCH   1   2
BRANCH   1   5
ATOM      5  C   GLN A  1       26.846 -14.840   2.952  0.00  0.00    +0.322 C 
ATOM      6  O   GLN A  1       26.533 -16.012   3.043  0.00  0.00    -0.249 OA
BRANCH   5   7
ATOM      7  OXT GLN A  1       26.668 -14.118   1.812  0.00  0.00    -0.479 OA
ATOM      8  HXT GLN A  1       25.732 -13.951   1.547  0.00  0.00    +0.295 HD
ENDBRANCH   5   7
ENDBRANCH   1   5
BRANCH   1   9
ATOM      9  CB  GLN A  1       26.445 -13.343   4.960  0.00  0.00    +0.039 C 
BRANCH   9  10
ATOM     10  CG  GLN A  1       25.005 -13.787   4.684  0.00  0.00    +0.098 C 
BRANCH  10  14
ATOM     11  NE2 GLN A  1       23.942 -12.758   2.752  0.00  0.00    -0.329 N 
ATOM     12 HE21 GLN A  1       24.388 -13.445   2.158  0.00  0.00    +0.145 HD
ATOM     13 HE22 GLN A  1       23.450 -11.995   2.302  0.00  0.00    +0.145 HD
ATOM     14  CD  GLN A  1       24.169 -12.681   4.090  0.00  0.00    +0.210 C 
ATOM     15  OE1 GLN A  1       23.786 -11.736   4.774  0.00  0.00    -0.276 OA
ENDBRANCH  10  14
ENDBRANCH   9  10
ENDBRANCH   1   9
TORSDOF 6
ENDMDL
MODEL 3
REMARK VINA RESULT:      -4.6      1.582      1.717
REMARK  Name = *****
REMARK                            x       y       z     vdW  Elec       q    Type
REMARK                         _______ _______ _______ _____ _____    ______ ____
ROOT
ATOM      1  CA  GLN A  1       26.707 -13.452   3.199  0.00  0.00    +0.161 C 
ENDROOT
BRANCH   1   2
ATOM      2  N   GLN A  1       26.978 -14.248   1.973  0.00  0.00    -0.318 NA
ATOM      3  H1  GLN A  1       27.262 -15.193   2.242  0.00  0.00    +0.119 HD
ATOM      4  H2  GLN A  1       26.100 -14.390   1.467  0.00  0.00    +0.119 HD
ENDBRANCH   1   2
BRANCH   1   5
ATOM      5  C   GLN A  1       28.010 -13.227   3.999  0.00  0.00    +0.322 C 
ATOM      6  O   GLN A  1       28.049 -12.899   5.169  0.00  0.00    -0.249 OA
BRANCH   5   7
ATOM      7  OXT GLN A  1       29.130 -13.406   3.248  0.00  0.00    -0.479 OA
ATOM      8  HXT GLN A  1       29.968 -13.557   3.748  0.00  0.00    +0.295 HD
ENDBRANCH   5   7
ENDBRANCH   1   5
BRANCH   1   9
ATOM      9  CB  GLN A  1       25.664 -14.192   4.052  0.00  0.00    +0.039 C 
BRANCH   9  10
ATOM     10  CG  GLN A  1       24.207 -13.864   3.715  0.00  0.00    +0.098 C 
BRANCH  10  14
ATOM     11  NE2 GLN A  1       23.802 -11.760   2.561  0.00  0.00    -0.329 N 
ATOM     12 HE21 GLN A  1       23.987 -12.222   1.680  0.00  0.00    +0.145 HD
ATOM     13 HE22 GLN A  1       23.690 -10.753   2.548  0.00  0.00    +0.145 HD
ATOM     14  CD  GLN A  1       23.928 -12.382   3.763  0.00  0.00    +0.210 C 
ATOM     15  OE1 GLN A  1       23.894 -11.775   4.830  0.00  0.00    -0.276 OA
ENDBRANCH  10  14
ENDBRANCH   9  10
ENDBRANCH   1   9
TORSDOF 6
ENDMDL
MODEL 4
REMARK VINA RESULT:      -4.6      1.794      3.690
REMARK  Name = *****
REMARK                            x       y       z     vdW  Elec       q    Type
REMARK                         _______ _______ _______ _____ _____    ______ ____
ROOT
ATOM      1  CA  GLN A  1       25.033 -13.544   3.897  0.00  0.00    +0.161 C 
ENDROOT
BRANCH   1   2
ATOM      2  N   GLN A  1       23.850 -14.438   4.018  0.00  0.00    -0.318 NA
ATOM      3  H1  GLN A  1       23.153 -13.992   4.620  0.00  0.00    +0.119 HD
ATOM      4  H2  GLN A  1       23.385 -14.499   3.108  0.00  0.00    +0.119 HD
ENDBRANCH   1   2
BRANCH   1   5
ATOM      5  C   GLN A  1       25.287 -13.178   2.418  0.00  0.00    +0.322 C 
ATOM      6  O   GLN A  1       24.688 -12.310   1.813  0.00  0.00    -0.249 OA
BRANCH   5   7
ATOM      7  OXT GLN A  1       26.243 -13.953   1.837  0.00  0.00    -0.479 OA
ATOM      8  HXT GLN A  1       27.107 -13.512   1.657  0.00  0.00    +0.295 HD
ENDBRANCH   5   7
ENDBRANCH   1   5
BRANCH   1   9
ATOM      9  CB  GLN A  1       26.256 -14.253   4.501  0.00  0.00    +0.039 C 
BRANCH   9  10
ATOM     10  CG  GLN A  1       27.118 -13.379   5.416  0.00  0.00    +0.098 C 
BRANCH  10  14
ATOM     11  NE2 GLN A  1       29.026 -11.868   5.364  0.00  0.00    -0.329 N 
ATOM     12 HE21 GLN A  1       28.693 -11.440   6.219  0.00  0.00    +0.145 HD
ATOM     13 HE22 GLN A  1       29.807 -11.428   4.892  0.00  0.00    +0.145 HD
ATOM     14  CD  GLN A  1       28.340 -12.842   4.711  0.00  0.00    +0.210 C 
ATOM     15  OE1 GLN A  1       28.640 -13.221   3.582  0.00  0.00    -0.276 OA
ENDBRANCH  10  14
ENDBRANCH   9  10
ENDBRANCH   1   9
TORSDOF 6
ENDMDL
MODEL 5
REMARK VINA RESULT:      -4.5      6.907      7.959
REMARK  Name = *****
REMARK                            x       y       z     vdW  Elec       q    Type
REMARK                         _______ _______ _______ _____ _____    ______ ____
ROOT
ATOM      1  CA  GLN A  1       22.865 -20.537   5.008  0.00  0.00    +0.161 C 
ENDROOT
BRANCH   1   2
ATOM      2  N   GLN A  1       23.466 -21.539   4.089  0.00  0.00    -0.318 NA
ATOM      3  H1  GLN A  1       24.463 -21.634   4.301  0.00  0.00    +0.119 HD
ATOM      4  H2  GLN A  1       23.081 -22.463   4.305  0.00  0.00    +0.119 HD
ENDBRANCH   1   2
BRANCH   1   5
ATOM      5  C   GLN A  1       22.903 -19.129   4.374  0.00  0.00    +0.322 C 
ATOM      6  O   GLN A  1       22.012 -18.306   4.474  0.00  0.00    -0.249 OA
BRANCH   5   7
ATOM      7  OXT GLN A  1       24.035 -18.902   3.655  0.00  0.00    -0.479 OA
ATOM      8  HXT GLN A  1       23.966 -19.045   2.681  0.00  0.00    +0.295 HD
ENDBRANCH   5   7
ENDBRANCH   1   5
BRANCH   1   9
ATOM      9  CB  GLN A  1       23.635 -20.557   6.339  0.00  0.00    +0.039 C 
BRANCH   9  10
ATOM     10  CG  GLN A  1       24.919 -21.392   6.326  0.00  0.00    +0.098 C 
BRANCH  10  14
ATOM     11  NE2 GLN A  1       26.468 -20.265   4.825  0.00  0.00    -0.329 N 
ATOM     12 HE21 GLN A  1       25.984 -20.677   4.037  0.00  0.00    +0.145 HD
ATOM     13 HE22 GLN A  1       27.328 -19.764   4.637  0.00  0.00    +0.145 HD
ATOM     14  CD  GLN A  1       26.150 -20.545   6.116  0.00  0.00    +0.210 C 
ATOM     15  OE1 GLN A  1       26.854 -20.201   7.061  0.00  0.00    -0.276 OA
ENDBRANCH  10  14
ENDBRANCH   9  10
ENDBRANCH   1   9
TORSDOF 6
ENDMDL
MODEL 6
REMARK VINA RESULT:      -4.5      1.693      3.666
REMARK  Name = *****
REMARK                            x       y       z     vdW  Elec       q    Type
REMARK                         _______ _______ _______ _____ _____    ______ ____
ROOT
ATOM      1  CA  GLN A  1       24.333 -13.661   4.610  0.00  0.00    +0.161 C 
ENDROOT
BRANCH   1   2
ATOM      2  N   GLN A  1       24.140 -15.011   4.019  0.00  0.00    -0.318 NA
ATOM      3  H1  GLN A  1       23.210 -15.062   3.596  0.00  0.00    +0.119 HD
ATOM      4  H2  GLN A  1       24.777 -15.122   3.225  0.00  0.00    +0.119 HD
ENDBRANCH   1   2
BRANCH   1   5
ATOM      5  C   GLN A  1       23.930 -12.564   3.599  0.00  0.00    +0.322 C 
ATOM      6  O   GLN A  1       23.546 -11.452   3.908  0.00  0.00    -0.249 OA
BRANCH   5   7
ATOM      7  OXT GLN A  1       24.020 -12.977   2.306  0.00  0.00    -0.479 OA
ATOM      8  HXT GLN A  1       23.169 -13.221   1.869  0.00  0.00    +0.295 HD
ENDBRANCH   5   7
ENDBRANCH   1   5
BRANCH   1   9
ATOM      9  CB  GLN A  1       25.805 -13.504   5.026  0.00  0.00    +0.039 C 
BRANCH   9  10
ATOM     10  CG  GLN A  1       26.761 -14.525   4.401  0.00  0.00    +0.098 C 
BRANCH  10  14
ATOM     11  NE2 GLN A  1       28.455 -13.291   3.164  0.00  0.00    -0.329 N 
ATOM     12 HE21 GLN A  1       28.841 -12.967   4.041  0.00  0.00    +0.145 HD
ATOM     13 HE22 GLN A  1       28.825 -12.888   2.311  0.00  0.00    +0.145 HD
ATOM     14  CD  GLN A  1       27.329 -14.048   3.087  0.00  0.00    +0.210 C 
ATOM     15  OE1 GLN A  1       26.755 -14.275   2.025  0.00  0.00    -0.276 OA
ENDBRANCH  10  14
ENDBRANCH   9  10
ENDBRANCH   1   9
TORSDOF 6
ENDMDL
MODEL 7
REMARK VINA RESULT:      -4.3      1.409      4.086
REMARK  Name = *****
REMARK                            x       y       z     vdW  Elec       q    Type
REMARK                         _______ _______ _______ _____ _____    ______ ____
ROOT
ATOM      1  CA  GLN A  1       24.511 -13.076   2.475  0.00  0.00    +0.161 C 
ENDROOT
BRANCH   1   2
ATOM      2  N   GLN A  1       23.944 -11.770   2.048  0.00  0.00    -0.318 NA
ATOM      3  H1  GLN A  1       23.656 -11.242   2.876  0.00  0.00    +0.119 HD
ATOM      4  H2  GLN A  1       24.690 -11.199   1.641  0.00  0.00    +0.119 HD
ENDBRANCH   1   2
BRANCH   1   5
ATOM      5  C   GLN A  1       24.080 -13.408   3.921  0.00  0.00    +0.322 C 
ATOM      6  O   GLN A  1       23.613 -14.475   4.271  0.00  0.00    -0.249 OA
BRANCH   5   7
ATOM      7  OXT GLN A  1       24.248 -12.363   4.776  0.00  0.00    -0.479 OA
ATOM      8  HXT GLN A  1       24.886 -11.666   4.489  0.00  0.00    +0.295 HD
ENDBRANCH   5   7
ENDBRANCH   1   5
BRANCH   1   9
ATOM      9  CB  GLN A  1       26.043 -13.015   2.363  0.00  0.00    +0.039 C 
BRANCH   9  10
ATOM     10  CG  GLN A  1       26.789 -14.080   3.171  0.00  0.00    +0.098 C 
BRANCH  10  14
ATOM     11  NE2 GLN A  1       27.268 -13.203   5.390  0.00  0.00    -0.329 N 
ATOM     12 HE21 GLN A  1       26.287 -13.290   5.621  0.00  0.00    +0.145 HD
ATOM     13 HE22 GLN A  1       27.867 -12.728   6.054  0.00  0.00    +0.145 HD
ATOM     14  CD  GLN A  1       27.762 -13.477   4.153  0.00  0.00    +0.210 C 
ATOM     15  OE1 GLN A  1       28.908 -13.188   3.819  0.00  0.00    -0.276 OA
ENDBRANCH  10  14
ENDBRANCH   9  10
ENDBRANCH   1   9
TORSDOF 6
ENDMDL
MODEL 8
REMARK VINA RESULT:      -4.3      7.286      7.630
REMARK  Name = *****
REMARK                            x       y       z     vdW  Elec       q    Type
REMARK                         _______ _______ _______ _____ _____    ______ ____
ROOT
ATOM      1  CA  GLN A  1       25.842 -20.263   5.550  0.00  0.00    +0.161 C 
ENDROOT
BRANCH   1   2
ATOM      2  N   GLN A  1       25.757 -20.413   4.073  0.00  0.00    -0.318 NA
ATOM      3  H1  GLN A  1       25.141 -19.687   3.697  0.00  0.00    +0.119 HD
ATOM      4  H2  GLN A  1       26.670 -20.195   3.663  0.00  0.00    +0.119 HD
ENDBRANCH   1   2
BRANCH   1   5
ATOM      5  C   GLN A  1       27.298 -20.452   6.031  0.00  0.00    +0.322 C 
ATOM      6  O   GLN A  1       27.614 -21.016   7.061  0.00  0.00    -0.249 OA
BRANCH   5   7
ATOM      7  OXT GLN A  1       28.210 -19.889   5.192  0.00  0.00    -0.479 OA
ATOM      8  HXT GLN A  1       28.971 -20.463   4.932  0.00  0.00    +0.295 HD
ENDBRANCH   5   7
ENDBRANCH   1   5
BRANCH   1   9
ATOM      9  CB  GLN A  1       24.913 -21.295   6.209  0.00  0.00    +0.039 C 
BRANCH   9  10
ATOM     10  CG  GLN A  1       23.595 -20.724   6.743  0.00  0.00    +0.098 C 
BRANCH  10  14
ATOM     11  NE2 GLN A  1       22.080 -21.417   4.969  0.00  0.00    -0.329 N 
ATOM     12 HE21 GLN A  1       22.365 -22.377   5.119  0.00  0.00    +0.145 HD
ATOM     13 HE22 GLN A  1       21.489 -21.222   4.169  0.00  0.00    +0.145 HD
ATOM     14  CD  GLN A  1       22.634 -20.370   5.635  0.00  0.00    +0.210 C 
ATOM     15  OE1 GLN A  1       22.432 -19.201   5.317  0.00  0.00    -0.276 OA
ENDBRANCH  10  14
ENDBRANCH   9  10
ENDBRANCH   1   9
TORSDOF 6
ENDMDL
MODEL 9
REMARK VINA RESULT:      -4.3      1.406      3.997
REMARK  Name = *****
REMARK                            x       y       z     vdW  Elec       q    Type
REMARK                         _______ _______ _______ _____ _____    ______ ____
ROOT
ATOM      1  CA  GLN A  1       24.590 -13.245   2.496  0.00  0.00    +0.161 C 
ENDROOT
BRANCH   1   2
ATOM      2  N   GLN A  1       24.037 -12.046   1.812  0.00  0.00    -0.318 NA
ATOM      3  H1  GLN A  1       23.858 -12.273   0.831  0.00  0.00    +0.119 HD
ATOM      4  H2  GLN A  1       23.108 -11.845   2.191  0.00  0.00    +0.119 HD
ENDBRANCH   1   2
BRANCH   1   5
ATOM      5  C   GLN A  1       24.120 -13.295   3.967  0.00  0.00    +0.322 C 
ATOM      6  O   GLN A  1       24.228 -12.374   4.754  0.00  0.00    -0.249 OA
BRANCH   5   7
ATOM      7  OXT GLN A  1       23.592 -14.500   4.313  0.00  0.00    -0.479 OA
ATOM      8  HXT GLN A  1       22.655 -14.655   4.045  0.00  0.00    +0.295 HD
ENDBRANCH   5   7
ENDBRANCH   1   5
BRANCH   1   9
ATOM      9  CB  GLN A  1       26.125 -13.201   2.415  0.00  0.00    +0.039 C 
BRANCH   9  10
ATOM     10  CG  GLN A  1       26.846 -14.156   3.371  0.00  0.00    +0.098 C 
BRANCH  10  14
ATOM     11  NE2 GLN A  1       27.220 -13.209   5.581  0.00  0.00    -0.329 N 
ATOM     12 HE21 GLN A  1       26.259 -13.418   5.819  0.00  0.00    +0.145 HD
ATOM     13 HE22 GLN A  1       27.757 -12.657   6.239  0.00  0.00    +0.145 HD
ATOM     14  CD  GLN A  1       27.739 -13.427   4.344  0.00  0.00    +0.210 C 
ATOM     15  OE1 GLN A  1       28.837 -12.997   4.001  0.00  0.00    -0.276 OA
ENDBRANCH  10  14
ENDBRANCH   9  10
ENDBRANCH   1   9
TORSDOF 6
ENDMDL
