MODEL 1
REMARK VINA RESULT:      -5.2      0.000      0.000
REMARK  Name = *****
REMARK                            x       y       z     vdW  Elec       q    Type
REMARK                         _______ _______ _______ _____ _____    ______ ____
ROOT
ATOM      1  C   LIG    1       28.776 -20.251   6.499  0.00  0.00    +0.074 C 
ENDROOT
BRANCH   1   2
ATOM      2  N   LIG    1       28.022 -19.931   5.283  0.00  0.00    -0.324 NA
ATOM      3  H   LIG    1       27.724 -20.814   4.862  0.00  0.00    +0.119 HD
ATOM      4  H   LIG    1       27.151 -19.478   5.574  0.00  0.00    +0.119 HD
ENDBRANCH   1   2
BRANCH   1   6
ATOM      5  C   LIG    1       26.600 -20.487   7.838  0.00  0.00    +0.005 C 
ATOM      6  C   LIG    1       27.918 -20.252   7.741  0.00  0.00    -0.016 C 
ENDBRANCH   1   6
BRANCH   1   7
ATOM      7  C   LIG    1       29.949 -19.262   6.639  0.00  0.00    +0.034 C 
BRANCH   7   8
ATOM      8  C   LIG    1       30.113 -18.669   8.039  0.00  0.00    +0.122 C 
BRANCH   8   9
ATOM      9  C   LIG    1       31.549 -18.677   8.502  0.00  0.00    +0.305 C 
ATOM     10  O   LIG    1       32.056 -19.590   9.128  0.00  0.00    -0.251 OA
BRANCH   9  11
ATOM     11  O   LIG    1       32.235 -17.574   8.122  0.00  0.00    -0.481 OA
ATOM     12  H   LIG    1       33.008 -17.389   8.695  0.00  0.00    +0.295 HD
ENDBRANCH   9  11
ENDBRANCH   8   9
ENDBRANCH   7   8
ENDBRANCH   1   7
TORSDOF 6
ENDMDL
MODEL 2
REMARK VINA RESULT:      -5.2      7.341      7.898
REMARK  Name = *****
REMARK                            x       y       z     vdW  Elec       q    Type
REMARK                         _______ _______ _______ _____ _____    ______ ____
ROOT
ATOM      1  C   LIG    1       23.803 -20.777   6.328  0.00  0.00    +0.074 C 
ENDROOT
BRANCH   1   2
ATOM      2  N   LIG    1       23.422 -20.933   7.735  0.00  0.00    -0.324 NA
ATOM      3  H   LIG    1       24.282 -21.019   8.282  0.00  0.00    +0.119 HD
ATOM      4  H   LIG    1       23.011 -20.046   8.041  0.00  0.00    +0.119 HD
ENDBRANCH   1   2
BRANCH   1   6
ATOM      5  C   LIG    1       22.453 -19.183   4.839  0.00  0.00    +0.005 C 
ATOM      6  C   LIG    1       22.649 -20.363   5.448  0.00  0.00    -0.016 C 
ENDBRANCH   1   6
BRANCH   1   7
ATOM      7  C   LIG    1       24.436 -22.089   5.829  0.00  0.00    +0.034 C 
BRANCH   7   8
ATOM      8  C   LIG    1       24.475 -23.209   6.869  0.00  0.00    +0.122 C 
BRANCH   8   9
ATOM      9  C   LIG    1       23.432 -24.269   6.613  0.00  0.00    +0.305 C 
ATOM     10  O   LIG    1       23.691 -25.436   6.382  0.00  0.00    -0.251 OA
BRANCH   9  11
ATOM     11  O   LIG    1       22.166 -23.798   6.699  0.00  0.00    -0.481 OA
ATOM     12  H   LIG    1       21.775 -23.594   5.823  0.00  0.00    +0.295 HD
ENDBRANCH   9  11
ENDBRANCH   8   9
ENDBRANCH   7   8
ENDBRANCH   1   7
TORSDOF 6
ENDMDL
MODEL 3
REMARK VINA RESULT:      -5.1      7.567      8.060
REMARK  Name = *****
REMARK                            x       y       z     vdW  Elec       q    Type
REMARK                         _______ _______ _______ _____ _____    ______ ____
ROOT
ATOM      1  C   LIG    1       23.521 -22.875   6.978  0.00  0.00    +0.074 C 
ENDROOT
BRANCH   1   2
ATOM      2  N   LIG    1       22.306 -23.621   6.637  0.00  0.00    -0.324 NA
ATOM      3  H   LIG    1       21.578 -22.941   6.409  0.00  0.00    +0.119 HD
ATOM      4  H   LIG    1       22.486 -24.111   5.756  0.00  0.00    +0.119 HD
ENDBRANCH   1   2
BRANCH   1   6
ATOM      5  C   LIG    1       22.928 -20.583   5.991  0.00  0.00    +0.005 C 
ATOM      6  C   LIG    1       23.308 -21.381   7.000  0.00  0.00    -0.016 C 
ENDBRANCH   1   6
BRANCH   1   7
ATOM      7  C   LIG    1       24.641 -23.259   5.993  0.00  0.00    +0.034 C 
BRANCH   7   8
ATOM      8  C   LIG    1       25.346 -24.576   6.318  0.00  0.00    +0.122 C 
BRANCH   8   9
ATOM      9  C   LIG    1       25.003 -25.670   5.336  0.00  0.00    +0.305 C 
ATOM     10  O   LIG    1       25.817 -26.214   4.614  0.00  0.00    -0.251 OA
BRANCH   9  11
ATOM     11  O   LIG    1       23.694 -26.013   5.362  0.00  0.00    -0.481 OA
ATOM     12  H   LIG    1       23.486 -26.668   6.061  0.00  0.00    +0.295 HD
ENDBRANCH   9  11
ENDBRANCH   8   9
ENDBRANCH   7   8
ENDBRANCH   1   7
TORSDOF 6
ENDMDL
MODEL 4
REMARK VINA RESULT:      -5.0      2.770      3.367
REMARK  Name = *****
REMARK                            x       y       z     vdW  Elec       q    Type
REMARK                         _______ _______ _______ _____ _____    ______ ____
ROOT
ATOM      1  C   LIG    1       30.722 -19.551   7.940  0.00  0.00    +0.074 C 
ENDROOT
BRANCH   1   2
ATOM      2  N   LIG    1       31.493 -20.784   8.121  0.00  0.00    -0.324 NA
ATOM      3  H   LIG    1       30.940 -21.555   7.739  0.00  0.00    +0.119 HD
ATOM      4  H   LIG    1       32.311 -20.726   7.508  0.00  0.00    +0.119 HD
ENDBRANCH   1   2
BRANCH   1   6
ATOM      5  C   LIG    1       29.379 -18.730   5.915  0.00  0.00    +0.005 C 
ATOM      6  C   LIG    1       30.494 -19.206   6.488  0.00  0.00    -0.016 C 
ENDBRANCH   1   6
BRANCH   1   7
ATOM      7  C   LIG    1       31.434 -18.400   8.676  0.00  0.00    +0.034 C 
BRANCH   7   8
ATOM      8  C   LIG    1       30.495 -17.332   9.238  0.00  0.00    +0.122 C 
BRANCH   8   9
ATOM      9  C   LIG    1       30.507 -17.290  10.746  0.00  0.00    +0.305 C 
ATOM     10  O   LIG    1       30.357 -16.274  11.399  0.00  0.00    -0.251 OA
BRANCH   9  11
ATOM     11  O   LIG    1       30.671 -18.510  11.309  0.00  0.00    -0.481 OA
ATOM     12  H   LIG    1       31.115 -18.470  12.183  0.00  0.00    +0.295 HD
ENDBRANCH   9  11
ENDBRANCH   8   9
ENDBRANCH   7   8
ENDBRANCH   1   7
TORSDOF 6
ENDMDL
MODEL 5
REMARK VINA RESULT:      -5.0      5.185      6.254
REMARK  Name = *****
REMARK                            x       y       z     vdW  Elec       q    Type
REMARK                         _______ _______ _______ _____ _____    ______ ____
ROOT
ATOM      1  C   LIG    1       22.947 -21.539   5.939  0.00  0.00    +0.074 C 
ENDROOT
BRANCH   1   2
ATOM      2  N   LIG    1       23.990 -22.374   5.336  0.00  0.00    -0.324 NA
ATOM      3  H   LIG    1       24.560 -21.773   4.736  0.00  0.00    +0.119 HD
ATOM      4  H   LIG    1       24.623 -22.662   6.087  0.00  0.00    +0.119 HD
ENDBRANCH   1   2
BRANCH   1   6
ATOM      5  C   LIG    1       22.468 -19.231   4.926  0.00  0.00    +0.005 C 
ATOM      6  C   LIG    1       22.333 -20.566   4.963  0.00  0.00    -0.016 C 
ENDBRANCH   1   6
BRANCH   1   7
ATOM      7  C   LIG    1       23.534 -20.802   7.158  0.00  0.00    +0.034 C 
BRANCH   7   8
ATOM      8  C   LIG    1       25.062 -20.753   7.192  0.00  0.00    +0.122 C 
BRANCH   8   9
ATOM      9  C   LIG    1       25.640 -21.603   8.297  0.00  0.00    +0.305 C 
ATOM     10  O   LIG    1       25.846 -21.201   9.427  0.00  0.00    -0.251 OA
BRANCH   9  11
ATOM     11  O   LIG    1       25.880 -22.879   7.914  0.00  0.00    -0.481 OA
ATOM     12  H   LIG    1       26.111 -23.465   8.665  0.00  0.00    +0.295 HD
ENDBRANCH   9  11
ENDBRANCH   8   9
ENDBRANCH   7   8
ENDBRANCH   1   7
TORSDOF 6
ENDMDL
MODEL 6
REMARK VINA RESULT:      -5.0      4.396      5.782
REMARK  Name = *****
REMARK                            x       y       z     vdW  Elec       q    Type
REMARK                         _______ _______ _______ _____ _____    ______ ____
ROOT
ATOM      1  C   LIG    1       23.011 -21.036   5.893  0.00  0.00    +0.074 C 
ENDROOT
BRANCH   1   2
ATOM      2  N   LIG    1       23.845 -21.816   4.974  0.00  0.00    -0.324 NA
ATOM      3  H   LIG    1       24.140 -22.663   5.466  0.00  0.00    +0.119 HD
ATOM      4  H   LIG    1       23.237 -22.155   4.223  0.00  0.00    +0.119 HD
ENDBRANCH   1   2
BRANCH   1   6
ATOM      5  C   LIG    1       23.062 -19.092   4.221  0.00  0.00    +0.005 C 
ATOM      6  C   LIG    1       22.606 -19.697   5.328  0.00  0.00    -0.016 C 
ENDBRANCH   1   6
BRANCH   1   7
ATOM      7  C   LIG    1       23.756 -20.870   7.231  0.00  0.00    +0.034 C 
BRANCH   7   8
ATOM      8  C   LIG    1       25.270 -20.702   7.096  0.00  0.00    +0.122 C 
BRANCH   8   9
ATOM      9  C   LIG    1       25.982 -20.811   8.422  0.00  0.00    +0.305 C 
ATOM     10  O   LIG    1       25.530 -21.397   9.389  0.00  0.00    -0.251 OA
BRANCH   9  11
ATOM     11  O   LIG    1       27.198 -20.218   8.421  0.00  0.00    -0.481 OA
ATOM     12  H   LIG    1       27.933 -20.855   8.544  0.00  0.00    +0.295 HD
ENDBRANCH   9  11
ENDBRANCH   8   9
ENDBRANCH   7   8
ENDBRANCH   1   7
TORSDOF 6
ENDMDL
MODEL 7
REMARK VINA RESULT:      -5.0      2.866      4.019
REMARK  Name = *****
REMARK                            x       y       z     vdW  Elec       q    Type
REMARK                         _______ _______ _______ _____ _____    ______ ____
ROOT
ATOM      1  C   LIG    1       31.462 -18.447   8.387  0.00  0.00    +0.074 C 
ENDROOT
BRANCH   1   2
ATOM      2  N   LIG    1       32.077 -19.449   9.262  0.00  0.00    -0.324 NA
ATOM      3  H   LIG    1       32.904 -19.814   8.783  0.00  0.00    +0.119 HD
ATOM      4  H   LIG    1       32.449 -18.955  10.078  0.00  0.00    +0.119 HD
ENDBRANCH   1   2
BRANCH   1   6
ATOM      5  C   LIG    1       30.332 -17.314  10.392  0.00  0.00    +0.005 C 
ATOM      6  C   LIG    1       30.414 -17.617   9.087  0.00  0.00    -0.016 C 
ENDBRANCH   1   6
BRANCH   1   7
ATOM      7  C   LIG    1       30.873 -19.152   7.150  0.00  0.00    +0.034 C 
BRANCH   7   8
ATOM      8  C   LIG    1       29.391 -19.506   7.269  0.00  0.00    +0.122 C 
BRANCH   8   9
ATOM      9  C   LIG    1       29.172 -20.873   7.871  0.00  0.00    +0.305 C 
ATOM     10  O   LIG    1       28.089 -21.287   8.241  0.00  0.00    -0.251 OA
BRANCH   9  11
ATOM     11  O   LIG    1       30.303 -21.614   7.929  0.00  0.00    -0.481 OA
ATOM     12  H   LIG    1       30.154 -22.509   8.301  0.00  0.00    +0.295 HD
ENDBRANCH   9  11
ENDBRANCH   8   9
ENDBRANCH   7   8
ENDBRANCH   1   7
TORSDOF 6
ENDMDL
MODEL 8
REMARK VINA RESULT:      -4.9      4.218      5.529
REMARK  Name = *****
REMARK                            x       y       z     vdW  Elec       q    Type
REMARK                         _______ _______ _______ _____ _____    ______ ____
ROOT
ATOM      1  C   LIG    1       23.780 -22.260   6.816  0.00  0.00    +0.074 C 
ENDROOT
BRANCH   1   2
ATOM      2  N   LIG    1       23.197 -21.484   7.914  0.00  0.00    -0.324 NA
ATOM      3  H   LIG    1       22.179 -21.557   7.839  0.00  0.00    +0.119 HD
ATOM      4  H   LIG    1       23.426 -21.968   8.786  0.00  0.00    +0.119 HD
ENDBRANCH   1   2
BRANCH   1   6
ATOM      5  C   LIG    1       23.994 -24.784   6.411  0.00  0.00    +0.005 C 
ATOM      6  C   LIG    1       23.311 -23.694   6.794  0.00  0.00    -0.016 C 
ENDBRANCH   1   6
BRANCH   1   7
ATOM      7  C   LIG    1       25.316 -22.182   6.905  0.00  0.00    +0.034 C 
BRANCH   7   8
ATOM      8  C   LIG    1       25.875 -20.761   6.974  0.00  0.00    +0.122 C 
BRANCH   8   9
ATOM      9  C   LIG    1       26.619 -20.496   8.260  0.00  0.00    +0.305 C 
ATOM     10  O   LIG    1       27.790 -20.167   8.312  0.00  0.00    -0.251 OA
BRANCH   9  11
ATOM     11  O   LIG    1       25.841 -20.629   9.359  0.00  0.00    -0.481 OA
ATOM     12  H   LIG    1       25.503 -19.771   9.693  0.00  0.00    +0.295 HD
ENDBRANCH   9  11
ENDBRANCH   8   9
ENDBRANCH   7   8
ENDBRANCH   1   7
TORSDOF 6
ENDMDL
MODEL 9
REMARK VINA RESULT:      -4.9      3.459      4.807
REMARK  Name = *****
REMARK                            x       y       z     vdW  Elec       q    Type
REMARK                         _______ _______ _______ _____ _____    ______ ____
ROOT
ATOM      1  C   LIG    1       31.114 -17.494  10.228  0.00  0.00    +0.074 C 
ENDROOT
BRANCH   1   2
ATOM      2  N   LIG    1       30.302 -16.543  10.991  0.00  0.00    -0.324 NA
ATOM      3  H   LIG    1       30.786 -15.642  10.980  0.00  0.00    +0.119 HD
ATOM      4  H   LIG    1       29.442 -16.379  10.459  0.00  0.00    +0.119 HD
ENDBRANCH   1   2
BRANCH   1   6
ATOM      5  C   LIG    1       32.900 -15.682   9.900  0.00  0.00    +0.005 C 
ATOM      6  C   LIG    1       32.330 -16.859   9.599  0.00  0.00    -0.016 C 
ENDBRANCH   1   6
BRANCH   1   7
ATOM      7  C   LIG    1       30.231 -18.171   9.163  0.00  0.00    +0.034 C 
BRANCH   7   8
ATOM      8  C   LIG    1       31.004 -18.976   8.119  0.00  0.00    +0.122 C 
BRANCH   8   9
ATOM      9  C   LIG    1       31.245 -20.401   8.554  0.00  0.00    +0.305 C 
ATOM     10  O   LIG    1       32.148 -20.741   9.297  0.00  0.00    -0.251 OA
BRANCH   9  11
ATOM     11  O   LIG    1       30.331 -21.268   8.059  0.00  0.00    -0.481 OA
ATOM     12  H   LIG    1       30.502 -21.508   7.123  0.00  0.00    +0.295 HD
ENDBRANCH   9  11
ENDBRANCH   8   9
ENDBRANCH   7   8
ENDBRANCH   1   7
TORSDOF 6
ENDMDL
