MODEL 1
REMARK VINA RESULT:      -8.3      0.000      0.000
REMARK  Name = *****
REMARK                            x       y       z     vdW  Elec       q    Type
REMARK                         _______ _______ _______ _____ _____    ______ ____
ROOT
ATOM      1  N   LIG    1       31.771 -20.031   9.117  0.00  0.00    -0.180 NA
ATOM      2  C   LIG    1       30.897 -20.812   8.544  0.00  0.00    +0.177 C 
ENDROOT
BRANCH   1   9
ATOM      3  O   LIG    1       32.491 -15.368   9.052  0.00  0.00    -0.274 OA
ATOM      4  C   LIG    1       32.020 -16.470   9.283  0.00  0.00    +0.240 C 
ATOM      5  N   LIG    1       31.141 -16.752  10.278  0.00  0.00    -0.237 N 
ATOM      6  H   LIG    1       30.841 -16.087  10.970  0.00  0.00    +0.159 HD
ATOM      7  C   LIG    1       30.992 -18.098  10.405  0.00  0.00    +0.328 C 
ATOM      8  O   LIG    1       30.536 -18.656  11.397  0.00  0.00    -0.250 OA
ATOM      9  N   LIG    1       31.524 -18.694   9.241  0.00  0.00    -0.168 N 
ATOM     10  C   LIG    1       32.392 -17.754   8.571  0.00  0.00    +0.232 C 
ENDBRANCH   1   9
BRANCH   2  11
ATOM     11  C   LIG    1       29.659 -20.513   7.862  0.00  0.00    +0.154 A 
ATOM     12  O   LIG    1       28.462 -20.592   8.519  0.00  0.00    -0.399 OA
ATOM     13  C   LIG    1       27.493 -20.341   7.605  0.00  0.00    +0.438 A 
ATOM     14  C   LIG    1       28.025 -20.005   6.385  0.00  0.00    +0.132 A 
ATOM     15  C   LIG    1       29.431 -20.109   6.553  0.00  0.00    +0.058 A 
BRANCH  13  16
ATOM     16  N   LIG    1       26.148 -20.472   8.064  0.00  0.00    +0.119 N 
ATOM     17  O   LIG    1       25.251 -20.556   7.213  0.00  0.00    -0.574 OA
ATOM     18  O   LIG    1       25.987 -20.494   9.292  0.00  0.00    +0.045 OA
ENDBRANCH  13  16
ENDBRANCH   2  11
TORSDOF 3
ENDMDL
MODEL 2
REMARK VINA RESULT:      -8.0      1.770      2.224
REMARK  Name = *****
REMARK                            x       y       z     vdW  Elec       q    Type
REMARK                         _______ _______ _______ _____ _____    ______ ____
ROOT
ATOM      1  N   LIG    1       30.651 -18.435   7.089  0.00  0.00    -0.180 NA
ATOM      2  C   LIG    1       29.919 -19.302   6.446  0.00  0.00    +0.177 C 
ENDROOT
BRANCH   1   9
ATOM      3  O   LIG    1       30.363 -16.378  11.326  0.00  0.00    -0.274 OA
ATOM      4  C   LIG    1       30.517 -17.205  10.441  0.00  0.00    +0.240 C 
ATOM      5  N   LIG    1       31.131 -18.405  10.591  0.00  0.00    -0.237 N 
ATOM      6  H   LIG    1       31.583 -18.705  11.438  0.00  0.00    +0.159 HD
ATOM      7  C   LIG    1       31.336 -18.983   9.377  0.00  0.00    +0.328 C 
ATOM      8  O   LIG    1       32.136 -19.886   9.163  0.00  0.00    -0.250 OA
ATOM      9  N   LIG    1       30.529 -18.298   8.442  0.00  0.00    -0.168 N 
ATOM     10  C   LIG    1       30.139 -17.019   8.987  0.00  0.00    +0.232 C 
ENDBRANCH   1   9
BRANCH   2  11
ATOM     11  C   LIG    1       28.838 -20.149   6.893  0.00  0.00    +0.154 A 
ATOM     12  O   LIG    1       27.547 -19.890   6.522  0.00  0.00    -0.399 OA
ATOM     13  C   LIG    1       26.764 -20.793   7.160  0.00  0.00    +0.438 A 
ATOM     14  C   LIG    1       27.512 -21.700   7.868  0.00  0.00    +0.132 A 
ATOM     15  C   LIG    1       28.860 -21.287   7.689  0.00  0.00    +0.058 A 
BRANCH  13  16
ATOM     16  N   LIG    1       25.355 -20.637   6.988  0.00  0.00    +0.119 N 
ATOM     17  O   LIG    1       24.644 -20.631   8.002  0.00  0.00    -0.574 OA
ATOM     18  O   LIG    1       24.956 -20.515   5.822  0.00  0.00    +0.045 OA
ENDBRANCH  13  16
ENDBRANCH   2  11
TORSDOF 3
ENDMDL
MODEL 3
REMARK VINA RESULT:      -7.4      3.146      7.124
REMARK  Name = *****
REMARK                            x       y       z     vdW  Elec       q    Type
REMARK                         _______ _______ _______ _____ _____    ______ ____
ROOT
ATOM      1  N   LIG    1       24.551 -21.446   7.954  0.00  0.00    -0.180 NA
ATOM      2  C   LIG    1       25.583 -20.692   8.212  0.00  0.00    +0.177 C 
ENDROOT
BRANCH   1   9
ATOM      3  O   LIG    1       26.370 -25.271   5.872  0.00  0.00    -0.274 OA
ATOM      4  C   LIG    1       25.695 -24.279   6.100  0.00  0.00    +0.240 C 
ATOM      5  N   LIG    1       24.982 -23.589   5.175  0.00  0.00    -0.237 N 
ATOM      6  H   LIG    1       24.993 -23.790   4.190  0.00  0.00    +0.159 HD
ATOM      7  C   LIG    1       24.534 -22.419   5.705  0.00  0.00    +0.328 C 
ATOM      8  O   LIG    1       24.154 -21.458   5.046  0.00  0.00    -0.250 OA
ATOM      9  N   LIG    1       24.670 -22.511   7.107  0.00  0.00    -0.168 N 
ATOM     10  C   LIG    1       25.597 -23.570   7.434  0.00  0.00    +0.232 C 
ENDBRANCH   1   9
BRANCH   2  11
ATOM     11  C   LIG    1       26.918 -20.688   7.660  0.00  0.00    +0.154 A 
ATOM     12  O   LIG    1       27.997 -21.015   8.437  0.00  0.00    -0.399 OA
ATOM     13  C   LIG    1       29.101 -20.839   7.671  0.00  0.00    +0.438 A 
ATOM     14  C   LIG    1       28.774 -20.495   6.384  0.00  0.00    +0.132 A 
ATOM     15  C   LIG    1       27.357 -20.404   6.374  0.00  0.00    +0.058 A 
BRANCH  13  16
ATOM     16  N   LIG    1       30.355 -21.032   8.325  0.00  0.00    +0.119 N 
ATOM     17  O   LIG    1       31.330 -20.387   7.913  0.00  0.00    -0.574 OA
ATOM     18  O   LIG    1       30.365 -21.839   9.265  0.00  0.00    +0.045 OA
ENDBRANCH  13  16
ENDBRANCH   2  11
TORSDOF 3
ENDMDL
MODEL 4
REMARK VINA RESULT:      -7.3      2.698      6.949
REMARK  Name = *****
REMARK                            x       y       z     vdW  Elec       q    Type
REMARK                         _______ _______ _______ _____ _____    ______ ____
ROOT
ATOM      1  N   LIG    1       25.359 -21.107   7.909  0.00  0.00    -0.180 NA
ATOM      2  C   LIG    1       26.487 -20.665   8.392  0.00  0.00    +0.177 C 
ENDROOT
BRANCH   1   9
ATOM      3  O   LIG    1       23.895 -21.237   3.424  0.00  0.00    -0.274 OA
ATOM      4  C   LIG    1       24.406 -21.538   4.492  0.00  0.00    +0.240 C 
ATOM      5  N   LIG    1       24.773 -22.792   4.857  0.00  0.00    -0.237 N 
ATOM      6  H   LIG    1       24.597 -23.614   4.305  0.00  0.00    +0.159 HD
ATOM      7  C   LIG    1       25.095 -22.821   6.178  0.00  0.00    +0.328 C 
ATOM      8  O   LIG    1       25.146 -23.840   6.859  0.00  0.00    -0.250 OA
ATOM      9  N   LIG    1       25.269 -21.485   6.600  0.00  0.00    -0.168 N 
ATOM     10  C   LIG    1       24.642 -20.595   5.652  0.00  0.00    +0.232 C 
ENDBRANCH   1   9
BRANCH   2  11
ATOM     11  C   LIG    1       27.745 -20.369   7.746  0.00  0.00    +0.154 A 
ATOM     12  O   LIG    1       28.921 -20.441   8.440  0.00  0.00    -0.399 OA
ATOM     13  C   LIG    1       29.901 -20.029   7.599  0.00  0.00    +0.438 A 
ATOM     14  C   LIG    1       29.414 -19.778   6.340  0.00  0.00    +0.132 A 
ATOM     15  C   LIG    1       28.015 -20.004   6.433  0.00  0.00    +0.058 A 
BRANCH  13  16
ATOM     16  N   LIG    1       31.211 -19.934   8.159  0.00  0.00    +0.119 N 
ATOM     17  O   LIG    1       31.497 -20.694   9.095  0.00  0.00    -0.574 OA
ATOM     18  O   LIG    1       31.963 -19.089   7.655  0.00  0.00    +0.045 OA
ENDBRANCH  13  16
ENDBRANCH   2  11
TORSDOF 3
ENDMDL
MODEL 5
REMARK VINA RESULT:      -7.3      6.208      7.829
REMARK  Name = *****
REMARK                            x       y       z     vdW  Elec       q    Type
REMARK                         _______ _______ _______ _____ _____    ______ ____
ROOT
ATOM      1  N   LIG    1       26.027 -21.602   6.929  0.00  0.00    -0.180 NA
ATOM      2  C   LIG    1       26.217 -22.866   7.186  0.00  0.00    +0.177 C 
ENDROOT
BRANCH   1   9
ATOM      3  O   LIG    1       23.555 -19.269   3.655  0.00  0.00    -0.274 OA
ATOM      4  C   LIG    1       23.853 -19.939   4.631  0.00  0.00    +0.240 C 
ATOM      5  N   LIG    1       23.029 -20.208   5.675  0.00  0.00    -0.237 N 
ATOM      6  H   LIG    1       22.107 -19.822   5.779  0.00  0.00    +0.159 HD
ATOM      7  C   LIG    1       23.731 -20.780   6.690  0.00  0.00    +0.328 C 
ATOM      8  O   LIG    1       23.348 -20.836   7.854  0.00  0.00    -0.250 OA
ATOM      9  N   LIG    1       24.969 -21.205   6.161  0.00  0.00    -0.168 N 
ATOM     10  C   LIG    1       25.221 -20.521   4.915  0.00  0.00    +0.232 C 
ENDBRANCH   1   9
BRANCH   2  11
ATOM     11  C   LIG    1       25.539 -24.046   6.701  0.00  0.00    +0.154 A 
ATOM     12  O   LIG    1       26.250 -25.114   6.224  0.00  0.00    -0.399 OA
ATOM     13  C   LIG    1       25.347 -26.016   5.769  0.00  0.00    +0.438 A 
ATOM     14  C   LIG    1       24.059 -25.613   6.018  0.00  0.00    +0.132 A 
ATOM     15  C   LIG    1       24.183 -24.337   6.630  0.00  0.00    +0.058 A 
BRANCH  13  16
ATOM     16  N   LIG    1       25.885 -27.176   5.134  0.00  0.00    +0.119 N 
ATOM     17  O   LIG    1       25.166 -28.183   5.061  0.00  0.00    -0.574 OA
ATOM     18  O   LIG    1       27.041 -27.077   4.699  0.00  0.00    +0.045 OA
ENDBRANCH  13  16
ENDBRANCH   2  11
TORSDOF 3
ENDMDL
MODEL 6
REMARK VINA RESULT:      -7.0      2.828      6.999
REMARK  Name = *****
REMARK                            x       y       z     vdW  Elec       q    Type
REMARK                         _______ _______ _______ _____ _____    ______ ____
ROOT
ATOM      1  N   LIG    1       24.765 -21.161   7.928  0.00  0.00    -0.180 NA
ATOM      2  C   LIG    1       25.847 -20.893   8.604  0.00  0.00    +0.177 C 
ENDROOT
BRANCH   1   9
ATOM      3  O   LIG    1       23.945 -21.053   3.282  0.00  0.00    -0.274 OA
ATOM      4  C   LIG    1       24.283 -21.419   4.396  0.00  0.00    +0.240 C 
ATOM      5  N   LIG    1       24.526 -22.704   4.757  0.00  0.00    -0.237 N 
ATOM      6  H   LIG    1       24.387 -23.495   4.151  0.00  0.00    +0.159 HD
ATOM      7  C   LIG    1       24.656 -22.797   6.107  0.00  0.00    +0.328 C 
ATOM      8  O   LIG    1       24.556 -23.839   6.745  0.00  0.00    -0.250 OA
ATOM      9  N   LIG    1       24.841 -21.488   6.604  0.00  0.00    -0.168 N 
ATOM     10  C   LIG    1       24.403 -20.531   5.616  0.00  0.00    +0.232 C 
ENDBRANCH   1   9
BRANCH   2  11
ATOM     11  C   LIG    1       27.222 -20.759   8.181  0.00  0.00    +0.154 A 
ATOM     12  O   LIG    1       27.937 -19.631   8.475  0.00  0.00    -0.399 OA
ATOM     13  C   LIG    1       29.147 -19.765   7.879  0.00  0.00    +0.438 A 
ATOM     14  C   LIG    1       29.283 -20.992   7.280  0.00  0.00    +0.132 A 
ATOM     15  C   LIG    1       28.036 -21.641   7.482  0.00  0.00    +0.058 A 
BRANCH  13  16
ATOM     16  N   LIG    1       30.024 -18.642   7.979  0.00  0.00    +0.119 N 
ATOM     17  O   LIG    1       30.627 -18.286   6.956  0.00  0.00    -0.574 OA
ATOM     18  O   LIG    1       30.108 -18.110   9.093  0.00  0.00    +0.045 OA
ENDBRANCH  13  16
ENDBRANCH   2  11
TORSDOF 3
ENDMDL
MODEL 7
REMARK VINA RESULT:      -6.9      3.158      7.459
REMARK  Name = *****
REMARK                            x       y       z     vdW  Elec       q    Type
REMARK                         _______ _______ _______ _____ _____    ______ ____
ROOT
ATOM      1  N   LIG    1       25.131 -20.758   4.909  0.00  0.00    -0.180 NA
ATOM      2  C   LIG    1       26.279 -20.161   5.074  0.00  0.00    +0.177 C 
ENDROOT
BRANCH   1   9
ATOM      3  O   LIG    1       23.487 -24.835   6.627  0.00  0.00    -0.274 OA
ATOM      4  C   LIG    1       23.797 -23.659   6.515  0.00  0.00    +0.240 C 
ATOM      5  N   LIG    1       23.336 -22.650   7.295  0.00  0.00    -0.237 N 
ATOM      6  H   LIG    1       22.635 -22.765   8.007  0.00  0.00    +0.159 HD
ATOM      7  C   LIG    1       23.693 -21.448   6.769  0.00  0.00    +0.328 C 
ATOM      8  O   LIG    1       23.164 -20.380   7.054  0.00  0.00    -0.250 OA
ATOM      9  N   LIG    1       24.701 -21.690   5.811  0.00  0.00    -0.168 N 
ATOM     10  C   LIG    1       24.679 -23.082   5.428  0.00  0.00    +0.232 C 
ENDBRANCH   1   9
BRANCH   2  11
ATOM     11  C   LIG    1       27.329 -20.374   6.043  0.00  0.00    +0.154 A 
ATOM     12  O   LIG    1       28.455 -19.598   6.036  0.00  0.00    -0.399 OA
ATOM     13  C   LIG    1       29.279 -20.089   6.994  0.00  0.00    +0.438 A 
ATOM     14  C   LIG    1       28.686 -21.109   7.695  0.00  0.00    +0.132 A 
ATOM     15  C   LIG    1       27.417 -21.290   7.083  0.00  0.00    +0.058 A 
BRANCH  13  16
ATOM     16  N   LIG    1       30.565 -19.478   7.088  0.00  0.00    +0.119 N 
ATOM     17  O   LIG    1       31.493 -20.151   7.559  0.00  0.00    -0.574 OA
ATOM     18  O   LIG    1       30.649 -18.310   6.685  0.00  0.00    +0.045 OA
ENDBRANCH  13  16
ENDBRANCH   2  11
TORSDOF 3
ENDMDL
MODEL 8
REMARK VINA RESULT:      -6.9      4.638      7.095
REMARK  Name = *****
REMARK                            x       y       z     vdW  Elec       q    Type
REMARK                         _______ _______ _______ _____ _____    ______ ____
ROOT
ATOM      1  N   LIG    1       24.958 -21.139   5.154  0.00  0.00    -0.180 NA
ATOM      2  C   LIG    1       24.487 -22.275   4.718  0.00  0.00    +0.177 C 
ENDROOT
BRANCH   1   9
ATOM      3  O   LIG    1       26.008 -20.346   9.686  0.00  0.00    -0.274 OA
ATOM      4  C   LIG    1       26.107 -20.559   8.488  0.00  0.00    +0.240 C 
ATOM      5  N   LIG    1       27.231 -20.376   7.752  0.00  0.00    -0.237 N 
ATOM      6  H   LIG    1       28.083 -19.981   8.112  0.00  0.00    +0.159 HD
ATOM      7  C   LIG    1       26.947 -20.484   6.426  0.00  0.00    +0.328 C 
ATOM      8  O   LIG    1       27.661 -20.058   5.525  0.00  0.00    -0.250 OA
ATOM      9  N   LIG    1       25.676 -21.090   6.314  0.00  0.00    -0.168 N 
ATOM     10  C   LIG    1       24.976 -20.976   7.572  0.00  0.00    +0.232 C 
ENDBRANCH   1   9
BRANCH   2  11
ATOM     11  C   LIG    1       24.480 -23.590   5.314  0.00  0.00    +0.154 A 
ATOM     12  O   LIG    1       25.312 -24.572   4.850  0.00  0.00    -0.399 OA
ATOM     13  C   LIG    1       25.015 -25.700   5.542  0.00  0.00    +0.438 A 
ATOM     14  C   LIG    1       24.076 -25.464   6.514  0.00  0.00    +0.132 A 
ATOM     15  C   LIG    1       23.733 -24.093   6.372  0.00  0.00    +0.058 A 
BRANCH  13  16
ATOM     16  N   LIG    1       25.708 -26.882   5.142  0.00  0.00    +0.119 N 
ATOM     17  O   LIG    1       25.038 -27.904   4.934  0.00  0.00    -0.574 OA
ATOM     18  O   LIG    1       26.938 -26.786   5.031  0.00  0.00    +0.045 OA
ENDBRANCH  13  16
ENDBRANCH   2  11
TORSDOF 3
ENDMDL
MODEL 9
REMARK VINA RESULT:      -6.9      5.639      7.995
REMARK  Name = *****
REMARK                            x       y       z     vdW  Elec       q    Type
REMARK                         _______ _______ _______ _____ _____    ______ ____
ROOT
ATOM      1  N   LIG    1       23.518 -22.061   6.478  0.00  0.00    -0.180 NA
ATOM      2  C   LIG    1       23.334 -23.328   6.725  0.00  0.00    +0.177 C 
ENDROOT
BRANCH   1   9
ATOM      3  O   LIG    1       27.552 -19.706   5.813  0.00  0.00    -0.274 OA
ATOM      4  C   LIG    1       26.540 -20.360   5.618  0.00  0.00    +0.240 C 
ATOM      5  N   LIG    1       25.955 -20.552   4.409  0.00  0.00    -0.237 N 
ATOM      6  H   LIG    1       26.264 -20.116   3.557  0.00  0.00    +0.159 HD
ATOM      7  C   LIG    1       24.733 -21.128   4.566  0.00  0.00    +0.328 C 
ATOM      8  O   LIG    1       23.850 -21.128   3.715  0.00  0.00    -0.250 OA
ATOM      9  N   LIG    1       24.670 -21.634   5.883  0.00  0.00    -0.168 N 
ATOM     10  C   LIG    1       25.688 -21.003   6.690  0.00  0.00    +0.232 C 
ENDBRANCH   1   9
BRANCH   2  11
ATOM     11  C   LIG    1       24.218 -24.461   6.581  0.00  0.00    +0.154 A 
ATOM     12  O   LIG    1       23.734 -25.681   6.193  0.00  0.00    -0.399 OA
ATOM     13  C   LIG    1       24.775 -26.548   6.232  0.00  0.00    +0.438 A 
ATOM     14  C   LIG    1       25.951 -25.913   6.543  0.00  0.00    +0.132 A 
ATOM     15  C   LIG    1       25.592 -24.557   6.762  0.00  0.00    +0.058 A 
BRANCH  13  16
ATOM     16  N   LIG    1       24.465 -27.914   5.955  0.00  0.00    +0.119 N 
ATOM     17  O   LIG    1       24.103 -28.629   6.901  0.00  0.00    -0.574 OA
ATOM     18  O   LIG    1       24.582 -28.275   4.776  0.00  0.00    +0.045 OA
ENDBRANCH  13  16
ENDBRANCH   2  11
TORSDOF 3
ENDMDL
