MODEL 1
REMARK VINA RESULT:      -6.7      0.000      0.000
REMARK  Name = *****
REMARK                            x       y       z     vdW  Elec       q    Type
REMARK                         _______ _______ _______ _____ _____    ______ ____
ROOT
ATOM      1  C   LIG    1       25.907 -29.541   9.549  0.00  0.00    +0.005 A 
ATOM      2  C   LIG    1       25.545 -30.878   9.200  0.00  0.00    +0.000 A 
ATOM      3  C   LIG    1       25.073 -31.711  10.282  0.00  0.00    +0.009 A 
ATOM      4  C   LIG    1       24.915 -31.113  11.557  0.00  0.00    +0.072 A 
ATOM      5  C   LIG    1       24.332 -31.822  12.599  0.00  0.00    +0.028 A 
ATOM      6  C   LIG    1       23.922 -33.144  12.459  0.00  0.00    +0.002 A 
ATOM      7  C   LIG    1       24.155 -33.794  11.263  0.00  0.00    +0.001 A 
ATOM      8  N   LIG    1       25.320 -29.878  11.854  0.00  0.00    -0.251 NA
ATOM      9  C   LIG    1       24.752 -33.098  10.209  0.00  0.00    +0.010 A 
ATOM     10  C   LIG    1       25.873 -29.113  10.893  0.00  0.00    +0.053 A 
ENDROOT
BRANCH   2  11
ATOM     11  C   LIG    1       25.643 -31.386   7.764  0.00  0.00    -0.017 A 
ATOM     12  C   LIG    1       26.779 -32.071   7.278  0.00  0.00    +0.011 A 
ATOM     13  C   LIG    1       26.901 -32.476   5.940  0.00  0.00    +0.039 A 
ATOM     14  C   LIG    1       25.832 -32.328   5.077  0.00  0.00    +0.123 A 
ATOM     15  F   LIG    1       25.922 -32.766   3.815  0.00  0.00    -0.205 F 
ATOM     16  C   LIG    1       24.666 -31.732   5.516  0.00  0.00    +0.039 A 
ATOM     17  C   LIG    1       24.604 -31.218   6.820  0.00  0.00    +0.011 A 
ENDBRANCH   2  11
BRANCH  10  18
ATOM     18  C   LIG    1       26.486 -27.786  11.333  0.00  0.00    +0.038 C 
ATOM     19  C   LIG    1       26.061 -27.113  12.622  0.00  0.00    +0.010 C 
ATOM     20  C   LIG    1       27.395 -27.784  12.551  0.00  0.00    +0.010 C 
ENDBRANCH  10  18
BRANCH   1  22
ATOM     21  C   LIG    1       25.535 -27.927   7.696  0.00  0.00    +0.005 C 
ATOM     22  C   LIG    1       26.352 -28.541   8.567  0.00  0.00    +0.008 C 
BRANCH  21  23
ATOM     23  C   LIG    1       25.997 -26.957   6.641  0.00  0.00    +0.140 C 
BRANCH  23  24
ATOM     24  O   LIG    1       26.585 -27.693   5.571  0.00  0.00    -0.388 OA
ATOM     25  H   LIG    1       25.893 -27.840   4.900  0.00  0.00    +0.210 HD
ENDBRANCH  23  24
BRANCH  23  26
ATOM     26  C   LIG    1       24.880 -26.051   6.091  0.00  0.00    +0.067 C 
BRANCH  26  27
ATOM     27  C   LIG    1       25.296 -24.589   5.881  0.00  0.00    +0.128 C 
BRANCH  27  28
ATOM     28  O   LIG    1       24.778 -24.106   4.635  0.00  0.00    -0.391 OA
ATOM     29  H   LIG    1       24.205 -24.826   4.280  0.00  0.00    +0.210 HD
ENDBRANCH  27  28
BRANCH  27  30
ATOM     30  C   LIG    1       24.706 -23.722   6.992  0.00  0.00    +0.151 C 
BRANCH  30  32
ATOM     31  O   LIG    1       23.335 -21.892   6.252  0.00  0.00    -0.251 OA
ATOM     32  C   LIG    1       23.416 -23.056   6.580  0.00  0.00    +0.307 C 
BRANCH  32  33
ATOM     33  O   LIG    1       22.337 -23.869   6.685  0.00  0.00    -0.481 OA
ATOM     34  H   LIG    1       21.575 -23.514   6.164  0.00  0.00    +0.295 HD
ENDBRANCH  32  33
ENDBRANCH  30  32
ENDBRANCH  27  30
ENDBRANCH  26  27
ENDBRANCH  23  26
ENDBRANCH  21  23
ENDBRANCH   1  22
TORSDOF 11
ENDMDL
MODEL 2
REMARK VINA RESULT:      -6.3      3.645      5.535
REMARK  Name = *****
REMARK                            x       y       z     vdW  Elec       q    Type
REMARK                         _______ _______ _______ _____ _____    ______ ____
ROOT
ATOM      1  C   LIG    1       23.578 -29.504  11.619  0.00  0.00    +0.005 A 
ATOM      2  C   LIG    1       22.271 -29.703  12.160  0.00  0.00    +0.000 A 
ATOM      3  C   LIG    1       21.875 -28.794  13.212  0.00  0.00    +0.009 A 
ATOM      4  C   LIG    1       22.761 -27.738  13.542  0.00  0.00    +0.072 A 
ATOM      5  C   LIG    1       22.376 -26.753  14.441  0.00  0.00    +0.028 A 
ATOM      6  C   LIG    1       21.142 -26.775  15.084  0.00  0.00    +0.002 A 
ATOM      7  C   LIG    1       20.295 -27.843  14.868  0.00  0.00    +0.001 A 
ATOM      8  N   LIG    1       23.996 -27.624  13.054  0.00  0.00    -0.251 NA
ATOM      9  C   LIG    1       20.673 -28.850  13.976  0.00  0.00    +0.010 A 
ATOM     10  C   LIG    1       24.439 -28.525  12.156  0.00  0.00    +0.053 A 
ENDROOT
BRANCH   2  11
ATOM     11  C   LIG    1       21.348 -30.804  11.645  0.00  0.00    -0.017 A 
ATOM     12  C   LIG    1       20.354 -30.566  10.672  0.00  0.00    +0.011 A 
ATOM     13  C   LIG    1       19.458 -31.560  10.249  0.00  0.00    +0.039 A 
ATOM     14  C   LIG    1       19.618 -32.860  10.689  0.00  0.00    +0.123 A 
ATOM     15  F   LIG    1       18.803 -33.824  10.243  0.00  0.00    -0.205 F 
ATOM     16  C   LIG    1       20.621 -33.169  11.586  0.00  0.00    +0.039 A 
ATOM     17  C   LIG    1       21.428 -32.142  12.097  0.00  0.00    +0.011 A 
ENDBRANCH   2  11
BRANCH  10  18
ATOM     18  C   LIG    1       25.916 -28.454  11.777  0.00  0.00    +0.038 C 
ATOM     19  C   LIG    1       26.856 -27.480  12.457  0.00  0.00    +0.010 C 
ATOM     20  C   LIG    1       26.941 -28.934  12.790  0.00  0.00    +0.010 C 
ENDBRANCH  10  18
BRANCH   1  22
ATOM     21  C   LIG    1       23.934 -30.003   9.210  0.00  0.00    +0.005 C 
ATOM     22  C   LIG    1       24.121 -30.297  10.506  0.00  0.00    +0.008 C 
BRANCH  21  23
ATOM     23  C   LIG    1       24.427 -30.851   8.068  0.00  0.00    +0.140 C 
BRANCH  23  24
ATOM     24  O   LIG    1       23.312 -31.525   7.487  0.00  0.00    -0.388 OA
ATOM     25  H   LIG    1       23.225 -32.387   7.934  0.00  0.00    +0.210 HD
ENDBRANCH  23  24
BRANCH  23  26
ATOM     26  C   LIG    1       25.177 -30.062   6.980  0.00  0.00    +0.067 C 
BRANCH  26  27
ATOM     27  C   LIG    1       25.163 -28.541   7.176  0.00  0.00    +0.128 C 
BRANCH  27  28
ATOM     28  O   LIG    1       26.333 -28.127   7.893  0.00  0.00    -0.391 OA
ATOM     29  H   LIG    1       26.121 -27.241   8.272  0.00  0.00    +0.210 HD
ENDBRANCH  27  28
BRANCH  27  30
ATOM     30  C   LIG    1       25.187 -27.846   5.816  0.00  0.00    +0.151 C 
BRANCH  30  32
ATOM     31  O   LIG    1       26.092 -25.643   6.149  0.00  0.00    -0.251 OA
ATOM     32  C   LIG    1       26.246 -26.773   5.736  0.00  0.00    +0.307 C 
BRANCH  32  33
ATOM     33  O   LIG    1       27.365 -27.173   5.085  0.00  0.00    -0.481 OA
ATOM     34  H   LIG    1       27.217 -27.194   4.108  0.00  0.00    +0.295 HD
ENDBRANCH  32  33
ENDBRANCH  30  32
ENDBRANCH  27  30
ENDBRANCH  26  27
ENDBRANCH  23  26
ENDBRANCH  21  23
ENDBRANCH   1  22
TORSDOF 11
ENDMDL
MODEL 3
REMARK VINA RESULT:      -6.3      4.216      7.345
REMARK  Name = *****
REMARK                            x       y       z     vdW  Elec       q    Type
REMARK                         _______ _______ _______ _____ _____    ______ ____
ROOT
ATOM      1  C   LIG    1       23.693 -28.865  12.471  0.00  0.00    +0.005 A 
ATOM      2  C   LIG    1       23.751 -27.826  13.450  0.00  0.00    +0.000 A 
ATOM      3  C   LIG    1       22.484 -27.396  13.995  0.00  0.00    +0.009 A 
ATOM      4  C   LIG    1       21.319 -28.098  13.595  0.00  0.00    +0.072 A 
ATOM      5  C   LIG    1       20.096 -27.826  14.190  0.00  0.00    +0.028 A 
ATOM      6  C   LIG    1       19.944 -26.839  15.160  0.00  0.00    +0.002 A 
ATOM      7  C   LIG    1       21.034 -26.063  15.500  0.00  0.00    +0.001 A 
ATOM      8  N   LIG    1       21.302 -29.023  12.635  0.00  0.00    -0.251 NA
ATOM      9  C   LIG    1       22.271 -26.316  14.900  0.00  0.00    +0.010 A 
ATOM     10  C   LIG    1       22.453 -29.364  12.023  0.00  0.00    +0.053 A 
ENDROOT
BRANCH   2  11
ATOM     11  C   LIG    1       25.078 -27.219  13.896  0.00  0.00    -0.017 A 
ATOM     12  C   LIG    1       25.628 -26.069  13.290  0.00  0.00    +0.011 A 
ATOM     13  C   LIG    1       26.882 -25.550  13.650  0.00  0.00    +0.039 A 
ATOM     14  C   LIG    1       27.563 -26.088  14.725  0.00  0.00    +0.123 A 
ATOM     15  F   LIG    1       28.731 -25.560  15.111  0.00  0.00    -0.205 F 
ATOM     16  C   LIG    1       27.039 -27.168  15.406  0.00  0.00    +0.039 A 
ATOM     17  C   LIG    1       25.847 -27.755  14.955  0.00  0.00    +0.011 A 
ENDBRANCH   2  11
BRANCH  10  18
ATOM     18  C   LIG    1       22.344 -30.285  10.811  0.00  0.00    +0.038 C 
ATOM     19  C   LIG    1       22.186 -31.783  10.973  0.00  0.00    +0.010 C 
ATOM     20  C   LIG    1       21.011 -30.966  10.543  0.00  0.00    +0.010 C 
ENDBRANCH  10  18
BRANCH   1  22
ATOM     21  C   LIG    1       25.616 -28.870  10.896  0.00  0.00    +0.005 C 
ATOM     22  C   LIG    1       24.887 -29.463  11.855  0.00  0.00    +0.008 C 
BRANCH  21  23
ATOM     23  C   LIG    1       26.796 -29.507  10.212  0.00  0.00    +0.140 C 
BRANCH  23  24
ATOM     24  O   LIG    1       27.391 -30.443  11.107  0.00  0.00    -0.388 OA
ATOM     25  H   LIG    1       26.713 -31.108  11.331  0.00  0.00    +0.210 HD
ENDBRANCH  23  24
BRANCH  23  26
ATOM     26  C   LIG    1       26.447 -30.210   8.887  0.00  0.00    +0.067 C 
BRANCH  26  27
ATOM     27  C   LIG    1       25.227 -29.627   8.163  0.00  0.00    +0.128 C 
BRANCH  27  28
ATOM     28  O   LIG    1       25.638 -28.592   7.262  0.00  0.00    -0.391 OA
ATOM     29  H   LIG    1       25.284 -27.749   7.634  0.00  0.00    +0.210 HD
ENDBRANCH  27  28
BRANCH  27  30
ATOM     30  C   LIG    1       24.552 -30.718   7.333  0.00  0.00    +0.151 C 
BRANCH  30  32
ATOM     31  O   LIG    1       25.322 -30.590   5.059  0.00  0.00    -0.251 OA
ATOM     32  C   LIG    1       24.454 -30.353   5.871  0.00  0.00    +0.307 C 
BRANCH  32  33
ATOM     33  O   LIG    1       23.328 -29.663   5.567  0.00  0.00    -0.481 OA
ATOM     34  H   LIG    1       22.817 -29.444   6.383  0.00  0.00    +0.295 HD
ENDBRANCH  32  33
ENDBRANCH  30  32
ENDBRANCH  27  30
ENDBRANCH  26  27
ENDBRANCH  23  26
ENDBRANCH  21  23
ENDBRANCH   1  22
TORSDOF 11
ENDMDL
MODEL 4
REMARK VINA RESULT:      -6.3      2.556      4.963
REMARK  Name = *****
REMARK                            x       y       z     vdW  Elec       q    Type
REMARK                         _______ _______ _______ _____ _____    ______ ____
ROOT
ATOM      1  C   LIG    1       25.813 -29.646   9.222  0.00  0.00    +0.005 A 
ATOM      2  C   LIG    1       25.603 -29.779  10.629  0.00  0.00    +0.000 A 
ATOM      3  C   LIG    1       25.307 -31.112  11.103  0.00  0.00    +0.009 A 
ATOM      4  C   LIG    1       25.349 -32.173  10.163  0.00  0.00    +0.072 A 
ATOM      5  C   LIG    1       25.214 -33.489  10.583  0.00  0.00    +0.028 A 
ATOM      6  C   LIG    1       24.992 -33.825  11.915  0.00  0.00    +0.002 A 
ATOM      7  C   LIG    1       24.840 -32.814  12.843  0.00  0.00    +0.001 A 
ATOM      8  N   LIG    1       25.490 -31.997   8.849  0.00  0.00    -0.251 NA
ATOM      9  C   LIG    1       24.960 -31.483  12.434  0.00  0.00    +0.010 A 
ATOM     10  C   LIG    1       25.653 -30.752   8.361  0.00  0.00    +0.053 A 
ENDROOT
BRANCH   2  11
ATOM     11  C   LIG    1       25.699 -28.583  11.571  0.00  0.00    -0.017 A 
ATOM     12  C   LIG    1       24.641 -28.204  12.426  0.00  0.00    +0.011 A 
ATOM     13  C   LIG    1       24.699 -27.063  13.241  0.00  0.00    +0.039 A 
ATOM     14  C   LIG    1       25.874 -26.340  13.326  0.00  0.00    +0.123 A 
ATOM     15  F   LIG    1       25.955 -25.285  14.146  0.00  0.00    -0.205 F 
ATOM     16  C   LIG    1       26.968 -26.706  12.568  0.00  0.00    +0.039 A 
ATOM     17  C   LIG    1       26.854 -27.772  11.664  0.00  0.00    +0.011 A 
ENDBRANCH   2  11
BRANCH  10  18
ATOM     18  C   LIG    1       25.621 -30.595   6.844  0.00  0.00    +0.038 C 
ATOM     19  C   LIG    1       25.558 -31.802   5.930  0.00  0.00    +0.010 C 
ATOM     20  C   LIG    1       24.339 -30.957   6.111  0.00  0.00    +0.010 C 
ENDBRANCH  10  18
BRANCH   1  22
ATOM     21  C   LIG    1       25.488 -27.816   7.572  0.00  0.00    +0.005 C 
ATOM     22  C   LIG    1       26.180 -28.377   8.576  0.00  0.00    +0.008 C 
BRANCH  21  23
ATOM     23  C   LIG    1       25.899 -26.555   6.860  0.00  0.00    +0.140 C 
BRANCH  23  24
ATOM     24  O   LIG    1       26.981 -26.859   5.983  0.00  0.00    -0.388 OA
ATOM     25  H   LIG    1       27.236 -27.787   6.141  0.00  0.00    +0.210 HD
ENDBRANCH  23  24
BRANCH  23  26
ATOM     26  C   LIG    1       24.763 -25.885   6.065  0.00  0.00    +0.067 C 
BRANCH  26  27
ATOM     27  C   LIG    1       24.736 -24.355   6.167  0.00  0.00    +0.128 C 
BRANCH  27  28
ATOM     28  O   LIG    1       24.839 -23.773   4.861  0.00  0.00    -0.391 OA
ATOM     29  H   LIG    1       25.707 -23.303   4.840  0.00  0.00    +0.210 HD
ENDBRANCH  27  28
BRANCH  27  30
ATOM     30  C   LIG    1       23.406 -23.903   6.768  0.00  0.00    +0.151 C 
BRANCH  30  32
ATOM     31  O   LIG    1       22.859 -21.764   5.818  0.00  0.00    -0.251 OA
ATOM     32  C   LIG    1       23.254 -22.401   6.770  0.00  0.00    +0.307 C 
BRANCH  32  33
ATOM     33  O   LIG    1       23.677 -21.823   7.920  0.00  0.00    -0.481 OA
ATOM     34  H   LIG    1       24.541 -21.361   7.786  0.00  0.00    +0.295 HD
ENDBRANCH  32  33
ENDBRANCH  30  32
ENDBRANCH  27  30
ENDBRANCH  26  27
ENDBRANCH  23  26
ENDBRANCH  21  23
ENDBRANCH   1  22
TORSDOF 11
ENDMDL
MODEL 5
REMARK VINA RESULT:      -6.3      3.785      6.578
REMARK  Name = *****
REMARK                            x       y       z     vdW  Elec       q    Type
REMARK                         _______ _______ _______ _____ _____    ______ ____
ROOT
ATOM      1  C   LIG    1       22.617 -30.612  11.520  0.00  0.00    +0.005 A 
ATOM      2  C   LIG    1       23.390 -29.516  12.013  0.00  0.00    +0.000 A 
ATOM      3  C   LIG    1       22.653 -28.473  12.689  0.00  0.00    +0.009 A 
ATOM      4  C   LIG    1       21.264 -28.670  12.892  0.00  0.00    +0.072 A 
ATOM      5  C   LIG    1       20.532 -27.773  13.657  0.00  0.00    +0.028 A 
ATOM      6  C   LIG    1       21.104 -26.634  14.217  0.00  0.00    +0.002 A 
ATOM      7  C   LIG    1       22.429 -26.353  13.954  0.00  0.00    +0.001 A 
ATOM      8  N   LIG    1       20.571 -29.679  12.364  0.00  0.00    -0.251 NA
ATOM      9  C   LIG    1       23.177 -27.240  13.175  0.00  0.00    +0.010 A 
ATOM     10  C   LIG    1       21.211 -30.608  11.628  0.00  0.00    +0.053 A 
ENDROOT
BRANCH   2  11
ATOM     11  C   LIG    1       24.905 -29.463  11.842  0.00  0.00    -0.017 A 
ATOM     12  C   LIG    1       25.519 -29.041  10.642  0.00  0.00    +0.011 A 
ATOM     13  C   LIG    1       26.910 -29.058  10.457  0.00  0.00    +0.039 A 
ATOM     14  C   LIG    1       27.739 -29.371  11.518  0.00  0.00    +0.123 A 
ATOM     15  F   LIG    1       29.068 -29.332  11.365  0.00  0.00    -0.205 F 
ATOM     16  C   LIG    1       27.198 -29.720  12.739  0.00  0.00    +0.039 A 
ATOM     17  C   LIG    1       25.805 -29.821  12.873  0.00  0.00    +0.011 A 
ENDBRANCH   2  11
BRANCH  10  18
ATOM     18  C   LIG    1       20.343 -31.629  10.897  0.00  0.00    +0.038 C 
ATOM     19  C   LIG    1       18.987 -32.039  11.437  0.00  0.00    +0.010 C 
ATOM     20  C   LIG    1       19.059 -31.143  10.244  0.00  0.00    +0.010 C 
ENDBRANCH  10  18
BRANCH   1  22
ATOM     21  C   LIG    1       23.255 -31.955   9.528  0.00  0.00    +0.005 C 
ATOM     22  C   LIG    1       23.208 -31.785  10.859  0.00  0.00    +0.008 C 
BRANCH  21  23
ATOM     23  C   LIG    1       23.793 -33.186   8.849  0.00  0.00    +0.140 C 
BRANCH  23  24
ATOM     24  O   LIG    1       22.726 -33.825   8.152  0.00  0.00    -0.388 OA
ATOM     25  H   LIG    1       23.036 -34.712   7.891  0.00  0.00    +0.210 HD
ENDBRANCH  23  24
BRANCH  23  26
ATOM     26  C   LIG    1       24.953 -32.908   7.875  0.00  0.00    +0.067 C 
BRANCH  26  27
ATOM     27  C   LIG    1       25.216 -31.420   7.611  0.00  0.00    +0.128 C 
BRANCH  27  28
ATOM     28  O   LIG    1       26.626 -31.163   7.615  0.00  0.00    -0.391 OA
ATOM     29  H   LIG    1       26.874 -30.987   6.676  0.00  0.00    +0.210 HD
ENDBRANCH  27  28
BRANCH  27  30
ATOM     30  C   LIG    1       24.683 -31.041   6.231  0.00  0.00    +0.151 C 
BRANCH  30  32
ATOM     31  O   LIG    1       24.938 -28.700   6.716  0.00  0.00    -0.251 OA
ATOM     32  C   LIG    1       24.338 -29.574   6.129  0.00  0.00    +0.307 C 
BRANCH  32  33
ATOM     33  O   LIG    1       23.239 -29.335   5.374  0.00  0.00    -0.481 OA
ATOM     34  H   LIG    1       22.645 -30.125   5.354  0.00  0.00    +0.295 HD
ENDBRANCH  32  33
ENDBRANCH  30  32
ENDBRANCH  27  30
ENDBRANCH  26  27
ENDBRANCH  23  26
ENDBRANCH  21  23
ENDBRANCH   1  22
TORSDOF 11
ENDMDL
MODEL 6
REMARK VINA RESULT:      -6.2      4.224      7.743
REMARK  Name = *****
REMARK                            x       y       z     vdW  Elec       q    Type
REMARK                         _______ _______ _______ _____ _____    ______ ____
ROOT
ATOM      1  C   LIG    1       25.296 -30.602   7.347  0.00  0.00    +0.005 A 
ATOM      2  C   LIG    1       25.545 -29.323   7.932  0.00  0.00    +0.000 A 
ATOM      3  C   LIG    1       25.636 -28.211   7.014  0.00  0.00    +0.009 A 
ATOM      4  C   LIG    1       25.373 -28.462   5.643  0.00  0.00    +0.072 A 
ATOM      5  C   LIG    1       25.305 -27.413   4.737  0.00  0.00    +0.028 A 
ATOM      6  C   LIG    1       25.530 -26.091   5.113  0.00  0.00    +0.002 A 
ATOM      7  C   LIG    1       25.891 -25.819   6.417  0.00  0.00    +0.001 A 
ATOM      8  N   LIG    1       25.203 -29.680   5.130  0.00  0.00    -0.251 NA
ATOM      9  C   LIG    1       25.977 -26.866   7.339  0.00  0.00    +0.010 A 
ATOM     10  C   LIG    1       25.228 -30.752   5.946  0.00  0.00    +0.053 A 
ENDROOT
BRANCH   2  11
ATOM     11  C   LIG    1       25.695 -29.147   9.441  0.00  0.00    -0.017 A 
ATOM     12  C   LIG    1       26.883 -28.668  10.034  0.00  0.00    +0.011 A 
ATOM     13  C   LIG    1       27.048 -28.573  11.425  0.00  0.00    +0.039 A 
ATOM     14  C   LIG    1       25.978 -28.827  12.262  0.00  0.00    +0.123 A 
ATOM     15  F   LIG    1       26.112 -28.681  13.586  0.00  0.00    -0.205 F 
ATOM     16  C   LIG    1       24.767 -29.228  11.734  0.00  0.00    +0.039 A 
ATOM     17  C   LIG    1       24.654 -29.441  10.352  0.00  0.00    +0.011 A 
ENDBRANCH   2  11
BRANCH  10  18
ATOM     18  C   LIG    1       25.216 -32.126   5.282  0.00  0.00    +0.038 C 
ATOM     19  C   LIG    1       25.731 -32.322   3.870  0.00  0.00    +0.010 C 
ATOM     20  C   LIG    1       26.548 -32.810   5.022  0.00  0.00    +0.010 C 
ENDBRANCH  10  18
BRANCH   1  22
ATOM     21  C   LIG    1       23.921 -32.341   8.470  0.00  0.00    +0.005 C 
ATOM     22  C   LIG    1       25.116 -31.831   8.134  0.00  0.00    +0.008 C 
BRANCH  21  23
ATOM     23  C   LIG    1       23.733 -33.558   9.336  0.00  0.00    +0.140 C 
BRANCH  23  24
ATOM     24  O   LIG    1       24.955 -33.825  10.020  0.00  0.00    -0.388 OA
ATOM     25  H   LIG    1       25.476 -34.434   9.464  0.00  0.00    +0.210 HD
ENDBRANCH  23  24
BRANCH  23  26
ATOM     26  C   LIG    1       22.588 -33.429  10.358  0.00  0.00    +0.067 C 
BRANCH  26  27
ATOM     27  C   LIG    1       21.399 -32.590   9.874  0.00  0.00    +0.128 C 
BRANCH  27  28
ATOM     28  O   LIG    1       20.173 -33.295  10.107  0.00  0.00    -0.391 OA
ATOM     29  H   LIG    1       20.064 -33.913   9.346  0.00  0.00    +0.210 HD
ENDBRANCH  27  28
BRANCH  27  30
ATOM     30  C   LIG    1       21.336 -31.284  10.662  0.00  0.00    +0.151 C 
BRANCH  30  32
ATOM     31  O   LIG    1       19.421 -31.008  12.089  0.00  0.00    -0.251 OA
ATOM     32  C   LIG    1       19.920 -30.876  10.992  0.00  0.00    +0.307 C 
BRANCH  32  33
ATOM     33  O   LIG    1       19.232 -30.416   9.919  0.00  0.00    -0.481 OA
ATOM     34  H   LIG    1       18.657 -29.652  10.169  0.00  0.00    +0.295 HD
ENDBRANCH  32  33
ENDBRANCH  30  32
ENDBRANCH  27  30
ENDBRANCH  26  27
ENDBRANCH  23  26
ENDBRANCH  21  23
ENDBRANCH   1  22
TORSDOF 11
ENDMDL
MODEL 7
REMARK VINA RESULT:      -6.1      7.827     11.622
REMARK  Name = *****
REMARK                            x       y       z     vdW  Elec       q    Type
REMARK                         _______ _______ _______ _____ _____    ______ ____
ROOT
ATOM      1  C   LIG    1       26.040 -19.206   4.454  0.00  0.00    +0.005 A 
ATOM      2  C   LIG    1       24.996 -20.060   4.927  0.00  0.00    +0.000 A 
ATOM      3  C   LIG    1       23.648 -19.658   4.594  0.00  0.00    +0.009 A 
ATOM      4  C   LIG    1       23.483 -18.527   3.756  0.00  0.00    +0.072 A 
ATOM      5  C   LIG    1       22.224 -18.178   3.287  0.00  0.00    +0.028 A 
ATOM      6  C   LIG    1       21.077 -18.881   3.644  0.00  0.00    +0.002 A 
ATOM      7  C   LIG    1       21.185 -19.924   4.542  0.00  0.00    +0.001 A 
ATOM      8  N   LIG    1       24.480 -17.724   3.385  0.00  0.00    -0.251 NA
ATOM      9  C   LIG    1       22.444 -20.280   5.033  0.00  0.00    +0.010 A 
ATOM     10  C   LIG    1       25.738 -18.006   3.776  0.00  0.00    +0.053 A 
ENDROOT
BRANCH   2  11
ATOM     11  C   LIG    1       25.295 -21.325   5.725  0.00  0.00    -0.017 A 
ATOM     12  C   LIG    1       25.865 -21.290   7.017  0.00  0.00    +0.011 A 
ATOM     13  C   LIG    1       26.207 -22.453   7.724  0.00  0.00    +0.039 A 
ATOM     14  C   LIG    1       25.863 -23.691   7.215  0.00  0.00    +0.123 A 
ATOM     15  F   LIG    1       26.133 -24.802   7.912  0.00  0.00    -0.205 F 
ATOM     16  C   LIG    1       25.236 -23.785   5.989  0.00  0.00    +0.039 A 
ATOM     17  C   LIG    1       25.015 -22.622   5.236  0.00  0.00    +0.011 A 
ENDBRANCH   2  11
BRANCH  10  18
ATOM     18  C   LIG    1       26.806 -16.956   3.482  0.00  0.00    +0.038 C 
ATOM     19  C   LIG    1       26.430 -15.547   3.069  0.00  0.00    +0.010 C 
ATOM     20  C   LIG    1       26.952 -15.791   4.447  0.00  0.00    +0.010 C 
ENDBRANCH  10  18
BRANCH   1  22
ATOM     21  C   LIG    1       28.198 -19.016   5.671  0.00  0.00    +0.005 C 
ATOM     22  C   LIG    1       27.469 -19.492   4.650  0.00  0.00    +0.008 C 
BRANCH  21  23
ATOM     23  C   LIG    1       29.676 -19.246   5.837  0.00  0.00    +0.140 C 
BRANCH  23  24
ATOM     24  O   LIG    1       30.372 -18.455   4.876  0.00  0.00    -0.388 OA
ATOM     25  H   LIG    1       30.168 -17.520   5.062  0.00  0.00    +0.210 HD
ENDBRANCH  23  24
BRANCH  23  26
ATOM     26  C   LIG    1       30.206 -18.927   7.248  0.00  0.00    +0.067 C 
BRANCH  26  27
ATOM     27  C   LIG    1       31.146 -19.992   7.827  0.00  0.00    +0.128 C 
BRANCH  27  28
ATOM     28  O   LIG    1       31.818 -19.478   8.984  0.00  0.00    -0.391 OA
ATOM     29  H   LIG    1       32.714 -19.890   8.985  0.00  0.00    +0.210 HD
ENDBRANCH  27  28
BRANCH  27  30
ATOM     30  C   LIG    1       30.335 -21.208   8.269  0.00  0.00    +0.151 C 
BRANCH  30  32
ATOM     31  O   LIG    1       30.802 -22.177  10.419  0.00  0.00    -0.251 OA
ATOM     32  C   LIG    1       31.088 -22.080   9.245  0.00  0.00    +0.307 C 
BRANCH  32  33
ATOM     33  O   LIG    1       32.166 -22.690   8.696  0.00  0.00    -0.481 OA
ATOM     34  H   LIG    1       32.716 -22.045   8.188  0.00  0.00    +0.295 HD
ENDBRANCH  32  33
ENDBRANCH  30  32
ENDBRANCH  27  30
ENDBRANCH  26  27
ENDBRANCH  23  26
ENDBRANCH  21  23
ENDBRANCH   1  22
TORSDOF 11
ENDMDL
MODEL 8
REMARK VINA RESULT:      -6.0      5.387      7.927
REMARK  Name = *****
REMARK                            x       y       z     vdW  Elec       q    Type
REMARK                         _______ _______ _______ _____ _____    ______ ____
ROOT
ATOM      1  C   LIG    1       22.902 -29.880  11.527  0.00  0.00    +0.005 A 
ATOM      2  C   LIG    1       24.321 -29.877  11.359  0.00  0.00    +0.000 A 
ATOM      3  C   LIG    1       24.819 -30.510  10.160  0.00  0.00    +0.009 A 
ATOM      4  C   LIG    1       23.871 -30.983   9.218  0.00  0.00    +0.072 A 
ATOM      5  C   LIG    1       24.286 -31.470   7.986  0.00  0.00    +0.028 A 
ATOM      6  C   LIG    1       25.631 -31.557   7.637  0.00  0.00    +0.002 A 
ATOM      7  C   LIG    1       26.587 -31.204   8.568  0.00  0.00    +0.001 A 
ATOM      8  N   LIG    1       22.557 -31.020   9.441  0.00  0.00    -0.251 NA
ATOM      9  C   LIG    1       26.186 -30.724   9.817  0.00  0.00    +0.010 A 
ATOM     10  C   LIG    1       22.068 -30.542  10.602  0.00  0.00    +0.053 A 
ENDROOT
BRANCH   2  11
ATOM     11  C   LIG    1       25.248 -29.231  12.385  0.00  0.00    -0.017 A 
ATOM     12  C   LIG    1       25.727 -29.925  13.517  0.00  0.00    +0.011 A 
ATOM     13  C   LIG    1       26.522 -29.312  14.499  0.00  0.00    +0.039 A 
ATOM     14  C   LIG    1       26.975 -28.020  14.307  0.00  0.00    +0.123 A 
ATOM     15  F   LIG    1       27.781 -27.451  15.211  0.00  0.00    -0.205 F 
ATOM     16  C   LIG    1       26.600 -27.316  13.181  0.00  0.00    +0.039 A 
ATOM     17  C   LIG    1       25.703 -27.896  12.271  0.00  0.00    +0.011 A 
ENDBRANCH   2  11
BRANCH  10  18
ATOM     18  C   LIG    1       20.587 -30.782  10.879  0.00  0.00    +0.038 C 
ATOM     19  C   LIG    1       19.838 -31.921  10.217  0.00  0.00    +0.010 C 
ATOM     20  C   LIG    1       20.194 -32.022  11.665  0.00  0.00    +0.010 C 
ENDBRANCH  10  18
BRANCH   1  22
ATOM     21  C   LIG    1       21.825 -27.949  12.663  0.00  0.00    +0.005 C 
ATOM     22  C   LIG    1       22.220 -29.232  12.658  0.00  0.00    +0.008 C 
BRANCH  21  23
ATOM     23  C   LIG    1       21.192 -27.262  13.843  0.00  0.00    +0.140 C 
BRANCH  23  24
ATOM     24  O   LIG    1       22.143 -26.364  14.411  0.00  0.00    -0.388 OA
ATOM     25  H   LIG    1       22.779 -26.127  13.711  0.00  0.00    +0.210 HD
ENDBRANCH  23  24
BRANCH  23  26
ATOM     26  C   LIG    1       19.899 -26.497  13.504  0.00  0.00    +0.067 C 
BRANCH  26  27
ATOM     27  C   LIG    1       18.922 -26.355  14.677  0.00  0.00    +0.128 C 
BRANCH  27  28
ATOM     28  O   LIG    1       17.724 -25.700  14.241  0.00  0.00    -0.391 OA
ATOM     29  H   LIG    1       17.404 -25.174  15.012  0.00  0.00    +0.210 HD
ENDBRANCH  27  28
BRANCH  27  30
ATOM     30  C   LIG    1       18.528 -27.739  15.189  0.00  0.00    +0.151 C 
BRANCH  30  32
ATOM     31  O   LIG    1       16.396 -28.182  14.172  0.00  0.00    -0.251 OA
ATOM     32  C   LIG    1       17.575 -28.449  14.259  0.00  0.00    +0.307 C 
BRANCH  32  33
ATOM     33  O   LIG    1       18.151 -29.472  13.582  0.00  0.00    -0.481 OA
ATOM     34  H   LIG    1       19.116 -29.305  13.444  0.00  0.00    +0.295 HD
ENDBRANCH  32  33
ENDBRANCH  30  32
ENDBRANCH  27  30
ENDBRANCH  26  27
ENDBRANCH  23  26
ENDBRANCH  21  23
ENDBRANCH   1  22
TORSDOF 11
ENDMDL
MODEL 9
REMARK VINA RESULT:      -6.0      7.784     11.773
REMARK  Name = *****
REMARK                            x       y       z     vdW  Elec       q    Type
REMARK                         _______ _______ _______ _____ _____    ______ ____
ROOT
ATOM      1  C   LIG    1       25.977 -19.362   4.435  0.00  0.00    +0.005 A 
ATOM      2  C   LIG    1       24.924 -20.203   4.908  0.00  0.00    +0.000 A 
ATOM      3  C   LIG    1       23.580 -19.777   4.592  0.00  0.00    +0.009 A 
ATOM      4  C   LIG    1       23.425 -18.635   3.766  0.00  0.00    +0.072 A 
ATOM      5  C   LIG    1       22.168 -18.262   3.312  0.00  0.00    +0.028 A 
ATOM      6  C   LIG    1       21.013 -18.950   3.672  0.00  0.00    +0.002 A 
ATOM      7  C   LIG    1       21.112 -20.004   4.559  0.00  0.00    +0.001 A 
ATOM      8  N   LIG    1       24.432 -17.844   3.395  0.00  0.00    -0.251 NA
ATOM      9  C   LIG    1       22.369 -20.384   5.035  0.00  0.00    +0.010 A 
ATOM     10  C   LIG    1       25.688 -18.151   3.772  0.00  0.00    +0.053 A 
ENDROOT
BRANCH   2  11
ATOM     11  C   LIG    1       25.210 -21.481   5.692  0.00  0.00    -0.017 A 
ATOM     12  C   LIG    1       25.003 -22.767   5.146  0.00  0.00    +0.011 A 
ATOM     13  C   LIG    1       25.197 -23.943   5.888  0.00  0.00    +0.039 A 
ATOM     14  C   LIG    1       25.736 -23.871   7.159  0.00  0.00    +0.123 A 
ATOM     15  F   LIG    1       25.978 -24.993   7.848  0.00  0.00    -0.205 F 
ATOM     16  C   LIG    1       26.028 -22.644   7.718  0.00  0.00    +0.039 A 
ATOM     17  C   LIG    1       25.711 -21.473   7.014  0.00  0.00    +0.011 A 
ENDBRANCH   2  11
BRANCH  10  18
ATOM     18  C   LIG    1       26.770 -17.114   3.479  0.00  0.00    +0.038 C 
ATOM     19  C   LIG    1       26.413 -15.688   3.114  0.00  0.00    +0.010 C 
ATOM     20  C   LIG    1       26.965 -15.980   4.471  0.00  0.00    +0.010 C 
ENDBRANCH  10  18
BRANCH   1  22
ATOM     21  C   LIG    1       28.114 -19.336   5.703  0.00  0.00    +0.005 C 
ATOM     22  C   LIG    1       27.403 -19.672   4.615  0.00  0.00    +0.008 C 
BRANCH  21  23
ATOM     23  C   LIG    1       29.590 -19.587   5.862  0.00  0.00    +0.140 C 
BRANCH  23  24
ATOM     24  O   LIG    1       30.302 -18.472   5.330  0.00  0.00    -0.388 OA
ATOM     25  H   LIG    1       29.691 -17.712   5.318  0.00  0.00    +0.210 HD
ENDBRANCH  23  24
BRANCH  23  26
ATOM     26  C   LIG    1       30.031 -19.835   7.316  0.00  0.00    +0.067 C 
BRANCH  26  27
ATOM     27  C   LIG    1       30.374 -18.562   8.100  0.00  0.00    +0.128 C 
BRANCH  27  28
ATOM     28  O   LIG    1       29.717 -18.577   9.373  0.00  0.00    -0.391 OA
ATOM     29  H   LIG    1       30.249 -17.990   9.962  0.00  0.00    +0.210 HD
ENDBRANCH  27  28
BRANCH  27  30
ATOM     30  C   LIG    1       31.878 -18.507   8.358  0.00  0.00    +0.151 C 
BRANCH  30  32
ATOM     31  O   LIG    1       32.293 -17.625  10.556  0.00  0.00    -0.251 OA
ATOM     32  C   LIG    1       32.253 -17.440   9.359  0.00  0.00    +0.307 C 
BRANCH  32  33
ATOM     33  O   LIG    1       32.469 -16.228   8.792  0.00  0.00    -0.481 OA
ATOM     34  H   LIG    1       32.994 -16.316   7.960  0.00  0.00    +0.295 HD
ENDBRANCH  32  33
ENDBRANCH  30  32
ENDBRANCH  27  30
ENDBRANCH  26  27
ENDBRANCH  23  26
ENDBRANCH  21  23
ENDBRANCH   1  22
TORSDOF 11
ENDMDL
