MODEL 1
REMARK VINA RESULT:      -2.1      0.000      0.000
REMARK  Name = *****
REMARK                            x       y       z     vdW  Elec       q    Type
REMARK                         _______ _______ _______ _____ _____    ______ ____
ROOT
ATOM      1  N   LIG    1       27.787 -17.298   3.969  0.00  0.00    -0.297 NA
ATOM      2  C   LIG    1       28.686 -18.106   4.789  0.00  0.00    +0.100 C 
ATOM      3  C   LIG    1       28.059 -19.328   5.514  0.00  0.00    +0.100 C 
ATOM      4  N   LIG    1       26.598 -19.455   5.483  0.00  0.00    -0.299 NA
ATOM      5  C   LIG    1       26.151 -19.311   4.092  0.00  0.00    +0.100 C 
ATOM      6  C   LIG    1       26.840 -18.179   3.278  0.00  0.00    +0.100 C 
ENDROOT
BRANCH   1   7
ATOM      7  C   LIG    1       27.183 -16.135   4.655  0.00  0.00    +0.120 C 
BRANCH   7   8
ATOM      8  C   LIG    1       27.387 -14.656   4.172  0.00  0.00    +0.162 C 
BRANCH   8   9
ATOM      9  C   LIG    1       26.140 -13.939   3.680  0.00  0.00    -0.018 A 
ATOM     10  C   LIG    1       26.078 -13.423   2.380  0.00  0.00    +0.006 A 
ATOM     11  C   LIG    1       24.918 -12.769   1.939  0.00  0.00    +0.000 A 
ATOM     12  C   LIG    1       23.762 -12.780   2.719  0.00  0.00    +0.000 A 
ATOM     13  C   LIG    1       23.793 -13.345   3.983  0.00  0.00    +0.000 A 
ATOM     14  C   LIG    1       25.007 -13.793   4.499  0.00  0.00    +0.006 A 
ENDBRANCH   8   9
BRANCH   8  15
ATOM     15  O   LIG    1       27.766 -13.783   5.245  0.00  0.00    -0.371 OA
BRANCH  15  17
ATOM     16  C   LIG    1       29.330 -12.881   3.747  0.00  0.00    +0.034 C 
ATOM     17  C   LIG    1       28.397 -12.564   4.902  0.00  0.00    +0.157 C 
ENDBRANCH  15  17
ENDBRANCH   8  15
ENDBRANCH   7   8
ENDBRANCH   1   7
BRANCH   4  18
ATOM     18  C   LIG    1       26.016 -20.678   6.099  0.00  0.00    +0.095 C 
BRANCH  18  19
ATOM     19  C   LIG    1       24.782 -21.363   5.477  0.00  0.00    +0.071 C 
ATOM     20  C   LIG    1       24.825 -21.572   3.959  0.00  0.00    +0.017 C 
BRANCH  19  21
ATOM     21  C   LIG    1       23.432 -20.837   5.946  0.00  0.00    +0.167 C 
ATOM     22  O   LIG    1       22.918 -21.258   7.059  0.00  0.00    -0.292 OA
BRANCH  21  23
ATOM     23  C   LIG    1       22.592 -20.002   5.078  0.00  0.00    +0.018 A 
ATOM     24  C   LIG    1       22.800 -18.631   4.940  0.00  0.00    +0.011 A 
ATOM     25  C   LIG    1       21.901 -17.875   4.188  0.00  0.00    +0.001 A 
ATOM     26  C   LIG    1       20.755 -18.461   3.637  0.00  0.00    +0.000 A 
ATOM     27  C   LIG    1       20.527 -19.816   3.794  0.00  0.00    +0.001 A 
ATOM     28  C   LIG    1       21.491 -20.583   4.421  0.00  0.00    +0.011 A 
ENDBRANCH  21  23
ENDBRANCH  19  21
ENDBRANCH  18  19
ENDBRANCH   4  18
TORSDOF 9
ENDMDL
MODEL 2
REMARK VINA RESULT:      -0.5      1.914      7.546
REMARK  Name = *****
REMARK                            x       y       z     vdW  Elec       q    Type
REMARK                         _______ _______ _______ _____ _____    ______ ____
ROOT
ATOM      1  N   LIG    1       23.172 -19.432   4.426  0.00  0.00    -0.297 NA
ATOM      2  C   LIG    1       22.704 -18.789   5.652  0.00  0.00    +0.100 C 
ATOM      3  C   LIG    1       22.553 -17.244   5.613  0.00  0.00    +0.100 C 
ATOM      4  N   LIG    1       23.075 -16.543   4.436  0.00  0.00    -0.299 NA
ATOM      5  C   LIG    1       22.558 -17.209   3.234  0.00  0.00    +0.100 C 
ATOM      6  C   LIG    1       22.570 -18.763   3.269  0.00  0.00    +0.100 C 
ENDROOT
BRANCH   1   7
ATOM      7  C   LIG    1       24.634 -19.643   4.344  0.00  0.00    +0.120 C 
BRANCH   7   8
ATOM      8  C   LIG    1       25.425 -20.550   5.351  0.00  0.00    +0.162 C 
BRANCH   8   9
ATOM      9  C   LIG    1       26.858 -20.132   5.637  0.00  0.00    -0.018 A 
ATOM     10  C   LIG    1       27.387 -18.962   5.079  0.00  0.00    +0.006 A 
ATOM     11  C   LIG    1       28.710 -18.588   5.356  0.00  0.00    +0.000 A 
ATOM     12  C   LIG    1       29.450 -19.270   6.321  0.00  0.00    +0.000 A 
ATOM     13  C   LIG    1       28.912 -20.393   6.929  0.00  0.00    +0.000 A 
ATOM     14  C   LIG    1       27.687 -20.887   6.486  0.00  0.00    +0.006 A 
ENDBRANCH   8   9
BRANCH   8  15
ATOM     15  O   LIG    1       24.882 -20.489   6.678  0.00  0.00    -0.371 OA
BRANCH  15  17
ATOM     16  C   LIG    1       22.925 -21.572   5.972  0.00  0.00    +0.034 C 
ATOM     17  C   LIG    1       23.980 -21.509   7.061  0.00  0.00    +0.157 C 
ENDBRANCH  15  17
ENDBRANCH   8  15
ENDBRANCH   7   8
ENDBRANCH   1   7
BRANCH   4  18
ATOM     18  C   LIG    1       22.840 -15.076   4.367  0.00  0.00    +0.095 C 
BRANCH  18  19
ATOM     19  C   LIG    1       23.987 -14.109   4.007  0.00  0.00    +0.071 C 
ATOM     20  C   LIG    1       23.642 -13.008   2.998  0.00  0.00    +0.017 C 
BRANCH  19  21
ATOM     21  C   LIG    1       25.329 -14.764   3.707  0.00  0.00    +0.167 C 
ATOM     22  O   LIG    1       25.377 -15.981   3.267  0.00  0.00    -0.292 OA
BRANCH  21  23
ATOM     23  C   LIG    1       26.595 -14.122   4.084  0.00  0.00    +0.018 A 
ATOM     24  C   LIG    1       26.839 -13.665   5.377  0.00  0.00    +0.011 A 
ATOM     25  C   LIG    1       28.017 -12.966   5.644  0.00  0.00    +0.001 A 
ATOM     26  C   LIG    1       28.915 -12.653   4.616  0.00  0.00    +0.000 A 
ATOM     27  C   LIG    1       28.665 -13.080   3.324  0.00  0.00    +0.001 A 
ATOM     28  C   LIG    1       27.569 -13.889   3.093  0.00  0.00    +0.011 A 
ENDBRANCH  21  23
ENDBRANCH  19  21
ENDBRANCH  18  19
ENDBRANCH   4  18
TORSDOF 9
ENDMDL
MODEL 3
REMARK VINA RESULT:       0.1      2.366      5.410
REMARK  Name = *****
REMARK                            x       y       z     vdW  Elec       q    Type
REMARK                         _______ _______ _______ _____ _____    ______ ____
ROOT
ATOM      1  N   LIG    1       25.441 -21.175   5.964  0.00  0.00    -0.297 NA
ATOM      2  C   LIG    1       24.362 -21.205   6.949  0.00  0.00    +0.100 C 
ATOM      3  C   LIG    1       23.135 -20.296   6.665  0.00  0.00    +0.100 C 
ATOM      4  N   LIG    1       23.242 -19.344   5.555  0.00  0.00    -0.299 NA
ATOM      5  C   LIG    1       23.717 -20.067   4.369  0.00  0.00    +0.100 C 
ATOM      6  C   LIG    1       24.865 -21.086   4.619  0.00  0.00    +0.100 C 
ENDROOT
BRANCH   1   7
ATOM      7  C   LIG    1       26.529 -20.215   6.250  0.00  0.00    +0.120 C 
BRANCH   7   8
ATOM      8  C   LIG    1       27.564 -19.748   5.167  0.00  0.00    +0.162 C 
BRANCH   8   9
ATOM      9  C   LIG    1       27.318 -18.376   4.560  0.00  0.00    -0.018 A 
ATOM     10  C   LIG    1       28.213 -17.324   4.785  0.00  0.00    +0.006 A 
ATOM     11  C   LIG    1       27.974 -16.065   4.213  0.00  0.00    +0.000 A 
ATOM     12  C   LIG    1       26.951 -15.895   3.281  0.00  0.00    +0.000 A 
ATOM     13  C   LIG    1       26.097 -16.950   3.002  0.00  0.00    +0.000 A 
ATOM     14  C   LIG    1       26.204 -18.127   3.739  0.00  0.00    +0.006 A 
ENDBRANCH   8   9
BRANCH   8  15
ATOM     15  O   LIG    1       28.872 -19.541   5.720  0.00  0.00    -0.371 OA
BRANCH  15  17
ATOM     16  C   LIG    1       29.201 -21.449   7.044  0.00  0.00    +0.034 C 
ATOM     17  C   LIG    1       29.082 -19.936   7.062  0.00  0.00    +0.157 C 
ENDBRANCH  15  17
ENDBRANCH   8  15
ENDBRANCH   7   8
ENDBRANCH   1   7
BRANCH   4  18
ATOM     18  C   LIG    1       22.027 -18.547   5.234  0.00  0.00    +0.095 C 
BRANCH  18  19
ATOM     19  C   LIG    1       22.125 -17.277   4.363  0.00  0.00    +0.071 C 
ATOM     20  C   LIG    1       22.927 -17.416   3.065  0.00  0.00    +0.017 C 
BRANCH  19  21
ATOM     21  C   LIG    1       22.459 -15.991   5.109  0.00  0.00    +0.167 C 
ATOM     22  O   LIG    1       21.810 -15.675   6.186  0.00  0.00    -0.292 OA
BRANCH  21  23
ATOM     23  C   LIG    1       23.370 -14.990   4.541  0.00  0.00    +0.018 A 
ATOM     24  C   LIG    1       24.449 -14.477   5.258  0.00  0.00    +0.011 A 
ATOM     25  C   LIG    1       25.211 -13.449   4.704  0.00  0.00    +0.001 A 
ATOM     26  C   LIG    1       24.860 -12.876   3.475  0.00  0.00    +0.000 A 
ATOM     27  C   LIG    1       23.772 -13.362   2.771  0.00  0.00    +0.001 A 
ATOM     28  C   LIG    1       23.107 -14.470   3.259  0.00  0.00    +0.011 A 
ENDBRANCH  21  23
ENDBRANCH  19  21
ENDBRANCH  18  19
ENDBRANCH   4  18
TORSDOF 9
ENDMDL
MODEL 4
REMARK VINA RESULT:       0.2      1.951      3.730
REMARK  Name = *****
REMARK                            x       y       z     vdW  Elec       q    Type
REMARK                         _______ _______ _______ _____ _____    ______ ____
ROOT
ATOM      1  N   LIG    1       24.935 -15.322   3.492  0.00  0.00    -0.297 NA
ATOM      2  C   LIG    1       26.319 -15.417   3.033  0.00  0.00    +0.100 C 
ATOM      3  C   LIG    1       27.057 -16.753   3.318  0.00  0.00    +0.100 C 
ATOM      4  N   LIG    1       26.386 -17.724   4.189  0.00  0.00    -0.299 NA
ATOM      5  C   LIG    1       25.013 -17.909   3.703  0.00  0.00    +0.100 C 
ATOM      6  C   LIG    1       24.268 -16.610   3.283  0.00  0.00    +0.100 C 
ENDROOT
BRANCH   1   7
ATOM      7  C   LIG    1       24.756 -14.728   4.835  0.00  0.00    +0.120 C 
BRANCH   7   8
ATOM      8  C   LIG    1       25.402 -13.362   5.259  0.00  0.00    +0.162 C 
BRANCH   8   9
ATOM      9  C   LIG    1       26.808 -13.103   4.742  0.00  0.00    -0.018 A 
ATOM     10  C   LIG    1       27.118 -13.286   3.389  0.00  0.00    +0.006 A 
ATOM     11  C   LIG    1       28.418 -13.038   2.926  0.00  0.00    +0.000 A 
ATOM     12  C   LIG    1       29.363 -12.443   3.761  0.00  0.00    +0.000 A 
ATOM     13  C   LIG    1       29.047 -12.197   5.088  0.00  0.00    +0.000 A 
ATOM     14  C   LIG    1       27.831 -12.651   5.593  0.00  0.00    +0.006 A 
ENDBRANCH   8   9
BRANCH   8  15
ATOM     15  O   LIG    1       24.719 -12.238   4.686  0.00  0.00    -0.371 OA
BRANCH  15  17
ATOM     16  C   LIG    1       24.265 -11.579   2.482  0.00  0.00    +0.034 C 
ATOM     17  C   LIG    1       23.831 -12.491   3.615  0.00  0.00    +0.157 C 
ENDBRANCH  15  17
ENDBRANCH   8  15
ENDBRANCH   7   8
ENDBRANCH   1   7
BRANCH   4  18
ATOM     18  C   LIG    1       27.059 -19.037   4.377  0.00  0.00    +0.095 C 
BRANCH  18  19
ATOM     19  C   LIG    1       27.562 -19.473   5.769  0.00  0.00    +0.071 C 
ATOM     20  C   LIG    1       29.082 -19.575   5.930  0.00  0.00    +0.017 C 
BRANCH  19  21
ATOM     21  C   LIG    1       26.837 -20.663   6.386  0.00  0.00    +0.167 C 
ATOM     22  O   LIG    1       27.499 -21.556   7.051  0.00  0.00    -0.292 OA
BRANCH  21  23
ATOM     23  C   LIG    1       25.426 -20.937   6.089  0.00  0.00    +0.018 A 
ATOM     24  C   LIG    1       25.006 -21.407   4.846  0.00  0.00    +0.011 A 
ATOM     25  C   LIG    1       23.641 -21.543   4.592  0.00  0.00    +0.001 A 
ATOM     26  C   LIG    1       22.691 -21.142   5.539  0.00  0.00    +0.000 A 
ATOM     27  C   LIG    1       23.100 -20.648   6.764  0.00  0.00    +0.001 A 
ATOM     28  C   LIG    1       24.450 -20.646   7.062  0.00  0.00    +0.011 A 
ENDBRANCH  21  23
ENDBRANCH  19  21
ENDBRANCH  18  19
ENDBRANCH   4  18
TORSDOF 9
ENDMDL
MODEL 5
REMARK VINA RESULT:       0.5      2.198      7.205
REMARK  Name = *****
REMARK                            x       y       z     vdW  Elec       q    Type
REMARK                         _______ _______ _______ _____ _____    ______ ____
ROOT
ATOM      1  N   LIG    1       22.609 -19.554   4.558  0.00  0.00    -0.297 NA
ATOM      2  C   LIG    1       22.580 -18.957   5.891  0.00  0.00    +0.100 C 
ATOM      3  C   LIG    1       22.542 -17.406   5.958  0.00  0.00    +0.100 C 
ATOM      4  N   LIG    1       22.739 -16.670   4.706  0.00  0.00    -0.299 NA
ATOM      5  C   LIG    1       21.837 -17.230   3.693  0.00  0.00    +0.100 C 
ATOM      6  C   LIG    1       21.740 -18.782   3.664  0.00  0.00    +0.100 C 
ENDROOT
BRANCH   1   7
ATOM      7  C   LIG    1       23.959 -19.848   4.029  0.00  0.00    +0.120 C 
BRANCH   7   8
ATOM      8  C   LIG    1       25.249 -19.096   4.511  0.00  0.00    +0.162 C 
BRANCH   8   9
ATOM      9  C   LIG    1       26.237 -19.922   5.318  0.00  0.00    -0.018 A 
ATOM     10  C   LIG    1       27.609 -19.646   5.268  0.00  0.00    +0.006 A 
ATOM     11  C   LIG    1       28.507 -20.415   6.023  0.00  0.00    +0.000 A 
ATOM     12  C   LIG    1       28.037 -21.336   6.958  0.00  0.00    +0.000 A 
ATOM     13  C   LIG    1       26.675 -21.572   7.062  0.00  0.00    +0.000 A 
ATOM     14  C   LIG    1       25.808 -20.968   6.155  0.00  0.00    +0.006 A 
ENDBRANCH   8   9
BRANCH   8  15
ATOM     15  O   LIG    1       26.090 -18.706   3.416  0.00  0.00    -0.371 OA
BRANCH  15  17
ATOM     16  C   LIG    1       27.218 -16.670   3.709  0.00  0.00    +0.034 C 
ATOM     17  C   LIG    1       26.052 -17.351   3.015  0.00  0.00    +0.157 C 
ENDBRANCH  15  17
ENDBRANCH   8  15
ENDBRANCH   7   8
ENDBRANCH   1   7
BRANCH   4  18
ATOM     18  C   LIG    1       22.606 -15.189   4.767  0.00  0.00    +0.095 C 
BRANCH  18  19
ATOM     19  C   LIG    1       23.439 -14.283   3.837  0.00  0.00    +0.071 C 
ATOM     20  C   LIG    1       24.175 -14.992   2.695  0.00  0.00    +0.017 C 
BRANCH  19  21
ATOM     21  C   LIG    1       24.319 -13.255   4.537  0.00  0.00    +0.167 C 
ATOM     22  O   LIG    1       23.786 -12.231   5.124  0.00  0.00    -0.292 OA
BRANCH  21  23
ATOM     23  C   LIG    1       25.781 -13.282   4.404  0.00  0.00    +0.018 A 
ATOM     24  C   LIG    1       26.625 -13.367   5.510  0.00  0.00    +0.011 A 
ATOM     25  C   LIG    1       28.005 -13.277   5.325  0.00  0.00    +0.001 A 
ATOM     26  C   LIG    1       28.545 -13.027   4.058  0.00  0.00    +0.000 A 
ATOM     27  C   LIG    1       27.712 -12.913   2.960  0.00  0.00    +0.001 A 
ATOM     28  C   LIG    1       26.359 -13.141   3.128  0.00  0.00    +0.011 A 
ENDBRANCH  21  23
ENDBRANCH  19  21
ENDBRANCH  18  19
ENDBRANCH   4  18
TORSDOF 9
ENDMDL
MODEL 6
REMARK VINA RESULT:       0.6      2.143      4.904
REMARK  Name = *****
REMARK                            x       y       z     vdW  Elec       q    Type
REMARK                         _______ _______ _______ _____ _____    ______ ____
ROOT
ATOM      1  N   LIG    1       22.417 -15.926   4.311  0.00  0.00    -0.297 NA
ATOM      2  C   LIG    1       21.852 -16.851   3.331  0.00  0.00    +0.100 C 
ATOM      3  C   LIG    1       21.933 -18.364   3.674  0.00  0.00    +0.100 C 
ATOM      4  N   LIG    1       22.738 -18.751   4.837  0.00  0.00    -0.299 NA
ATOM      5  C   LIG    1       22.334 -17.917   5.976  0.00  0.00    +0.100 C 
ATOM      6  C   LIG    1       22.116 -16.410   5.662  0.00  0.00    +0.100 C 
ENDROOT
BRANCH   1   7
ATOM      7  C   LIG    1       23.827 -15.544   4.077  0.00  0.00    +0.120 C 
BRANCH   7   8
ATOM      8  C   LIG    1       24.362 -14.083   4.284  0.00  0.00    +0.162 C 
BRANCH   8   9
ATOM      9  C   LIG    1       25.860 -13.894   4.108  0.00  0.00    -0.018 A 
ATOM     10  C   LIG    1       26.474 -14.155   2.877  0.00  0.00    +0.006 A 
ATOM     11  C   LIG    1       27.857 -13.970   2.729  0.00  0.00    +0.000 A 
ATOM     12  C   LIG    1       28.600 -13.362   3.740  0.00  0.00    +0.000 A 
ATOM     13  C   LIG    1       27.989 -13.039   4.941  0.00  0.00    +0.000 A 
ATOM     14  C   LIG    1       26.670 -13.430   5.160  0.00  0.00    +0.006 A 
ENDBRANCH   8   9
BRANCH   8  15
ATOM     15  O   LIG    1       23.880 -13.181   3.279  0.00  0.00    -0.371 OA
BRANCH  15  17
ATOM     16  C   LIG    1       23.831 -11.802   5.175  0.00  0.00    +0.034 C 
ATOM     17  C   LIG    1       23.522 -11.876   3.691  0.00  0.00    +0.157 C 
ENDBRANCH  15  17
ENDBRANCH   8  15
ENDBRANCH   7   8
ENDBRANCH   1   7
BRANCH   4  18
ATOM     18  C   LIG    1       22.730 -20.191   5.211  0.00  0.00    +0.095 C 
BRANCH  18  19
ATOM     19  C   LIG    1       24.043 -20.920   5.568  0.00  0.00    +0.071 C 
ATOM     20  C   LIG    1       24.294 -21.151   7.062  0.00  0.00    +0.017 C 
BRANCH  19  21
ATOM     21  C   LIG    1       25.288 -20.423   4.846  0.00  0.00    +0.167 C 
ATOM     22  O   LIG    1       25.285 -20.287   3.557  0.00  0.00    -0.292 OA
BRANCH  21  23
ATOM     23  C   LIG    1       26.570 -20.271   5.546  0.00  0.00    +0.018 A 
ATOM     24  C   LIG    1       27.488 -19.279   5.207  0.00  0.00    +0.011 A 
ATOM     25  C   LIG    1       28.734 -19.257   5.836  0.00  0.00    +0.001 A 
ATOM     26  C   LIG    1       29.099 -20.260   6.741  0.00  0.00    +0.000 A 
ATOM     27  C   LIG    1       28.203 -21.265   7.061  0.00  0.00    +0.001 A 
ATOM     28  C   LIG    1       26.924 -21.203   6.541  0.00  0.00    +0.011 A 
ENDBRANCH  21  23
ENDBRANCH  19  21
ENDBRANCH  18  19
ENDBRANCH   4  18
TORSDOF 9
ENDMDL
MODEL 7
REMARK VINA RESULT:       0.7      1.775      7.308
REMARK  Name = *****
REMARK                            x       y       z     vdW  Elec       q    Type
REMARK                         _______ _______ _______ _____ _____    ______ ____
ROOT
ATOM      1  N   LIG    1       23.395 -20.746   3.484  0.00  0.00    -0.297 NA
ATOM      2  C   LIG    1       22.656 -19.848   4.370  0.00  0.00    +0.100 C 
ATOM      3  C   LIG    1       23.188 -18.394   4.490  0.00  0.00    +0.100 C 
ATOM      4  N   LIG    1       24.485 -18.097   3.874  0.00  0.00    -0.299 NA
ATOM      5  C   LIG    1       24.469 -18.599   2.495  0.00  0.00    +0.100 C 
ATOM      6  C   LIG    1       23.830 -20.003   2.298  0.00  0.00    +0.100 C 
ENDROOT
BRANCH   1   7
ATOM      7  C   LIG    1       24.442 -21.557   4.142  0.00  0.00    +0.120 C 
BRANCH   7   8
ATOM      8  C   LIG    1       24.818 -21.402   5.658  0.00  0.00    +0.162 C 
BRANCH   8   9
ATOM      9  C   LIG    1       26.207 -20.855   5.945  0.00  0.00    -0.018 A 
ATOM     10  C   LIG    1       27.077 -21.529   6.810  0.00  0.00    +0.006 A 
ATOM     11  C   LIG    1       28.357 -21.013   7.061  0.00  0.00    +0.000 A 
ATOM     12  C   LIG    1       28.840 -19.932   6.324  0.00  0.00    +0.000 A 
ATOM     13  C   LIG    1       28.008 -19.295   5.417  0.00  0.00    +0.000 A 
ATOM     14  C   LIG    1       26.670 -19.674   5.337  0.00  0.00    +0.006 A 
ENDBRANCH   8   9
BRANCH   8  15
ATOM     15  O   LIG    1       24.021 -20.408   6.316  0.00  0.00    -0.371 OA
BRANCH  15  17
ATOM     16  C   LIG    1       21.998 -21.572   6.078  0.00  0.00    +0.034 C 
ATOM     17  C   LIG    1       22.905 -20.855   7.061  0.00  0.00    +0.157 C 
ENDBRANCH  15  17
ENDBRANCH   8  15
ENDBRANCH   7   8
ENDBRANCH   1   7
BRANCH   4  18
ATOM     18  C   LIG    1       24.939 -16.681   3.914  0.00  0.00    +0.095 C 
BRANCH  18  19
ATOM     19  C   LIG    1       26.237 -16.248   3.199  0.00  0.00    +0.071 C 
ATOM     20  C   LIG    1       27.533 -16.863   3.737  0.00  0.00    +0.017 C 
BRANCH  19  21
ATOM     21  C   LIG    1       26.375 -14.755   2.935  0.00  0.00    +0.167 C 
ATOM     22  O   LIG    1       27.444 -14.288   2.370  0.00  0.00    -0.292 OA
BRANCH  21  23
ATOM     23  C   LIG    1       25.411 -13.789   3.476  0.00  0.00    +0.018 A 
ATOM     24  C   LIG    1       24.444 -13.179   2.680  0.00  0.00    +0.011 A 
ATOM     25  C   LIG    1       23.630 -12.189   3.230  0.00  0.00    +0.001 A 
ATOM     26  C   LIG    1       23.824 -11.748   4.544  0.00  0.00    +0.000 A 
ATOM     27  C   LIG    1       24.801 -12.329   5.333  0.00  0.00    +0.001 A 
ATOM     28  C   LIG    1       25.510 -13.402   4.827  0.00  0.00    +0.011 A 
ENDBRANCH  21  23
ENDBRANCH  19  21
ENDBRANCH  18  19
ENDBRANCH   4  18
TORSDOF 9
ENDMDL
MODEL 8
REMARK VINA RESULT:       0.8      1.972      3.785
REMARK  Name = *****
REMARK                            x       y       z     vdW  Elec       q    Type
REMARK                         _______ _______ _______ _____ _____    ______ ____
ROOT
ATOM      1  N   LIG    1       26.780 -15.458   3.769  0.00  0.00    -0.297 NA
ATOM      2  C   LIG    1       25.524 -15.492   4.515  0.00  0.00    +0.100 C 
ATOM      3  C   LIG    1       24.637 -16.753   4.330  0.00  0.00    +0.100 C 
ATOM      4  N   LIG    1       25.026 -17.704   3.284  0.00  0.00    -0.299 NA
ATOM      5  C   LIG    1       26.451 -18.014   3.446  0.00  0.00    +0.100 C 
ATOM      6  C   LIG    1       27.371 -16.800   3.759  0.00  0.00    +0.100 C 
ENDROOT
BRANCH   1   7
ATOM      7  C   LIG    1       26.713 -14.787   2.453  0.00  0.00    +0.120 C 
BRANCH   7   8
ATOM      8  C   LIG    1       26.630 -13.228   2.291  0.00  0.00    +0.162 C 
BRANCH   8   9
ATOM      9  C   LIG    1       25.488 -12.544   3.025  0.00  0.00    -0.018 A 
ATOM     10  C   LIG    1       24.370 -12.072   2.326  0.00  0.00    +0.006 A 
ATOM     11  C   LIG    1       23.322 -11.448   3.019  0.00  0.00    +0.000 A 
ATOM     12  C   LIG    1       23.298 -11.447   4.413  0.00  0.00    +0.000 A 
ATOM     13  C   LIG    1       24.371 -11.970   5.117  0.00  0.00    +0.000 A 
ATOM     14  C   LIG    1       25.504 -12.385   4.422  0.00  0.00    +0.006 A 
ENDBRANCH   8   9
BRANCH   8  15
ATOM     15  O   LIG    1       27.746 -12.560   2.895  0.00  0.00    -0.371 OA
BRANCH  15  17
ATOM     16  C   LIG    1       29.295 -12.269   4.632  0.00  0.00    +0.034 C 
ATOM     17  C   LIG    1       28.522 -13.294   3.823  0.00  0.00    +0.157 C 
ENDBRANCH  15  17
ENDBRANCH   8  15
ENDBRANCH   7   8
ENDBRANCH   1   7
BRANCH   4  18
ATOM     18  C   LIG    1       24.224 -18.953   3.180  0.00  0.00    +0.095 C 
BRANCH  18  19
ATOM     19  C   LIG    1       24.751 -20.279   3.768  0.00  0.00    +0.071 C 
ATOM     20  C   LIG    1       24.032 -21.550   3.302  0.00  0.00    +0.017 C 
BRANCH  19  21
ATOM     21  C   LIG    1       25.000 -20.279   5.271  0.00  0.00    +0.167 C 
ATOM     22  O   LIG    1       24.016 -20.101   6.095  0.00  0.00    -0.292 OA
BRANCH  21  23
ATOM     23  C   LIG    1       26.361 -20.283   5.821  0.00  0.00    +0.018 A 
ATOM     24  C   LIG    1       27.311 -19.329   5.459  0.00  0.00    +0.011 A 
ATOM     25  C   LIG    1       28.617 -19.453   5.932  0.00  0.00    +0.001 A 
ATOM     26  C   LIG    1       29.003 -20.559   6.698  0.00  0.00    +0.000 A 
ATOM     27  C   LIG    1       28.072 -21.524   7.038  0.00  0.00    +0.001 A 
ATOM     28  C   LIG    1       26.750 -21.325   6.684  0.00  0.00    +0.011 A 
ENDBRANCH  21  23
ENDBRANCH  19  21
ENDBRANCH  18  19
ENDBRANCH   4  18
TORSDOF 9
ENDMDL
