MODEL 1
REMARK VINA RESULT:      -5.4      0.000      0.000
REMARK  Name = *****
REMARK                            x       y       z     vdW  Elec       q    Type
REMARK                         _______ _______ _______ _____ _____    ______ ____
ROOT
ATOM      1  C   LIG    1       20.643 -29.120  12.622  0.00  0.00    +0.173 A 
ATOM      2  C   LIG    1       19.826 -29.255  13.819  0.00  0.00    +0.206 A 
ATOM      3  C   LIG    1       18.987 -30.427  14.040  0.00  0.00    +0.187 A 
ATOM      4  C   LIG    1       18.896 -31.382  12.988  0.00  0.00    +0.085 A 
ATOM      5  C   LIG    1       19.744 -31.213  11.874  0.00  0.00    +0.094 A 
ATOM      6  C   LIG    1       19.750 -32.004  10.675  0.00  0.00    +0.342 C 
ATOM      7  O   LIG    1       20.730 -31.622   9.880  0.00  0.00    -0.451 OA
ATOM      8  C   LIG    1       21.513 -30.550  10.506  0.00  0.00    +0.233 C 
ATOM      9  O   LIG    1       18.851 -32.876  10.366  0.00  0.00    -0.245 OA
ATOM     10  C   LIG    1       20.672 -30.180  11.708  0.00  0.00    +0.056 A 
ENDROOT
BRANCH   8  11
ATOM     11  C   LIG    1       23.021 -31.131  10.647  0.00  0.00    +0.136 C 
ATOM     12  N   LIG    1       23.401 -31.113  12.107  0.00  0.00    -0.295 NA
ATOM     13  C   LIG    1       23.079 -32.398  12.798  0.00  0.00    +0.105 C 
ATOM     14  C   LIG    1       24.825 -30.824  12.219  0.00  0.00    +0.089 C 
ATOM     15  C   LIG    1       25.152 -29.553  11.410  0.00  0.00    +0.051 C 
ATOM     16  C   LIG    1       24.883 -29.716   9.933  0.00  0.00    -0.034 A 
ATOM     17  C   LIG    1       25.540 -28.974   8.958  0.00  0.00    +0.053 A 
ATOM     18  C   LIG    1       25.269 -29.226   7.626  0.00  0.00    +0.170 A 
ATOM     19  O   LIG    1       25.815 -28.590   6.556  0.00  0.00    -0.453 OA
ATOM     20  C   LIG    1       25.116 -29.234   5.470  0.00  0.00    +0.467 C 
ATOM     21  O   LIG    1       24.370 -30.371   5.883  0.00  0.00    -0.449 OA
ATOM     22  C   LIG    1       24.432 -30.224   7.227  0.00  0.00    +0.208 A 
ATOM     23  C   LIG    1       23.776 -30.988   8.140  0.00  0.00    +0.170 A 
ATOM     24  C   LIG    1       23.910 -30.627   9.527  0.00  0.00    +0.022 A 
BRANCH  23  25
ATOM     25  O   LIG    1       23.215 -32.143   7.685  0.00  0.00    -0.491 OA
ATOM     26  C   LIG    1       23.912 -33.386   7.865  0.00  0.00    +0.277 C 
ENDBRANCH  23  25
ENDBRANCH   8  11
BRANCH   4  27
ATOM     27  N   LIG    1       18.084 -32.547  13.012  0.00  0.00    -0.354 N 
ATOM     28  H   LIG    1       17.114 -32.308  13.195  0.00  0.00    +0.142 HD
ATOM     29  H   LIG    1       18.116 -33.034  12.102  0.00  0.00    +0.142 HD
ENDBRANCH   4  27
BRANCH   1  30
ATOM     30  O   LIG    1       21.361 -27.950  12.545  0.00  0.00    -0.488 OA
BRANCH  30  32
ATOM     31  C   LIG    1       22.750 -26.297  13.410  0.00  0.00    +0.048 C 
ATOM     32  C   LIG    1       22.692 -27.675  12.976  0.00  0.00    +0.226 C 
ENDBRANCH  30  32
ENDBRANCH   1  30
BRANCH   2  33
ATOM     33  O   LIG    1       20.138 -28.493  14.948  0.00  0.00    -0.485 OA
BRANCH  33  34
ATOM     34  C   LIG    1       19.224 -27.543  15.500  0.00  0.00    +0.226 C 
ATOM     35  C   LIG    1       18.848 -26.488  14.464  0.00  0.00    +0.048 C 
ENDBRANCH  33  34
ENDBRANCH   2  33
BRANCH   3  36
ATOM     36  O   LIG    1       18.466 -30.794  15.302  0.00  0.00    -0.487 OA
BRANCH  36  37
ATOM     37  C   LIG    1       17.058 -30.580  15.484  0.00  0.00    +0.226 C 
ATOM     38  C   LIG    1       16.319 -29.539  14.639  0.00  0.00    +0.048 C 
ENDBRANCH  36  37
ENDBRANCH   3  36
TORSDOF 9
ENDMDL
MODEL 2
REMARK VINA RESULT:      -5.0      2.833      3.559
REMARK  Name = *****
REMARK                            x       y       z     vdW  Elec       q    Type
REMARK                         _______ _______ _______ _____ _____    ______ ____
ROOT
ATOM      1  C   LIG    1       23.308 -29.637  12.805  0.00  0.00    +0.173 A 
ATOM      2  C   LIG    1       23.025 -30.293  14.073  0.00  0.00    +0.206 A 
ATOM      3  C   LIG    1       22.276 -31.543  14.133  0.00  0.00    +0.187 A 
ATOM      4  C   LIG    1       21.722 -32.040  12.919  0.00  0.00    +0.085 A 
ATOM      5  C   LIG    1       22.070 -31.381  11.721  0.00  0.00    +0.094 A 
ATOM      6  C   LIG    1       21.556 -31.661  10.410  0.00  0.00    +0.342 C 
ATOM      7  O   LIG    1       22.163 -30.910   9.511  0.00  0.00    -0.451 OA
ATOM      8  C   LIG    1       23.189 -30.075  10.146  0.00  0.00    +0.233 C 
ATOM      9  O   LIG    1       20.560 -32.442  10.163  0.00  0.00    -0.245 OA
ATOM     10  C   LIG    1       22.914 -30.270  11.620  0.00  0.00    +0.056 A 
ENDROOT
BRANCH   8  11
ATOM     11  C   LIG    1       24.594 -30.507   9.460  0.00  0.00    +0.136 C 
ATOM     12  N   LIG    1       25.488 -31.081  10.532  0.00  0.00    -0.295 NA
ATOM     13  C   LIG    1       25.350 -32.563  10.660  0.00  0.00    +0.105 C 
ATOM     14  C   LIG    1       26.870 -30.727  10.231  0.00  0.00    +0.089 C 
ATOM     15  C   LIG    1       26.967 -29.207   9.997  0.00  0.00    +0.051 C 
ATOM     16  C   LIG    1       26.159 -28.745   8.808  0.00  0.00    -0.034 A 
ATOM     17  C   LIG    1       26.462 -27.595   8.089  0.00  0.00    +0.053 A 
ATOM     18  C   LIG    1       25.699 -27.276   6.980  0.00  0.00    +0.170 A 
ATOM     19  O   LIG    1       25.856 -26.191   6.177  0.00  0.00    -0.453 OA
ATOM     20  C   LIG    1       24.759 -26.372   5.257  0.00  0.00    +0.467 C 
ATOM     21  O   LIG    1       24.136 -27.645   5.374  0.00  0.00    -0.449 OA
ATOM     22  C   LIG    1       24.702 -28.084   6.523  0.00  0.00    +0.208 A 
ATOM     23  C   LIG    1       24.376 -29.227   7.182  0.00  0.00    +0.170 A 
ATOM     24  C   LIG    1       25.040 -29.485   8.432  0.00  0.00    +0.022 A 
BRANCH  23  25
ATOM     25  O   LIG    1       23.602 -30.124   6.510  0.00  0.00    -0.491 OA
ATOM     26  C   LIG    1       24.213 -31.283   5.921  0.00  0.00    +0.277 C 
ENDBRANCH  23  25
ENDBRANCH   8  11
BRANCH   4  27
ATOM     27  N   LIG    1       20.921 -33.207  12.805  0.00  0.00    -0.354 N 
ATOM     28  H   LIG    1       20.059 -33.106  13.332  0.00  0.00    +0.142 HD
ATOM     29  H   LIG    1       20.663 -33.379  11.820  0.00  0.00    +0.142 HD
ENDBRANCH   4  27
BRANCH   1  30
ATOM     30  O   LIG    1       24.004 -28.456  12.913  0.00  0.00    -0.488 OA
BRANCH  30  32
ATOM     31  C   LIG    1       25.682 -26.847  12.998  0.00  0.00    +0.048 C 
ATOM     32  C   LIG    1       25.304 -28.124  12.432  0.00  0.00    +0.226 C 
ENDBRANCH  30  32
ENDBRANCH   1  30
BRANCH   2  33
ATOM     33  O   LIG    1       23.801 -29.981  15.192  0.00  0.00    -0.485 OA
BRANCH  33  34
ATOM     34  C   LIG    1       25.077 -30.580  15.423  0.00  0.00    +0.226 C 
ATOM     35  C   LIG    1       26.169 -29.517  15.500  0.00  0.00    +0.048 C 
ENDBRANCH  33  34
ENDBRANCH   2  33
BRANCH   3  36
ATOM     36  O   LIG    1       22.275 -32.408  15.251  0.00  0.00    -0.487 OA
BRANCH  36  37
ATOM     37  C   LIG    1       22.920 -33.676  15.064  0.00  0.00    +0.226 C 
ATOM     38  C   LIG    1       24.315 -33.748  14.436  0.00  0.00    +0.048 C 
ENDBRANCH  36  37
ENDBRANCH   3  36
TORSDOF 9
ENDMDL
MODEL 3
REMARK VINA RESULT:      -4.9      2.201      8.132
REMARK  Name = *****
REMARK                            x       y       z     vdW  Elec       q    Type
REMARK                         _______ _______ _______ _____ _____    ______ ____
ROOT
ATOM      1  C   LIG    1       23.180 -30.799   9.905  0.00  0.00    +0.173 A 
ATOM      2  C   LIG    1       24.059 -31.563   9.031  0.00  0.00    +0.206 A 
ATOM      3  C   LIG    1       25.510 -31.464   9.136  0.00  0.00    +0.187 A 
ATOM      4  C   LIG    1       26.043 -30.501  10.040  0.00  0.00    +0.085 A 
ATOM      5  C   LIG    1       25.140 -29.826  10.886  0.00  0.00    +0.094 A 
ATOM      6  C   LIG    1       25.454 -28.763  11.799  0.00  0.00    +0.342 C 
ATOM      7  O   LIG    1       24.384 -28.423  12.492  0.00  0.00    -0.451 OA
ATOM      8  C   LIG    1       23.245 -29.276  12.131  0.00  0.00    +0.233 C 
ATOM      9  O   LIG    1       26.585 -28.145  11.846  0.00  0.00    -0.245 OA
ATOM     10  C   LIG    1       23.754 -30.015  10.913  0.00  0.00    +0.056 A 
ENDROOT
BRANCH   8  11
ATOM     11  C   LIG    1       22.818 -30.041  13.496  0.00  0.00    +0.136 C 
ATOM     12  N   LIG    1       23.217 -31.491  13.371  0.00  0.00    -0.295 NA
ATOM     13  C   LIG    1       24.584 -31.756  13.914  0.00  0.00    +0.105 C 
ATOM     14  C   LIG    1       22.232 -32.312  14.064  0.00  0.00    +0.089 C 
ATOM     15  C   LIG    1       20.820 -31.943  13.565  0.00  0.00    +0.051 C 
ATOM     16  C   LIG    1       20.447 -30.512  13.869  0.00  0.00    -0.034 A 
ATOM     17  C   LIG    1       19.131 -30.087  14.005  0.00  0.00    +0.053 A 
ATOM     18  C   LIG    1       18.883 -28.767  14.337  0.00  0.00    +0.170 A 
ATOM     19  O   LIG    1       17.663 -28.191  14.500  0.00  0.00    -0.453 OA
ATOM     20  C   LIG    1       18.041 -26.825  14.774  0.00  0.00    +0.467 C 
ATOM     21  O   LIG    1       19.435 -26.667  15.002  0.00  0.00    -0.449 OA
ATOM     22  C   LIG    1       19.882 -27.881  14.606  0.00  0.00    +0.208 A 
ATOM     23  C   LIG    1       21.186 -28.252  14.502  0.00  0.00    +0.170 A 
ATOM     24  C   LIG    1       21.464 -29.567  13.988  0.00  0.00    +0.022 A 
BRANCH  23  25
ATOM     25  O   LIG    1       22.106 -27.428  15.076  0.00  0.00    -0.491 OA
ATOM     26  C   LIG    1       22.651 -26.338  14.315  0.00  0.00    +0.277 C 
ENDBRANCH  23  25
ENDBRANCH   8  11
BRANCH   4  27
ATOM     27  N   LIG    1       27.426 -30.233  10.224  0.00  0.00    -0.354 N 
ATOM     28  H   LIG    1       27.586 -29.240  10.359  0.00  0.00    +0.142 HD
ATOM     29  H   LIG    1       27.784 -30.722  11.061  0.00  0.00    +0.142 HD
ENDBRANCH   4  27
BRANCH   1  30
ATOM     30  O   LIG    1       21.837 -30.980   9.670  0.00  0.00    -0.488 OA
BRANCH  30  32
ATOM     31  C   LIG    1       19.598 -31.124  10.279  0.00  0.00    +0.048 C 
ATOM     32  C   LIG    1       20.890 -31.763  10.392  0.00  0.00    +0.226 C 
ENDBRANCH  30  32
ENDBRANCH   1  30
BRANCH   2  33
ATOM     33  O   LIG    1       23.559 -32.692   8.378  0.00  0.00    -0.485 OA
BRANCH  33  34
ATOM     34  C   LIG    1       23.219 -32.679   6.990  0.00  0.00    +0.226 C 
ATOM     35  C   LIG    1       23.909 -33.824   6.253  0.00  0.00    +0.048 C 
ENDBRANCH  33  34
ENDBRANCH   2  33
BRANCH   3  36
ATOM     36  O   LIG    1       26.404 -32.415   8.594  0.00  0.00    -0.487 OA
BRANCH  36  37
ATOM     37  C   LIG    1       26.872 -32.148   7.264  0.00  0.00    +0.226 C 
ATOM     38  C   LIG    1       27.771 -33.158   6.544  0.00  0.00    +0.048 C 
ENDBRANCH  36  37
ENDBRANCH   3  36
TORSDOF 9
ENDMDL
MODEL 4
REMARK VINA RESULT:      -4.8      3.009      4.889
REMARK  Name = *****
REMARK                            x       y       z     vdW  Elec       q    Type
REMARK                         _______ _______ _______ _____ _____    ______ ____
ROOT
ATOM      1  C   LIG    1       23.236 -29.658  12.037  0.00  0.00    +0.173 A 
ATOM      2  C   LIG    1       22.968 -28.684  13.084  0.00  0.00    +0.206 A 
ATOM      3  C   LIG    1       23.833 -28.565  14.252  0.00  0.00    +0.187 A 
ATOM      4  C   LIG    1       24.881 -29.518  14.399  0.00  0.00    +0.085 A 
ATOM      5  C   LIG    1       25.112 -30.408  13.329  0.00  0.00    +0.094 A 
ATOM      6  C   LIG    1       26.050 -31.495  13.307  0.00  0.00    +0.342 C 
ATOM      7  O   LIG    1       26.064 -32.064  12.117  0.00  0.00    -0.451 OA
ATOM      8  C   LIG    1       25.151 -31.367  11.203  0.00  0.00    +0.233 C 
ATOM      9  O   LIG    1       26.694 -31.930  14.337  0.00  0.00    -0.245 OA
ATOM     10  C   LIG    1       24.394 -30.440  12.128  0.00  0.00    +0.056 A 
ENDROOT
BRANCH   8  11
ATOM     11  C   LIG    1       26.076 -30.818   9.990  0.00  0.00    +0.136 C 
ATOM     12  N   LIG    1       26.600 -29.456  10.373  0.00  0.00    -0.295 NA
ATOM     13  C   LIG    1       27.926 -29.524  11.058  0.00  0.00    +0.105 C 
ATOM     14  C   LIG    1       26.694 -28.634   9.173  0.00  0.00    +0.089 C 
ATOM     15  C   LIG    1       25.346 -28.666   8.426  0.00  0.00    +0.051 C 
ATOM     16  C   LIG    1       24.976 -30.049   7.946  0.00  0.00    -0.034 A 
ATOM     17  C   LIG    1       24.141 -30.274   6.858  0.00  0.00    +0.053 A 
ATOM     18  C   LIG    1       23.898 -31.574   6.455  0.00  0.00    +0.170 A 
ATOM     19  O   LIG    1       23.105 -31.965   5.424  0.00  0.00    -0.453 OA
ATOM     20  C   LIG    1       23.201 -33.401   5.534  0.00  0.00    +0.467 C 
ATOM     21  O   LIG    1       24.208 -33.824   6.445  0.00  0.00    -0.449 OA
ATOM     22  C   LIG    1       24.502 -32.645   7.041  0.00  0.00    +0.208 A 
ATOM     23  C   LIG    1       25.340 -32.478   8.098  0.00  0.00    +0.170 A 
ATOM     24  C   LIG    1       25.467 -31.152   8.642  0.00  0.00    +0.022 A 
BRANCH  23  25
ATOM     25  O   LIG    1       26.136 -33.535   8.425  0.00  0.00    -0.491 OA
ATOM     26  C   LIG    1       27.355 -33.753   7.696  0.00  0.00    +0.277 C 
ENDBRANCH  23  25
ENDBRANCH   8  11
BRANCH   4  27
ATOM     27  N   LIG    1       25.775 -29.585  15.500  0.00  0.00    -0.354 N 
ATOM     28  H   LIG    1       25.354 -29.184  16.332  0.00  0.00    +0.142 HD
ATOM     29  H   LIG    1       26.016 -30.566  15.716  0.00  0.00    +0.142 HD
ENDBRANCH   4  27
BRANCH   1  30
ATOM     30  O   LIG    1       22.320 -29.665  11.011  0.00  0.00    -0.488 OA
BRANCH  30  32
ATOM     31  C   LIG    1       20.335 -30.842  10.722  0.00  0.00    +0.048 C 
ATOM     32  C   LIG    1       21.727 -30.771  10.335  0.00  0.00    +0.226 C 
ENDBRANCH  30  32
ENDBRANCH   1  30
BRANCH   2  33
ATOM     33  O   LIG    1       22.151 -27.586  12.803  0.00  0.00    -0.485 OA
BRANCH  33  34
ATOM     34  C   LIG    1       21.093 -27.184  13.675  0.00  0.00    +0.226 C 
ATOM     35  C   LIG    1       20.031 -26.398  12.911  0.00  0.00    +0.048 C 
ENDBRANCH  33  34
ENDBRANCH   2  33
BRANCH   3  36
ATOM     36  O   LIG    1       23.854 -27.437  15.105  0.00  0.00    -0.487 OA
BRANCH  36  37
ATOM     37  C   LIG    1       24.834 -26.436  14.794  0.00  0.00    +0.226 C 
ATOM     38  C   LIG    1       24.552 -25.388  13.713  0.00  0.00    +0.048 C 
ENDBRANCH  36  37
ENDBRANCH   3  36
TORSDOF 9
ENDMDL
MODEL 5
REMARK VINA RESULT:      -4.6      2.408      4.773
REMARK  Name = *****
REMARK                            x       y       z     vdW  Elec       q    Type
REMARK                         _______ _______ _______ _____ _____    ______ ____
ROOT
ATOM      1  C   LIG    1       22.850 -31.363  11.374  0.00  0.00    +0.173 A 
ATOM      2  C   LIG    1       21.798 -30.559  11.979  0.00  0.00    +0.206 A 
ATOM      3  C   LIG    1       22.051 -29.736  13.156  0.00  0.00    +0.187 A 
ATOM      4  C   LIG    1       23.330 -29.839  13.772  0.00  0.00    +0.085 A 
ATOM      5  C   LIG    1       24.316 -30.602  13.112  0.00  0.00    +0.094 A 
ATOM      6  C   LIG    1       25.632 -30.905  13.600  0.00  0.00    +0.342 C 
ATOM      7  O   LIG    1       26.317 -31.568  12.688  0.00  0.00    -0.451 OA
ATOM      8  C   LIG    1       25.521 -31.731  11.465  0.00  0.00    +0.233 C 
ATOM      9  O   LIG    1       26.041 -30.674  14.801  0.00  0.00    -0.245 OA
ATOM     10  C   LIG    1       24.145 -31.276  11.898  0.00  0.00    +0.056 A 
ENDROOT
BRANCH   8  11
ATOM     11  C   LIG    1       26.355 -30.982  10.294  0.00  0.00    +0.136 C 
ATOM     12  N   LIG    1       26.820 -29.647  10.823  0.00  0.00    -0.295 NA
ATOM     13  C   LIG    1       28.179 -29.718  11.439  0.00  0.00    +0.105 C 
ATOM     14  C   LIG    1       26.811 -28.679   9.733  0.00  0.00    +0.089 C 
ATOM     15  C   LIG    1       25.432 -28.702   9.043  0.00  0.00    +0.051 C 
ATOM     16  C   LIG    1       25.117 -30.035   8.409  0.00  0.00    -0.034 A 
ATOM     17  C   LIG    1       24.244 -30.175   7.337  0.00  0.00    +0.053 A 
ATOM     18  C   LIG    1       24.055 -31.429   6.784  0.00  0.00    +0.170 A 
ATOM     19  O   LIG    1       23.236 -31.737   5.745  0.00  0.00    -0.453 OA
ATOM     20  C   LIG    1       23.418 -33.167   5.670  0.00  0.00    +0.467 C 
ATOM     21  O   LIG    1       24.489 -33.637   6.478  0.00  0.00    -0.449 OA
ATOM     22  C   LIG    1       24.746 -32.525   7.205  0.00  0.00    +0.208 A 
ATOM     23  C   LIG    1       25.623 -32.438   8.240  0.00  0.00    +0.170 A 
ATOM     24  C   LIG    1       25.702 -31.183   8.940  0.00  0.00    +0.022 A 
BRANCH  23  25
ATOM     25  O   LIG    1       26.490 -33.476   8.399  0.00  0.00    -0.491 OA
ATOM     26  C   LIG    1       27.730 -33.478   7.673  0.00  0.00    +0.277 C 
ENDBRANCH  23  25
ENDBRANCH   8  11
BRANCH   4  27
ATOM     27  N   LIG    1       23.724 -29.157  14.954  0.00  0.00    -0.354 N 
ATOM     28  H   LIG    1       24.465 -28.491  14.757  0.00  0.00    +0.142 HD
ATOM     29  H   LIG    1       22.931 -28.629  15.352  0.00  0.00    +0.142 HD
ENDBRANCH   4  27
BRANCH   1  30
ATOM     30  O   LIG    1       22.453 -32.102  10.284  0.00  0.00    -0.488 OA
BRANCH  30  32
ATOM     31  C   LIG    1       21.648 -33.795   8.909  0.00  0.00    +0.048 C 
ATOM     32  C   LIG    1       22.366 -33.516  10.133  0.00  0.00    +0.226 C 
ENDBRANCH  30  32
ENDBRANCH   1  30
BRANCH   2  33
ATOM     33  O   LIG    1       20.669 -30.232  11.224  0.00  0.00    -0.485 OA
BRANCH  33  34
ATOM     34  C   LIG    1       19.554 -31.119  11.102  0.00  0.00    +0.226 C 
ATOM     35  C   LIG    1       18.795 -31.219  12.422  0.00  0.00    +0.048 C 
ENDBRANCH  33  34
ENDBRANCH   2  33
BRANCH   3  36
ATOM     36  O   LIG    1       21.210 -28.678  13.572  0.00  0.00    -0.487 OA
BRANCH  36  37
ATOM     37  C   LIG    1       21.341 -27.450  12.842  0.00  0.00    +0.226 C 
ATOM     38  C   LIG    1       22.355 -26.391  13.285  0.00  0.00    +0.048 C 
ENDBRANCH  36  37
ENDBRANCH   3  36
TORSDOF 9
ENDMDL
MODEL 6
REMARK VINA RESULT:      -4.6      3.307      7.226
REMARK  Name = *****
REMARK                            x       y       z     vdW  Elec       q    Type
REMARK                         _______ _______ _______ _____ _____    ______ ____
ROOT
ATOM      1  C   LIG    1       25.578 -29.416  10.302  0.00  0.00    +0.173 A 
ATOM      2  C   LIG    1       25.127 -29.420   8.918  0.00  0.00    +0.206 A 
ATOM      3  C   LIG    1       24.317 -30.509   8.385  0.00  0.00    +0.187 A 
ATOM      4  C   LIG    1       24.084 -31.633   9.228  0.00  0.00    +0.085 A 
ATOM      5  C   LIG    1       24.512 -31.546  10.569  0.00  0.00    +0.094 A 
ATOM      6  C   LIG    1       24.456 -32.590  11.554  0.00  0.00    +0.342 C 
ATOM      7  O   LIG    1       24.862 -32.136  12.725  0.00  0.00    -0.451 OA
ATOM      8  C   LIG    1       25.189 -30.708  12.638  0.00  0.00    +0.233 C 
ATOM      9  O   LIG    1       24.171 -33.822  11.303  0.00  0.00    -0.245 OA
ATOM     10  C   LIG    1       25.155 -30.447  11.148  0.00  0.00    +0.056 A 
ENDROOT
BRANCH   8  11
ATOM     11  C   LIG    1       24.188 -29.963  13.673  0.00  0.00    +0.136 C 
ATOM     12  N   LIG    1       22.778 -30.413  13.375  0.00  0.00    -0.295 NA
ATOM     13  C   LIG    1       22.374 -31.602  14.185  0.00  0.00    +0.105 C 
ATOM     14  C   LIG    1       21.868 -29.302  13.621  0.00  0.00    +0.089 C 
ATOM     15  C   LIG    1       22.366 -28.057  12.861  0.00  0.00    +0.051 C 
ATOM     16  C   LIG    1       23.721 -27.587  13.332  0.00  0.00    -0.034 A 
ATOM     17  C   LIG    1       24.150 -26.271  13.209  0.00  0.00    +0.053 A 
ATOM     18  C   LIG    1       25.387 -25.917  13.717  0.00  0.00    +0.170 A 
ATOM     19  O   LIG    1       25.956 -24.684  13.672  0.00  0.00    -0.453 OA
ATOM     20  C   LIG    1       27.231 -24.949  14.293  0.00  0.00    +0.467 C 
ATOM     21  O   LIG    1       27.302 -26.235  14.895  0.00  0.00    -0.449 OA
ATOM     22  C   LIG    1       26.175 -26.795  14.397  0.00  0.00    +0.208 A 
ATOM     23  C   LIG    1       25.795 -28.090  14.559  0.00  0.00    +0.170 A 
ATOM     24  C   LIG    1       24.596 -28.519  13.888  0.00  0.00    +0.022 A 
BRANCH  23  25
ATOM     25  O   LIG    1       26.465 -28.815  15.497  0.00  0.00    -0.491 OA
ATOM     26  C   LIG    1       27.618 -29.580  15.109  0.00  0.00    +0.277 C 
ENDBRANCH  23  25
ENDBRANCH   8  11
BRANCH   4  27
ATOM     27  N   LIG    1       23.369 -32.801   8.851  0.00  0.00    -0.354 N 
ATOM     28  H   LIG    1       23.771 -33.217   8.017  0.00  0.00    +0.142 HD
ATOM     29  H   LIG    1       23.408 -33.510   9.601  0.00  0.00    +0.142 HD
ENDBRANCH   4  27
BRANCH   1  30
ATOM     30  O   LIG    1       26.352 -28.333  10.650  0.00  0.00    -0.488 OA
BRANCH  30  32
ATOM     31  C   LIG    1       28.305 -29.470  11.201  0.00  0.00    +0.048 C 
ATOM     32  C   LIG    1       27.523 -28.281  11.461  0.00  0.00    +0.226 C 
ENDBRANCH  30  32
ENDBRANCH   1  30
BRANCH   2  33
ATOM     33  O   LIG    1       25.098 -28.218   8.206  0.00  0.00    -0.485 OA
BRANCH  33  34
ATOM     34  C   LIG    1       26.120 -27.863   7.273  0.00  0.00    +0.226 C 
ATOM     35  C   LIG    1       25.875 -26.468   6.705  0.00  0.00    +0.048 C 
ENDBRANCH  33  34
ENDBRANCH   2  33
BRANCH   3  36
ATOM     36  O   LIG    1       23.555 -30.415   7.198  0.00  0.00    -0.487 OA
BRANCH  36  37
ATOM     37  C   LIG    1       24.228 -30.794   5.989  0.00  0.00    +0.226 C 
ATOM     38  C   LIG    1       25.647 -31.368   6.042  0.00  0.00    +0.048 C 
ENDBRANCH  36  37
ENDBRANCH   3  36
TORSDOF 9
ENDMDL
MODEL 7
REMARK VINA RESULT:      -4.4      3.742      7.687
REMARK  Name = *****
REMARK                            x       y       z     vdW  Elec       q    Type
REMARK                         _______ _______ _______ _____ _____    ______ ____
ROOT
ATOM      1  C   LIG    1       25.752 -29.297   8.459  0.00  0.00    +0.173 A 
ATOM      2  C   LIG    1       25.478 -28.498   7.273  0.00  0.00    +0.206 A 
ATOM      3  C   LIG    1       25.161 -29.120   5.993  0.00  0.00    +0.187 A 
ATOM      4  C   LIG    1       25.248 -30.539   5.908  0.00  0.00    +0.085 A 
ATOM      5  C   LIG    1       25.475 -31.254   7.102  0.00  0.00    +0.094 A 
ATOM      6  C   LIG    1       25.684 -32.670   7.224  0.00  0.00    +0.342 C 
ATOM      7  O   LIG    1       25.780 -33.010   8.495  0.00  0.00    -0.451 OA
ATOM      8  C   LIG    1       25.595 -31.836   9.357  0.00  0.00    +0.233 C 
ATOM      9  O   LIG    1       25.875 -33.472   6.233  0.00  0.00    -0.245 OA
ATOM     10  C   LIG    1       25.629 -30.689   8.372  0.00  0.00    +0.056 A 
ENDROOT
BRANCH   8  11
ATOM     11  C   LIG    1       24.294 -32.161  10.269  0.00  0.00    +0.136 C 
ATOM     12  N   LIG    1       23.117 -32.386   9.351  0.00  0.00    -0.295 NA
ATOM     13  C   LIG    1       22.944 -33.825   8.986  0.00  0.00    +0.105 C 
ATOM     14  C   LIG    1       21.913 -31.882   9.998  0.00  0.00    +0.089 C 
ATOM     15  C   LIG    1       22.152 -30.432  10.463  0.00  0.00    +0.051 C 
ATOM     16  C   LIG    1       23.248 -30.322  11.496  0.00  0.00    -0.034 A 
ATOM     17  C   LIG    1       23.314 -29.287  12.422  0.00  0.00    +0.053 A 
ATOM     18  C   LIG    1       24.323 -29.295  13.367  0.00  0.00    +0.170 A 
ATOM     19  O   LIG    1       24.533 -28.361  14.331  0.00  0.00    -0.453 OA
ATOM     20  C   LIG    1       25.733 -28.873  14.950  0.00  0.00    +0.467 C 
ATOM     21  O   LIG    1       26.068 -30.185  14.517  0.00  0.00    -0.449 OA
ATOM     22  C   LIG    1       25.218 -30.317  13.471  0.00  0.00    +0.208 A 
ATOM     23  C   LIG    1       25.188 -31.360  12.601  0.00  0.00    +0.170 A 
ATOM     24  C   LIG    1       24.258 -31.282  11.505  0.00  0.00    +0.022 A 
BRANCH  23  25
ATOM     25  O   LIG    1       25.893 -32.472  12.948  0.00  0.00    -0.491 OA
ATOM     26  C   LIG    1       25.237 -33.527  13.671  0.00  0.00    +0.277 C 
ENDBRANCH  23  25
ENDBRANCH   8  11
BRANCH   4  27
ATOM     27  N   LIG    1       25.030 -31.300   4.729  0.00  0.00    -0.354 N 
ATOM     28  H   LIG    1       25.086 -32.294   4.925  0.00  0.00    +0.142 HD
ATOM     29  H   LIG    1       24.090 -31.114   4.342  0.00  0.00    +0.142 HD
ENDBRANCH   4  27
BRANCH   1  30
ATOM     30  O   LIG    1       26.057 -28.569   9.585  0.00  0.00    -0.488 OA
BRANCH  30  32
ATOM     31  C   LIG    1       27.020 -27.711  11.520  0.00  0.00    +0.048 C 
ATOM     32  C   LIG    1       27.092 -28.774  10.543  0.00  0.00    +0.226 C 
ENDBRANCH  30  32
ENDBRANCH   1  30
BRANCH   2  33
ATOM     33  O   LIG    1       25.106 -27.160   7.423  0.00  0.00    -0.485 OA
BRANCH  33  34
ATOM     34  C   LIG    1       26.031 -26.088   7.228  0.00  0.00    +0.226 C 
ATOM     35  C   LIG    1       25.311 -24.834   6.741  0.00  0.00    +0.048 C 
ENDBRANCH  33  34
ENDBRANCH   2  33
BRANCH   3  36
ATOM     36  O   LIG    1       24.543 -28.439   4.920  0.00  0.00    -0.487 OA
BRANCH  36  37
ATOM     37  C   LIG    1       25.349 -27.457   4.253  0.00  0.00    +0.226 C 
ATOM     38  C   LIG    1       26.877 -27.535   4.322  0.00  0.00    +0.048 C 
ENDBRANCH  36  37
ENDBRANCH   3  36
TORSDOF 9
ENDMDL
MODEL 8
REMARK VINA RESULT:      -4.3      2.045      3.469
REMARK  Name = *****
REMARK                            x       y       z     vdW  Elec       q    Type
REMARK                         _______ _______ _______ _____ _____    ______ ____
ROOT
ATOM      1  C   LIG    1       21.101 -29.032  12.891  0.00  0.00    +0.173 A 
ATOM      2  C   LIG    1       19.920 -29.158  13.732  0.00  0.00    +0.206 A 
ATOM      3  C   LIG    1       18.914 -30.184  13.483  0.00  0.00    +0.187 A 
ATOM      4  C   LIG    1       19.061 -30.983  12.313  0.00  0.00    +0.085 A 
ATOM      5  C   LIG    1       20.248 -30.839  11.566  0.00  0.00    +0.094 A 
ATOM      6  C   LIG    1       20.556 -31.477  10.316  0.00  0.00    +0.342 C 
ATOM      7  O   LIG    1       21.787 -31.183   9.943  0.00  0.00    -0.451 OA
ATOM      8  C   LIG    1       22.443 -30.342  10.951  0.00  0.00    +0.233 C 
ATOM      9  O   LIG    1       19.710 -32.139   9.602  0.00  0.00    -0.245 OA
ATOM     10  C   LIG    1       21.302 -29.970  11.871  0.00  0.00    +0.056 A 
ENDROOT
BRANCH   8  11
ATOM     11  C   LIG    1       23.729 -31.189  11.460  0.00  0.00    +0.136 C 
ATOM     12  N   LIG    1       23.244 -32.521  11.978  0.00  0.00    -0.295 NA
ATOM     13  C   LIG    1       23.244 -33.579  10.924  0.00  0.00    +0.105 C 
ATOM     14  C   LIG    1       24.086 -32.925  13.098  0.00  0.00    +0.089 C 
ATOM     15  C   LIG    1       24.157 -31.775  14.123  0.00  0.00    +0.051 C 
ATOM     16  C   LIG    1       24.797 -30.528  13.559  0.00  0.00    -0.034 A 
ATOM     17  C   LIG    1       25.435 -29.581  14.351  0.00  0.00    +0.053 A 
ATOM     18  C   LIG    1       26.040 -28.496  13.744  0.00  0.00    +0.170 A 
ATOM     19  O   LIG    1       26.695 -27.483  14.370  0.00  0.00    -0.453 OA
ATOM     20  C   LIG    1       27.043 -26.647  13.245  0.00  0.00    +0.467 C 
ATOM     21  O   LIG    1       26.811 -27.276  11.991  0.00  0.00    -0.449 OA
ATOM     22  C   LIG    1       26.096 -28.353  12.391  0.00  0.00    +0.208 A 
ATOM     23  C   LIG    1       25.501 -29.259  11.571  0.00  0.00    +0.170 A 
ATOM     24  C   LIG    1       24.719 -30.298  12.187  0.00  0.00    +0.022 A 
BRANCH  23  25
ATOM     25  O   LIG    1       25.858 -29.226  10.257  0.00  0.00    -0.491 OA
ATOM     26  C   LIG    1       26.972 -30.013   9.807  0.00  0.00    +0.277 C 
ENDBRANCH  23  25
ENDBRANCH   8  11
BRANCH   4  27
ATOM     27  N   LIG    1       18.147 -31.985  11.889  0.00  0.00    -0.354 N 
ATOM     28  H   LIG    1       18.013 -32.682  12.614  0.00  0.00    +0.142 HD
ATOM     29  H   LIG    1       17.224 -31.572  11.681  0.00  0.00    +0.142 HD
ENDBRANCH   4  27
BRANCH   1  30
ATOM     30  O   LIG    1       21.946 -28.004  13.237  0.00  0.00    -0.488 OA
BRANCH  30  32
ATOM     31  C   LIG    1       22.981 -25.938  13.502  0.00  0.00    +0.048 C 
ATOM     32  C   LIG    1       21.743 -26.596  13.146  0.00  0.00    +0.226 C 
ENDBRANCH  30  32
ENDBRANCH   1  30
BRANCH   2  33
ATOM     33  O   LIG    1       19.929 -28.596  15.010  0.00  0.00    -0.485 OA
BRANCH  33  34
ATOM     34  C   LIG    1       18.846 -27.801  15.499  0.00  0.00    +0.226 C 
ATOM     35  C   LIG    1       18.543 -26.652  14.542  0.00  0.00    +0.048 C 
ENDBRANCH  33  34
ENDBRANCH   2  33
BRANCH   3  36
ATOM     36  O   LIG    1       17.957 -30.597  14.438  0.00  0.00    -0.487 OA
BRANCH  36  37
ATOM     37  C   LIG    1       18.397 -31.587  15.379  0.00  0.00    +0.226 C 
ATOM     38  C   LIG    1       18.084 -33.068  15.146  0.00  0.00    +0.048 C 
ENDBRANCH  36  37
ENDBRANCH   3  36
TORSDOF 9
ENDMDL
MODEL 9
REMARK VINA RESULT:      -4.2      3.939      8.032
REMARK  Name = *****
REMARK                            x       y       z     vdW  Elec       q    Type
REMARK                         _______ _______ _______ _____ _____    ______ ____
ROOT
ATOM      1  C   LIG    1       25.644 -29.916   7.504  0.00  0.00    +0.173 A 
ATOM      2  C   LIG    1       25.456 -30.155   6.080  0.00  0.00    +0.206 A 
ATOM      3  C   LIG    1       25.848 -31.416   5.462  0.00  0.00    +0.187 A 
ATOM      4  C   LIG    1       26.536 -32.364   6.273  0.00  0.00    +0.085 A 
ATOM      5  C   LIG    1       26.647 -32.089   7.652  0.00  0.00    +0.094 A 
ATOM      6  C   LIG    1       27.371 -32.860   8.623  0.00  0.00    +0.342 C 
ATOM      7  O   LIG    1       27.190 -32.362   9.831  0.00  0.00    -0.451 OA
ATOM      8  C   LIG    1       26.274 -31.216   9.782  0.00  0.00    +0.233 C 
ATOM      9  O   LIG    1       28.180 -33.824   8.340  0.00  0.00    -0.245 OA
ATOM     10  C   LIG    1       26.141 -30.956   8.299  0.00  0.00    +0.056 A 
ENDROOT
BRANCH   8  11
ATOM     11  C   LIG    1       25.007 -31.626  10.709  0.00  0.00    +0.136 C 
ATOM     12  N   LIG    1       23.887 -32.082   9.806  0.00  0.00    -0.295 NA
ATOM     13  C   LIG    1       23.908 -33.557   9.569  0.00  0.00    +0.105 C 
ATOM     14  C   LIG    1       22.615 -31.684  10.396  0.00  0.00    +0.089 C 
ATOM     15  C   LIG    1       22.657 -30.180  10.731  0.00  0.00    +0.051 C 
ATOM     16  C   LIG    1       23.709 -29.839  11.759  0.00  0.00    -0.034 A 
ATOM     17  C   LIG    1       23.623 -28.727  12.589  0.00  0.00    +0.053 A 
ATOM     18  C   LIG    1       24.607 -28.521  13.540  0.00  0.00    +0.170 A 
ATOM     19  O   LIG    1       24.676 -27.487  14.418  0.00  0.00    -0.453 OA
ATOM     20  C   LIG    1       25.920 -27.783  15.090  0.00  0.00    +0.467 C 
ATOM     21  O   LIG    1       26.429 -29.073  14.778  0.00  0.00    -0.449 OA
ATOM     22  C   LIG    1       25.624 -29.405  13.742  0.00  0.00    +0.208 A 
ATOM     23  C   LIG    1       25.744 -30.515  12.967  0.00  0.00    +0.170 A 
ATOM     24  C   LIG    1       24.834 -30.655  11.861  0.00  0.00    +0.022 A 
BRANCH  23  25
ATOM     25  O   LIG    1       26.580 -31.492  13.418  0.00  0.00    -0.491 OA
ATOM     26  C   LIG    1       26.057 -32.539  14.252  0.00  0.00    +0.277 C 
ENDBRANCH  23  25
ENDBRANCH   8  11
BRANCH   4  27
ATOM     27  N   LIG    1       27.039 -33.613   5.820  0.00  0.00    -0.354 N 
ATOM     28  H   LIG    1       27.718 -33.988   6.475  0.00  0.00    +0.142 HD
ATOM     29  H   LIG    1       26.276 -34.304   5.735  0.00  0.00    +0.142 HD
ENDBRANCH   4  27
BRANCH   1  30
ATOM     30  O   LIG    1       25.246 -28.672   7.934  0.00  0.00    -0.488 OA
BRANCH  30  32
ATOM     31  C   LIG    1       26.686 -28.141   9.681  0.00  0.00    +0.048 C 
ATOM     32  C   LIG    1       26.021 -27.622   8.507  0.00  0.00    +0.226 C 
ENDBRANCH  30  32
ENDBRANCH   1  30
BRANCH   2  33
ATOM     33  O   LIG    1       24.538 -29.376   5.372  0.00  0.00    -0.485 OA
BRANCH  33  34
ATOM     34  C   LIG    1       24.920 -28.172   4.703  0.00  0.00    +0.226 C 
ATOM     35  C   LIG    1       24.363 -26.950   5.427  0.00  0.00    +0.048 C 
ENDBRANCH  33  34
ENDBRANCH   2  33
BRANCH   3  36
ATOM     36  O   LIG    1       25.381 -31.854   4.202  0.00  0.00    -0.487 OA
BRANCH  36  37
ATOM     37  C   LIG    1       24.377 -32.879   4.228  0.00  0.00    +0.226 C 
ATOM     38  C   LIG    1       23.421 -32.996   5.420  0.00  0.00    +0.048 C 
ENDBRANCH  36  37
ENDBRANCH   3  36
TORSDOF 9
ENDMDL
