MODEL 1
REMARK VINA RESULT:       8.0      0.000      0.000
REMARK  Name = *****
REMARK                            x       y       z     vdW  Elec       q    Type
REMARK                         _______ _______ _______ _____ _____    ______ ____
ROOT
ATOM      1  C   LIG    1       20.831 -17.701   3.653  0.00  0.00    +0.012 C 
ATOM      2  C   LIG    1       22.347 -17.455   3.671  0.00  0.00    +0.013 C 
ATOM      3  C   LIG    1       23.192 -18.567   4.270  0.00  0.00    -0.053 C 
ATOM      4  C   LIG    1       24.696 -18.397   4.021  0.00  0.00    +0.013 C 
ATOM      5  C   LIG    1       24.953 -18.627   2.515  0.00  0.00    +0.020 C 
ATOM      6  C   LIG    1       25.506 -19.497   4.712  0.00  0.00    -0.012 C 
ATOM      7  C   LIG    1       24.988 -20.510   5.416  0.00  0.00    +0.047 C 
ATOM      8  C   LIG    1       23.532 -20.637   5.584  0.00  0.00    +0.179 C 
ATOM      9  O   LIG    1       23.044 -21.570   6.217  0.00  0.00    -0.288 OA
ATOM     10  C   LIG    1       25.156 -17.010   4.622  0.00  0.00    +0.035 C 
ATOM     11  C   LIG    1       24.137 -15.826   4.619  0.00  0.00    +0.000 C 
ATOM     12  C   LIG    1       24.567 -14.569   3.836  0.00  0.00    +0.002 C 
ATOM     13  C   LIG    1       25.938 -13.976   4.296  0.00  0.00    +0.009 C 
ATOM     14  C   LIG    1       25.749 -13.058   5.532  0.00  0.00    +0.015 C 
ATOM     15  C   LIG    1       26.898 -15.128   4.732  0.00  0.00    +0.042 C 
ATOM     16  C   LIG    1       26.293 -13.100   3.048  0.00  0.00    +0.132 C 
ATOM     17  C   LIG    1       25.917 -13.965   1.852  0.00  0.00    +0.043 C 
ATOM     18  C   LIG    1       24.657 -14.718   2.304  0.00  0.00    +0.007 C 
ATOM     19  C   LIG    1       26.587 -16.550   4.256  0.00  0.00    +0.120 C 
ATOM     20  C   LIG    1       22.681 -19.594   4.975  0.00  0.00    +0.051 C 
ATOM     21  C   LIG    1       22.646 -16.170   4.437  0.00  0.00    +0.012 C 
ENDROOT
BRANCH  16  22
ATOM     22  O   LIG    1       25.330 -11.998   3.007  0.00  0.00    -0.380 OA
ATOM     23  H   LIG    1       25.676 -11.353   2.355  0.00  0.00    +0.211 HD
ENDBRANCH  16  22
BRANCH  16  24
ATOM     24  C   LIG    1       27.641 -12.365   2.871  0.00  0.00    +0.190 C 
ATOM     25  O   LIG    1       27.729 -11.454   2.030  0.00  0.00    -0.292 OA
BRANCH  24  26
ATOM     26  C   LIG    1       28.888 -12.783   3.618  0.00  0.00    +0.233 C 
BRANCH  26  27
ATOM     27  O   LIG    1       29.104 -12.009   4.782  0.00  0.00    -0.387 OA
ATOM     28  H   LIG    1       29.384 -11.125   4.471  0.00  0.00    +0.210 HD
ENDBRANCH  26  27
ENDBRANCH  24  26
ENDBRANCH  16  24
BRANCH  19  29
ATOM     29  O   LIG    1       26.874 -16.642   2.874  0.00  0.00    -0.391 OA
ATOM     30  H   LIG    1       27.818 -16.426   2.744  0.00  0.00    +0.210 HD
ENDBRANCH  19  29
TORSDOF 5
ENDMDL
