MODEL 1
REMARK VINA RESULT:      53.1      0.000      0.000
REMARK  Name = *****
REMARK                            x       y       z     vdW  Elec       q    Type
REMARK                         _______ _______ _______ _____ _____    ______ ____
ROOT
ATOM      1  C   LIG    1       26.724 -19.906   4.737  0.00  0.00    +0.129 C 
ATOM      2  C   LIG    1       26.799 -18.468   4.171  0.00  0.00    +0.061 C 
ATOM      3  C   LIG    1       25.618 -18.063   3.278  0.00  0.00    +0.190 C 
ATOM      4  C   LIG    1       25.690 -16.564   2.942  0.00  0.00    +0.141 C 
ATOM      5  C   LIG    1       26.495 -15.695   3.596  0.00  0.00    +0.047 C 
ATOM      6  C   LIG    1       27.374 -16.095   4.763  0.00  0.00    +0.062 C 
ATOM      7  C   LIG    1       27.462 -14.973   5.834  0.00  0.00    +0.096 C 
ATOM      8  C   LIG    1       28.267 -15.439   7.061  0.00  0.00    +0.047 C 
ATOM      9  C   LIG    1       28.021 -13.729   5.153  0.00  0.00    -0.002 A 
ATOM     10  C   LIG    1       27.577 -13.399   3.853  0.00  0.00    +0.069 A 
ATOM     11  C   LIG    1       28.071 -12.255   3.207  0.00  0.00    +0.128 A 
ATOM     12  C   LIG    1       29.022 -11.451   3.823  0.00  0.00    +0.046 A 
ATOM     13  C   LIG    1       29.475 -11.770   5.099  0.00  0.00    +0.004 A 
ATOM     14  C   LIG    1       28.972 -12.891   5.763  0.00  0.00    +0.007 A 
ATOM     15  C   LIG    1       26.623 -14.282   3.135  0.00  0.00    +0.197 C 
ATOM     16  O   LIG    1       26.021 -13.868   2.145  0.00  0.00    -0.287 OA
ATOM     17  C   LIG    1       24.265 -18.426   3.929  0.00  0.00    +0.210 C 
ATOM     18  O   LIG    1       23.229 -17.805   3.673  0.00  0.00    -0.288 OA
ATOM     19  C   LIG    1       24.196 -19.600   4.860  0.00  0.00    +0.121 C 
ATOM     20  C   LIG    1       26.939 -17.455   5.327  0.00  0.00    +0.020 C 
ATOM     21  C   LIG    1       25.334 -20.182   5.299  0.00  0.00    +0.127 C 
ENDROOT
BRANCH  19  22
ATOM     22  C   LIG    1       22.879 -20.196   5.261  0.00  0.00    +0.252 C 
ATOM     23  N   LIG    1       21.790 -19.417   5.028  0.00  0.00    -0.298 N 
ATOM     24  H   LIG    1       21.917 -18.441   4.772  0.00  0.00    +0.150 HD
ATOM     25  O   LIG    1       22.802 -21.363   5.675  0.00  0.00    -0.270 OA
BRANCH  23  26
ATOM     26  C   LIG    1       20.433 -19.823   5.195  0.00  0.00    +0.192 C 
BRANCH  26  27
ATOM     27  N   LIG    1       19.686 -19.094   4.187  0.00  0.00    -0.287 NA
ATOM     28  C   LIG    1       19.733 -19.710   2.858  0.00  0.00    +0.086 C 
ATOM     29  C   LIG    1       19.771 -18.553   1.862  0.00  0.00    +0.017 C 
ATOM     30  C   LIG    1       19.453 -17.331   2.699  0.00  0.00    +0.017 C 
ATOM     31  C   LIG    1       20.065 -17.687   4.039  0.00  0.00    +0.086 C 
ENDBRANCH  26  27
ENDBRANCH  23  26
ENDBRANCH  19  22
BRANCH   1  33
ATOM     32  C   LIG    1       28.540 -20.934   3.452  0.00  0.00    +0.105 C 
ATOM     33  N   LIG    1       27.107 -21.009   3.803  0.00  0.00    -0.298 NA
ATOM     34  C   LIG    1       26.349 -21.016   2.550  0.00  0.00    +0.105 C 
ENDBRANCH   1  33
BRANCH   3  35
ATOM     35  O   LIG    1       25.671 -18.753   2.026  0.00  0.00    -0.373 OA
ATOM     36  H   LIG    1       26.049 -19.631   2.248  0.00  0.00    +0.211 HD
ENDBRANCH   3  35
BRANCH   4  37
ATOM     37  O   LIG    1       24.958 -16.208   1.812  0.00  0.00    -0.507 OA
ATOM     38  H   LIG    1       25.297 -16.724   1.045  0.00  0.00    +0.292 HD
ENDBRANCH   4  37
BRANCH   7  39
ATOM     39  O   LIG    1       26.145 -14.679   6.311  0.00  0.00    -0.384 OA
ATOM     40  H   LIG    1       26.168 -13.816   6.762  0.00  0.00    +0.211 HD
ENDBRANCH   7  39
BRANCH  11  41
ATOM     41  O   LIG    1       27.681 -11.872   1.952  0.00  0.00    -0.506 OA
ATOM     42  H   LIG    1       27.871 -10.913   1.849  0.00  0.00    +0.292 HD
ENDBRANCH  11  41
BRANCH  21  43
ATOM     43  O   LIG    1       25.353 -21.143   6.310  0.00  0.00    -0.509 OA
ATOM     44  H   LIG    1       24.431 -21.317   6.604  0.00  0.00    +0.292 HD
ENDBRANCH  21  43
TORSDOF 9
ENDMDL
