MODEL 1
REMARK VINA RESULT:      -5.6      0.000      0.000
REMARK  Name = *****
REMARK                            x       y       z     vdW  Elec       q    Type
REMARK                         _______ _______ _______ _____ _____    ______ ____
ROOT
ATOM      1  C   UNK A  0       22.102 -29.762  12.293  0.00  0.00    +0.061 A 
ATOM      2  C   UNK A  0       22.804 -30.410  11.222  0.00  0.00    +0.049 A 
ATOM      3  I   UNK A  0       21.727 -32.047  10.235  0.00  0.00    -0.041 I 
ATOM      4  C   UNK A  0       24.153 -30.081  10.854  0.00  0.00    +0.065 A 
ATOM      5  C   UNK A  0       24.853 -29.194  11.729  0.00  0.00    +0.040 A 
ATOM      6  I   UNK A  0       26.815 -28.355  11.274  0.00  0.00    -0.042 I 
ATOM      7  C   UNK A  0       24.222 -28.641  12.883  0.00  0.00    +0.065 A 
ATOM      8  C   UNK A  0       22.827 -28.821  13.061  0.00  0.00    +0.049 A 
ATOM      9  I   UNK A  0       21.851 -27.133  14.056  0.00  0.00    -0.041 I 
ENDROOT
BRANCH   1  11
ATOM     10  C   UNK A  0       20.053 -30.722  13.459  0.00  0.00    +0.246 C 
ATOM     11  N   UNK A  0       20.699 -30.036  12.444  0.00  0.00    -0.282 N 
ATOM     12  H   UNK A  0       20.116 -29.892  11.617  0.00  0.00    +0.155 HD
ATOM     13  O   UNK A  0       20.611 -31.462  14.279  0.00  0.00    -0.273 OA
BRANCH  10  15
ATOM     14  C   UNK A  0       17.908 -31.236  12.251  0.00  0.00    +0.047 C 
ATOM     15  C   UNK A  0       18.514 -30.552  13.471  0.00  0.00    +0.197 C 
BRANCH  15  16
ATOM     16  O   UNK A  0       18.056 -29.206  13.528  0.00  0.00    -0.383 OA
ATOM     17  H   UNK A  0       18.764 -28.649  13.153  0.00  0.00    +0.210 HD
ENDBRANCH  15  16
ENDBRANCH  10  15
ENDBRANCH   1  11
BRANCH   4  18
ATOM     18  C   UNK A  0       24.743 -30.575   9.532  0.00  0.00    +0.246 C 
ATOM     19  N   SER A  1       24.314 -29.970   8.380  0.00  0.00    -0.304 N 
ATOM     20  H   SER A  1       23.452 -29.422   8.436  0.00  0.00    +0.149 HD
ATOM     21  O   UNK A  0       25.581 -31.471   9.482  0.00  0.00    -0.270 OA
BRANCH  19  22
ATOM     22  CA  SER A  1       24.652 -30.419   7.013  0.00  0.00    +0.124 C 
BRANCH  22  23
ATOM     23  C   SER A  1       24.375 -29.248   6.055  0.00  0.00    +0.180 C 
BRANCH  23  24
ATOM     24  O   SER A  1       23.148 -29.384   5.356  0.00  0.00    -0.393 OA
ATOM     25  H   SER A  1       23.101 -30.296   5.022  0.00  0.00    +0.209 HD
ENDBRANCH  23  24
ENDBRANCH  22  23
BRANCH  22  26
ATOM     26  CB  SER A  1       23.866 -31.673   6.545  0.00  0.00    +0.180 C 
BRANCH  26  27
ATOM     27  OG  SER A  1       24.110 -32.026   5.188  0.00  0.00    -0.393 OA
ATOM     28  H   SER A  1       23.607 -32.839   4.999  0.00  0.00    +0.209 HD
ENDBRANCH  26  27
ENDBRANCH  22  26
ENDBRANCH  19  22
ENDBRANCH   4  18
BRANCH   7  29
ATOM     29  C   UNK A  0       25.001 -27.846  13.898  0.00  0.00    +0.246 C 
ATOM     30  N   SER A  1       25.137 -26.520  13.605  0.00  0.00    -0.304 N 
ATOM     31  H   SER A  1       24.819 -26.159  12.686  0.00  0.00    +0.149 HD
ATOM     32  O   UNK A  0       25.441 -28.334  14.897  0.00  0.00    -0.270 OA
BRANCH  30  33
ATOM     33  CA  SER A  1       25.857 -25.551  14.460  0.00  0.00    +0.124 C 
BRANCH  33  34
ATOM     34  C   SER A  1       25.339 -24.126  14.187  0.00  0.00    +0.180 C 
BRANCH  34  35
ATOM     35  O   SER A  1       26.166 -23.101  14.729  0.00  0.00    -0.393 OA
ATOM     36  H   SER A  1       26.956 -23.029  14.160  0.00  0.00    +0.209 HD
ENDBRANCH  34  35
ENDBRANCH  33  34
BRANCH  33  37
ATOM     37  CB  SER A  1       27.398 -25.623  14.290  0.00  0.00    +0.180 C 
BRANCH  37  38
ATOM     38  OG  SER A  1       27.869 -24.876  13.167  0.00  0.00    -0.393 OA
ATOM     39  H   SER A  1       28.799 -24.626  13.352  0.00  0.00    +0.209 HD
ENDBRANCH  37  38
ENDBRANCH  33  37
ENDBRANCH  30  33
ENDBRANCH   7  29
TORSDOF 15
ENDMDL
MODEL 2
REMARK VINA RESULT:      -5.2      1.828      6.158
REMARK  Name = *****
REMARK                            x       y       z     vdW  Elec       q    Type
REMARK                         _______ _______ _______ _____ _____    ______ ____
ROOT
ATOM      1  C   UNK A  0       24.986 -28.026  13.036  0.00  0.00    +0.061 A 
ATOM      2  C   UNK A  0       25.211 -28.963  11.973  0.00  0.00    +0.049 A 
ATOM      3  I   UNK A  0       27.265 -29.059  11.210  0.00  0.00    -0.041 I 
ATOM      4  C   UNK A  0       24.162 -29.742  11.377  0.00  0.00    +0.065 A 
ATOM      5  C   UNK A  0       22.826 -29.410  11.761  0.00  0.00    +0.040 A 
ATOM      6  I   UNK A  0       21.081 -30.588  11.188  0.00  0.00    -0.042 I 
ATOM      7  C   UNK A  0       22.563 -28.384  12.716  0.00  0.00    +0.065 A 
ATOM      8  C   UNK A  0       23.645 -27.815  13.435  0.00  0.00    +0.049 A 
ATOM      9  I   UNK A  0       23.118 -27.220  15.474  0.00  0.00    -0.041 I 
ENDROOT
BRANCH   1  11
ATOM     10  C   UNK A  0       26.537 -26.125  13.714  0.00  0.00    +0.246 C 
ATOM     11  N   UNK A  0       26.133 -27.450  13.682  0.00  0.00    -0.282 N 
ATOM     12  H   UNK A  0       26.857 -28.102  13.989  0.00  0.00    +0.155 HD
ATOM     13  O   UNK A  0       26.124 -25.242  12.953  0.00  0.00    -0.273 OA
BRANCH  10  15
ATOM     14  C   UNK A  0       27.989 -24.332  14.717  0.00  0.00    +0.047 C 
ATOM     15  C   UNK A  0       27.633 -25.814  14.764  0.00  0.00    +0.197 C 
BRANCH  15  16
ATOM     16  O   UNK A  0       28.822 -26.584  14.641  0.00  0.00    -0.383 OA
ATOM     17  H   UNK A  0       28.565 -27.444  14.255  0.00  0.00    +0.210 HD
ENDBRANCH  15  16
ENDBRANCH  10  15
ENDBRANCH   1  11
BRANCH   4  18
ATOM     18  C   UNK A  0       24.490 -30.931  10.473  0.00  0.00    +0.246 C 
ATOM     19  N   SER A  1       24.534 -30.708   9.121  0.00  0.00    -0.304 N 
ATOM     20  H   SER A  1       24.097 -29.850   8.777  0.00  0.00    +0.149 HD
ATOM     21  O   UNK A  0       24.721 -32.051  10.919  0.00  0.00    -0.270 OA
BRANCH  19  22
ATOM     22  CA  SER A  1       24.677 -31.762   8.094  0.00  0.00    +0.124 C 
BRANCH  22  23
ATOM     23  C   SER A  1       25.841 -31.361   7.172  0.00  0.00    +0.180 C 
BRANCH  23  24
ATOM     24  O   SER A  1       25.840 -29.981   6.849  0.00  0.00    -0.393 OA
ATOM     25  H   SER A  1       25.094 -29.822   6.245  0.00  0.00    +0.209 HD
ENDBRANCH  23  24
ENDBRANCH  22  23
BRANCH  22  26
ATOM     26  CB  SER A  1       23.397 -31.998   7.247  0.00  0.00    +0.180 C 
BRANCH  26  27
ATOM     27  OG  SER A  1       23.368 -31.249   6.037  0.00  0.00    -0.393 OA
ATOM     28  H   SER A  1       23.150 -30.327   6.265  0.00  0.00    +0.209 HD
ENDBRANCH  26  27
ENDBRANCH  22  26
ENDBRANCH  19  22
ENDBRANCH   4  18
BRANCH   7  29
ATOM     29  C   UNK A  0       21.160 -27.913  12.996  0.00  0.00    +0.246 C 
ATOM     30  N   SER A  1       20.424 -28.746  13.789  0.00  0.00    -0.304 N 
ATOM     31  H   SER A  1       20.801 -29.676  14.051  0.00  0.00    +0.149 HD
ATOM     32  O   UNK A  0       20.734 -26.876  12.581  0.00  0.00    -0.270 OA
BRANCH  30  33
ATOM     33  CA  SER A  1       19.028 -28.483  14.197  0.00  0.00    +0.124 C 
BRANCH  33  34
ATOM     34  C   SER A  1       19.009 -27.661  15.500  0.00  0.00    +0.180 C 
BRANCH  34  35
ATOM     35  O   SER A  1       19.129 -26.257  15.295  0.00  0.00    -0.393 OA
ATOM     36  H   SER A  1       19.156 -26.102  14.332  0.00  0.00    +0.209 HD
ENDBRANCH  34  35
ENDBRANCH  33  34
BRANCH  33  37
ATOM     37  CB  SER A  1       18.188 -29.779  14.348  0.00  0.00    +0.180 C 
BRANCH  37  38
ATOM     38  OG  SER A  1       17.682 -30.262  13.103  0.00  0.00    -0.393 OA
ATOM     39  H   SER A  1       18.018 -31.176  12.985  0.00  0.00    +0.209 HD
ENDBRANCH  37  38
ENDBRANCH  33  37
ENDBRANCH  30  33
ENDBRANCH   7  29
TORSDOF 15
ENDMDL
MODEL 3
REMARK VINA RESULT:      -4.8      2.242      6.484
REMARK  Name = *****
REMARK                            x       y       z     vdW  Elec       q    Type
REMARK                         _______ _______ _______ _____ _____    ______ ____
ROOT
ATOM      1  C   UNK A  0       24.711 -30.131  12.386  0.00  0.00    +0.061 A 
ATOM      2  C   UNK A  0       25.143 -30.132  11.017  0.00  0.00    +0.049 A 
ATOM      3  I   UNK A  0       26.701 -28.673  10.512  0.00  0.00    -0.041 I 
ATOM      4  C   UNK A  0       24.555 -30.968  10.008  0.00  0.00    +0.065 A 
ATOM      5  C   UNK A  0       23.374 -31.681  10.382  0.00  0.00    +0.040 A 
ATOM      6  I   UNK A  0       22.431 -33.191   9.120  0.00  0.00    -0.042 I 
ATOM      7  C   UNK A  0       22.840 -31.590  11.701  0.00  0.00    +0.065 A 
ATOM      8  C   UNK A  0       23.593 -30.936  12.708  0.00  0.00    +0.049 A 
ATOM      9  I   UNK A  0       23.318 -31.799  14.701  0.00  0.00    -0.041 I 
ENDROOT
BRANCH   1  11
ATOM     10  C   UNK A  0       26.710 -29.746  13.914  0.00  0.00    +0.246 C 
ATOM     11  N   UNK A  0       25.497 -29.399  13.341  0.00  0.00    -0.282 N 
ATOM     12  H   UNK A  0       25.029 -28.627  13.818  0.00  0.00    +0.155 HD
ATOM     13  O   UNK A  0       27.195 -30.884  13.909  0.00  0.00    -0.273 OA
BRANCH  10  15
ATOM     14  C   UNK A  0       26.516 -27.365  14.704  0.00  0.00    +0.047 C 
ATOM     15  C   UNK A  0       27.426 -28.587  14.652  0.00  0.00    +0.197 C 
BRANCH  15  16
ATOM     16  O   UNK A  0       28.684 -28.211  14.105  0.00  0.00    -0.383 OA
ATOM     17  H   UNK A  0       28.500 -27.613  13.354  0.00  0.00    +0.210 HD
ENDBRANCH  15  16
ENDBRANCH  10  15
ENDBRANCH   1  11
BRANCH   4  18
ATOM     18  C   UNK A  0       25.240 -31.156   8.654  0.00  0.00    +0.246 C 
ATOM     19  N   SER A  1       24.720 -30.482   7.580  0.00  0.00    -0.304 N 
ATOM     20  H   SER A  1       23.772 -30.111   7.679  0.00  0.00    +0.149 HD
ATOM     21  O   UNK A  0       26.228 -31.871   8.512  0.00  0.00    -0.270 OA
BRANCH  19  22
ATOM     22  CA  SER A  1       25.149 -30.665   6.178  0.00  0.00    +0.124 C 
BRANCH  22  23
ATOM     23  C   SER A  1       24.635 -29.462   5.370  0.00  0.00    +0.180 C 
BRANCH  23  24
ATOM     24  O   SER A  1       23.222 -29.348   5.387  0.00  0.00    -0.393 OA
ATOM     25  H   SER A  1       22.859 -30.238   5.539  0.00  0.00    +0.209 HD
ENDBRANCH  23  24
ENDBRANCH  22  23
BRANCH  22  26
ATOM     26  CB  SER A  1       24.647 -31.983   5.528  0.00  0.00    +0.180 C 
BRANCH  26  27
ATOM     27  OG  SER A  1       23.228 -32.084   5.467  0.00  0.00    -0.393 OA
ATOM     28  H   SER A  1       23.011 -32.866   4.928  0.00  0.00    +0.209 HD
ENDBRANCH  26  27
ENDBRANCH  22  26
ENDBRANCH  19  22
ENDBRANCH   4  18
BRANCH   7  29
ATOM     29  C   UNK A  0       21.507 -32.198  12.052  0.00  0.00    +0.246 C 
ATOM     30  N   SER A  1       20.447 -31.342  11.970  0.00  0.00    -0.304 N 
ATOM     31  H   SER A  1       20.611 -30.332  11.797  0.00  0.00    +0.149 HD
ATOM     32  O   UNK A  0       21.384 -33.349  12.350  0.00  0.00    -0.270 OA
BRANCH  30  33
ATOM     33  CA  SER A  1       19.049 -31.723  12.263  0.00  0.00    +0.124 C 
BRANCH  33  34
ATOM     34  C   SER A  1       18.272 -31.919  10.946  0.00  0.00    +0.180 C 
BRANCH  34  35
ATOM     35  O   SER A  1       18.325 -30.794  10.075  0.00  0.00    -0.393 OA
ATOM     36  H   SER A  1       18.480 -30.003  10.626  0.00  0.00    +0.209 HD
ENDBRANCH  34  35
ENDBRANCH  33  34
BRANCH  33  37
ATOM     37  CB  SER A  1       18.326 -30.705  13.185  0.00  0.00    +0.180 C 
BRANCH  37  38
ATOM     38  OG  SER A  1       17.081 -30.255  12.649  0.00  0.00    -0.393 OA
ATOM     39  H   SER A  1       17.178 -29.300  12.447  0.00  0.00    +0.209 HD
ENDBRANCH  37  38
ENDBRANCH  33  37
ENDBRANCH  30  33
ENDBRANCH   7  29
TORSDOF 15
ENDMDL
MODEL 4
REMARK VINA RESULT:      -4.4      2.377      2.928
REMARK  Name = *****
REMARK                            x       y       z     vdW  Elec       q    Type
REMARK                         _______ _______ _______ _____ _____    ______ ____
ROOT
ATOM      1  C   UNK A  0       22.784 -28.804  13.108  0.00  0.00    +0.061 A 
ATOM      2  C   UNK A  0       22.723 -29.592  11.910  0.00  0.00    +0.049 A 
ATOM      3  I   UNK A  0       20.795 -30.553  11.501  0.00  0.00    -0.041 I 
ATOM      4  C   UNK A  0       23.859 -29.817  11.060  0.00  0.00    +0.065 A 
ATOM      5  C   UNK A  0       25.124 -29.372  11.556  0.00  0.00    +0.040 A 
ATOM      6  I   UNK A  0       26.953 -29.379  10.366  0.00  0.00    -0.042 I 
ATOM      7  C   UNK A  0       25.234 -28.707  12.813  0.00  0.00    +0.065 A 
ATOM      8  C   UNK A  0       24.054 -28.312  13.492  0.00  0.00    +0.049 A 
ATOM      9  I   UNK A  0       24.286 -26.461  14.637  0.00  0.00    -0.041 I 
ENDROOT
BRANCH   1  11
ATOM     10  C   UNK A  0       20.676 -27.440  13.529  0.00  0.00    +0.246 C 
ATOM     11  N   UNK A  0       21.548 -28.489  13.771  0.00  0.00    -0.282 N 
ATOM     12  H   UNK A  0       21.376 -28.962  14.659  0.00  0.00    +0.155 HD
ATOM     13  O   UNK A  0       20.953 -26.427  12.875  0.00  0.00    -0.273 OA
BRANCH  10  15
ATOM     14  C   UNK A  0       18.894 -29.057  14.264  0.00  0.00    +0.047 C 
ATOM     15  C   UNK A  0       19.292 -27.586  14.208  0.00  0.00    +0.197 C 
BRANCH  15  16
ATOM     16  O   UNK A  0       18.242 -26.840  13.605  0.00  0.00    -0.383 OA
ATOM     17  H   UNK A  0       17.407 -27.144  14.011  0.00  0.00    +0.210 HD
ENDBRANCH  15  16
ENDBRANCH  10  15
ENDBRANCH   1  11
BRANCH   4  18
ATOM     18  C   UNK A  0       23.680 -30.397   9.656  0.00  0.00    +0.246 C 
ATOM     19  N   SER A  1       24.251 -29.719   8.611  0.00  0.00    -0.304 N 
ATOM     20  H   SER A  1       24.529 -28.749   8.783  0.00  0.00    +0.149 HD
ATOM     21  O   UNK A  0       23.063 -31.438   9.450  0.00  0.00    -0.270 OA
BRANCH  19  22
ATOM     22  CA  SER A  1       24.049 -30.041   7.183  0.00  0.00    +0.124 C 
BRANCH  22  23
ATOM     23  C   SER A  1       25.170 -31.004   6.758  0.00  0.00    +0.180 C 
BRANCH  23  24
ATOM     24  O   SER A  1       26.002 -30.470   5.741  0.00  0.00    -0.393 OA
ATOM     25  H   SER A  1       25.683 -29.572   5.544  0.00  0.00    +0.209 HD
ENDBRANCH  23  24
ENDBRANCH  22  23
BRANCH  22  26
ATOM     26  CB  SER A  1       24.044 -28.801   6.248  0.00  0.00    +0.180 C 
BRANCH  26  27
ATOM     27  OG  SER A  1       23.373 -29.022   5.012  0.00  0.00    -0.393 OA
ATOM     28  H   SER A  1       23.858 -28.534   4.322  0.00  0.00    +0.209 HD
ENDBRANCH  26  27
ENDBRANCH  22  26
ENDBRANCH  19  22
ENDBRANCH   4  18
BRANCH   7  29
ATOM     29  C   UNK A  0       26.576 -28.391  13.418  0.00  0.00    +0.246 C 
ATOM     30  N   SER A  1       26.997 -29.273  14.372  0.00  0.00    -0.304 N 
ATOM     31  H   SER A  1       26.355 -30.015  14.707  0.00  0.00    +0.149 HD
ATOM     32  O   UNK A  0       27.236 -27.456  13.070  0.00  0.00    -0.270 OA
BRANCH  30  33
ATOM     33  CA  SER A  1       28.282 -29.163  15.094  0.00  0.00    +0.124 C 
BRANCH  33  34
ATOM     34  C   SER A  1       28.540 -27.695  15.485  0.00  0.00    +0.180 C 
BRANCH  34  35
ATOM     35  O   SER A  1       29.686 -27.127  14.861  0.00  0.00    -0.393 OA
ATOM     36  H   SER A  1       30.333 -26.925  15.563  0.00  0.00    +0.209 HD
ENDBRANCH  34  35
ENDBRANCH  33  34
BRANCH  33  37
ATOM     37  CB  SER A  1       29.478 -29.739  14.290  0.00  0.00    +0.180 C 
BRANCH  37  38
ATOM     38  OG  SER A  1       29.590 -29.178  12.981  0.00  0.00    -0.393 OA
ATOM     39  H   SER A  1       30.413 -28.643  12.962  0.00  0.00    +0.209 HD
ENDBRANCH  37  38
ENDBRANCH  33  37
ENDBRANCH  30  33
ENDBRANCH   7  29
TORSDOF 15
ENDMDL
MODEL 5
REMARK VINA RESULT:      -4.3      1.974      7.603
REMARK  Name = *****
REMARK                            x       y       z     vdW  Elec       q    Type
REMARK                         _______ _______ _______ _____ _____    ______ ____
ROOT
ATOM      1  C   UNK A  0       24.298 -29.662  11.822  0.00  0.00    +0.061 A 
ATOM      2  C   UNK A  0       25.108 -28.613  12.372  0.00  0.00    +0.049 A 
ATOM      3  I   UNK A  0       27.176 -28.529  11.645  0.00  0.00    -0.041 I 
ATOM      4  C   UNK A  0       24.643 -27.714  13.391  0.00  0.00    +0.065 A 
ATOM      5  C   UNK A  0       23.379 -28.022  13.984  0.00  0.00    +0.040 A 
ATOM      6  I   UNK A  0       22.346 -26.695  15.373  0.00  0.00    -0.042 I 
ATOM      7  C   UNK A  0       22.613 -29.145  13.551  0.00  0.00    +0.065 A 
ATOM      8  C   UNK A  0       23.017 -29.853  12.392  0.00  0.00    +0.049 A 
ATOM      9  I   UNK A  0       21.343 -30.669  11.242  0.00  0.00    -0.041 I 
ENDROOT
BRANCH   1  11
ATOM     10  C   UNK A  0       25.351 -31.641  10.617  0.00  0.00    +0.246 C 
ATOM     11  N   UNK A  0       24.800 -30.372  10.677  0.00  0.00    -0.282 N 
ATOM     12  H   UNK A  0       24.963 -29.819   9.835  0.00  0.00    +0.155 HD
ATOM     13  O   UNK A  0       25.763 -32.281  11.592  0.00  0.00    -0.273 OA
BRANCH  10  15
ATOM     14  C   UNK A  0       26.766 -31.694   8.537  0.00  0.00    +0.047 C 
ATOM     15  C   UNK A  0       25.487 -32.214   9.184  0.00  0.00    +0.197 C 
BRANCH  15  16
ATOM     16  O   UNK A  0       24.387 -31.951   8.322  0.00  0.00    -0.383 OA
ATOM     17  H   UNK A  0       24.635 -31.185   7.769  0.00  0.00    +0.210 HD
ENDBRANCH  15  16
ENDBRANCH  10  15
ENDBRANCH   1  11
BRANCH   4  18
ATOM     18  C   UNK A  0       25.422 -26.440  13.722  0.00  0.00    +0.246 C 
ATOM     19  N   SER A  1       26.098 -26.401  14.913  0.00  0.00    -0.304 N 
ATOM     20  H   SER A  1       25.839 -27.095  15.618  0.00  0.00    +0.149 HD
ATOM     21  O   UNK A  0       25.463 -25.479  12.959  0.00  0.00    -0.270 OA
BRANCH  19  22
ATOM     22  CA  SER A  1       26.767 -25.204  15.467  0.00  0.00    +0.124 C 
BRANCH  22  23
ATOM     23  C   SER A  1       25.831 -24.004  15.252  0.00  0.00    +0.180 C 
BRANCH  23  24
ATOM     24  O   SER A  1       26.530 -22.785  15.059  0.00  0.00    -0.393 OA
ATOM     25  H   SER A  1       26.263 -22.428  14.195  0.00  0.00    +0.209 HD
ENDBRANCH  23  24
ENDBRANCH  22  23
BRANCH  22  26
ATOM     26  CB  SER A  1       28.154 -24.905  14.838  0.00  0.00    +0.180 C 
BRANCH  26  27
ATOM     27  OG  SER A  1       28.082 -24.435  13.496  0.00  0.00    -0.393 OA
ATOM     28  H   SER A  1       27.261 -23.918  13.408  0.00  0.00    +0.209 HD
ENDBRANCH  26  27
ENDBRANCH  22  26
ENDBRANCH  19  22
ENDBRANCH   4  18
BRANCH   7  29
ATOM     29  C   UNK A  0       21.369 -29.574  14.284  0.00  0.00    +0.246 C 
ATOM     30  N   SER A  1       20.247 -28.860  13.975  0.00  0.00    -0.304 N 
ATOM     31  H   SER A  1       20.320 -28.019  13.372  0.00  0.00    +0.149 HD
ATOM     32  O   UNK A  0       21.359 -30.489  15.055  0.00  0.00    -0.270 OA
BRANCH  30  33
ATOM     33  CA  SER A  1       18.915 -29.111  14.568  0.00  0.00    +0.124 C 
BRANCH  33  34
ATOM     34  C   SER A  1       18.105 -30.052  13.656  0.00  0.00    +0.180 C 
BRANCH  34  35
ATOM     35  O   SER A  1       16.834 -29.534  13.280  0.00  0.00    -0.393 OA
ATOM     36  H   SER A  1       16.950 -29.051  12.440  0.00  0.00    +0.209 HD
ENDBRANCH  34  35
ENDBRANCH  33  34
BRANCH  33  37
ATOM     37  CB  SER A  1       18.128 -27.805  14.856  0.00  0.00    +0.180 C 
BRANCH  37  38
ATOM     38  OG  SER A  1       18.210 -26.859  13.790  0.00  0.00    -0.393 OA
ATOM     39  H   SER A  1       17.790 -27.267  13.003  0.00  0.00    +0.209 HD
ENDBRANCH  37  38
ENDBRANCH  33  37
ENDBRANCH  30  33
ENDBRANCH   7  29
TORSDOF 15
ENDMDL
MODEL 6
REMARK VINA RESULT:      -4.2      1.964      7.810
REMARK  Name = *****
REMARK                            x       y       z     vdW  Elec       q    Type
REMARK                         _______ _______ _______ _____ _____    ______ ____
ROOT
ATOM      1  C   UNK A  0       24.652 -29.901  12.548  0.00  0.00    +0.061 A 
ATOM      2  C   UNK A  0       23.494 -30.480  13.167  0.00  0.00    +0.049 A 
ATOM      3  I   UNK A  0       23.107 -29.853  15.233  0.00  0.00    -0.041 I 
ATOM      4  C   UNK A  0       22.671 -31.467  12.525  0.00  0.00    +0.065 A 
ATOM      5  C   UNK A  0       23.161 -32.001  11.293  0.00  0.00    +0.040 A 
ATOM      6  I   UNK A  0       21.998 -33.327  10.008  0.00  0.00    -0.042 I 
ATOM      7  C   UNK A  0       24.385 -31.542  10.722  0.00  0.00    +0.065 A 
ATOM      8  C   UNK A  0       25.028 -30.410  11.283  0.00  0.00    +0.049 A 
ATOM      9  I   UNK A  0       26.084 -29.188   9.806  0.00  0.00    -0.041 I 
ENDROOT
BRANCH   1  11
ATOM     10  C   UNK A  0       26.570 -28.693  13.707  0.00  0.00    +0.246 C 
ATOM     11  N   UNK A  0       25.282 -28.789  13.204  0.00  0.00    -0.282 N 
ATOM     12  H   UNK A  0       24.665 -28.042  13.528  0.00  0.00    +0.155 HD
ATOM     13  O   UNK A  0       27.316 -29.655  13.926  0.00  0.00    -0.273 OA
BRANCH  10  15
ATOM     14  C   UNK A  0       26.658 -26.307  12.916  0.00  0.00    +0.047 C 
ATOM     15  C   UNK A  0       27.017 -27.252  14.057  0.00  0.00    +0.197 C 
BRANCH  15  16
ATOM     16  O   UNK A  0       28.398 -27.108  14.367  0.00  0.00    -0.383 OA
ATOM     17  H   UNK A  0       28.668 -26.221  14.059  0.00  0.00    +0.210 HD
ENDBRANCH  15  16
ENDBRANCH  10  15
ENDBRANCH   1  11
BRANCH   4  18
ATOM     18  C   UNK A  0       21.295 -31.824  13.091  0.00  0.00    +0.246 C 
ATOM     19  N   SER A  1       20.239 -31.023  12.742  0.00  0.00    -0.304 N 
ATOM     20  H   SER A  1       20.461 -30.104  12.353  0.00  0.00    +0.149 HD
ATOM     21  O   UNK A  0       21.118 -32.793  13.822  0.00  0.00    -0.270 OA
BRANCH  19  22
ATOM     22  CA  SER A  1       18.880 -31.120  13.315  0.00  0.00    +0.124 C 
BRANCH  22  23
ATOM     23  C   SER A  1       17.891 -31.283  12.149  0.00  0.00    +0.180 C 
BRANCH  23  24
ATOM     24  O   SER A  1       16.751 -30.448  12.269  0.00  0.00    -0.393 OA
ATOM     25  H   SER A  1       15.997 -30.926  11.884  0.00  0.00    +0.209 HD
ENDBRANCH  23  24
ENDBRANCH  22  23
BRANCH  22  26
ATOM     26  CB  SER A  1       18.469 -29.898  14.181  0.00  0.00    +0.180 C 
BRANCH  26  27
ATOM     27  OG  SER A  1       18.861 -28.648  13.625  0.00  0.00    -0.393 OA
ATOM     28  H   SER A  1       18.551 -28.624  12.702  0.00  0.00    +0.209 HD
ENDBRANCH  26  27
ENDBRANCH  22  26
ENDBRANCH  19  22
ENDBRANCH   4  18
BRANCH   7  29
ATOM     29  C   UNK A  0       24.992 -32.218   9.521  0.00  0.00    +0.246 C 
ATOM     30  N   SER A  1       24.461 -31.839   8.321  0.00  0.00    -0.304 N 
ATOM     31  H   SER A  1       23.625 -31.225   8.298  0.00  0.00    +0.149 HD
ATOM     32  O   UNK A  0       25.889 -33.004   9.609  0.00  0.00    -0.270 OA
BRANCH  30  33
ATOM     33  CA  SER A  1       24.906 -32.367   7.014  0.00  0.00    +0.124 C 
BRANCH  33  34
ATOM     34  C   SER A  1       26.174 -31.623   6.552  0.00  0.00    +0.180 C 
BRANCH  34  35
ATOM     35  O   SER A  1       27.386 -32.288   6.893  0.00  0.00    -0.393 OA
ATOM     36  H   SER A  1       27.489 -32.232   7.862  0.00  0.00    +0.209 HD
ENDBRANCH  34  35
ENDBRANCH  33  34
BRANCH  33  37
ATOM     37  CB  SER A  1       23.799 -32.301   5.928  0.00  0.00    +0.180 C 
BRANCH  37  38
ATOM     38  OG  SER A  1       23.275 -30.985   5.748  0.00  0.00    -0.393 OA
ATOM     39  H   SER A  1       22.752 -30.766   6.549  0.00  0.00    +0.209 HD
ENDBRANCH  37  38
ENDBRANCH  33  37
ENDBRANCH  30  33
ENDBRANCH   7  29
TORSDOF 15
ENDMDL
MODEL 7
REMARK VINA RESULT:      -4.1      2.583      6.316
REMARK  Name = *****
REMARK                            x       y       z     vdW  Elec       q    Type
REMARK                         _______ _______ _______ _____ _____    ______ ____
ROOT
ATOM      1  C   UNK A  0       25.049 -29.808  12.822  0.00  0.00    +0.061 A 
ATOM      2  C   UNK A  0       25.023 -29.769  11.388  0.00  0.00    +0.049 A 
ATOM      3  I   UNK A  0       26.631 -28.618  10.439  0.00  0.00    -0.041 I 
ATOM      4  C   UNK A  0       23.980 -30.371  10.605  0.00  0.00    +0.065 A 
ATOM      5  C   UNK A  0       22.845 -30.861  11.324  0.00  0.00    +0.040 A 
ATOM      6  I   UNK A  0       21.246 -32.023  10.401  0.00  0.00    -0.042 I 
ATOM      7  C   UNK A  0       22.782 -30.785  12.746  0.00  0.00    +0.065 A 
ATOM      8  C   UNK A  0       23.936 -30.395  13.470  0.00  0.00    +0.049 A 
ATOM      9  I   UNK A  0       24.109 -31.365  15.425  0.00  0.00    -0.041 I 
ENDROOT
BRANCH   1  11
ATOM     10  C   UNK A  0       27.360 -30.062  13.856  0.00  0.00    +0.246 C 
ATOM     11  N   UNK A  0       26.235 -29.344  13.488  0.00  0.00    -0.282 N 
ATOM     12  H   UNK A  0       26.177 -28.426  13.931  0.00  0.00    +0.155 HD
ATOM     13  O   UNK A  0       27.422 -31.296  13.920  0.00  0.00    -0.273 OA
BRANCH  10  15
ATOM     14  C   UNK A  0       28.093 -27.828  14.749  0.00  0.00    +0.047 C 
ATOM     15  C   UNK A  0       28.574 -29.190  14.263  0.00  0.00    +0.197 C 
BRANCH  15  16
ATOM     16  O   UNK A  0       29.552 -29.005  13.246  0.00  0.00    -0.383 OA
ATOM     17  H   UNK A  0       30.139 -29.786  13.271  0.00  0.00    +0.210 HD
ENDBRANCH  15  16
ENDBRANCH  10  15
ENDBRANCH   1  11
BRANCH   4  18
ATOM     18  C   UNK A  0       24.151 -30.568   9.097  0.00  0.00    +0.246 C 
ATOM     19  N   SER A  1       24.881 -31.649   8.678  0.00  0.00    -0.304 N 
ATOM     20  H   SER A  1       25.480 -32.104   9.371  0.00  0.00    +0.149 HD
ATOM     21  O   UNK A  0       23.651 -29.806   8.275  0.00  0.00    -0.270 OA
BRANCH  19  22
ATOM     22  CA  SER A  1       25.281 -31.908   7.278  0.00  0.00    +0.124 C 
BRANCH  22  23
ATOM     23  C   SER A  1       24.089 -32.567   6.565  0.00  0.00    +0.180 C 
BRANCH  23  24
ATOM     24  O   SER A  1       23.314 -31.645   5.817  0.00  0.00    -0.393 OA
ATOM     25  H   SER A  1       22.423 -31.628   6.206  0.00  0.00    +0.209 HD
ENDBRANCH  23  24
ENDBRANCH  22  23
BRANCH  22  26
ATOM     26  CB  SER A  1       26.538 -32.807   7.135  0.00  0.00    +0.180 C 
BRANCH  26  27
ATOM     27  OG  SER A  1       27.145 -33.142   8.378  0.00  0.00    -0.393 OA
ATOM     28  H   SER A  1       27.646 -32.363   8.682  0.00  0.00    +0.209 HD
ENDBRANCH  26  27
ENDBRANCH  22  26
ENDBRANCH  19  22
ENDBRANCH   4  18
BRANCH   7  29
ATOM     29  C   UNK A  0       21.524 -31.139  13.495  0.00  0.00    +0.246 C 
ATOM     30  N   SER A  1       20.652 -30.104  13.672  0.00  0.00    -0.304 N 
ATOM     31  H   SER A  1       20.931 -29.141  13.404  0.00  0.00    +0.149 HD
ATOM     32  O   UNK A  0       21.294 -32.248  13.879  0.00  0.00    -0.270 OA
BRANCH  30  33
ATOM     33  CA  SER A  1       19.354 -30.222  14.372  0.00  0.00    +0.124 C 
BRANCH  33  34
ATOM     34  C   SER A  1       18.350 -30.984  13.487  0.00  0.00    +0.180 C 
BRANCH  34  35
ATOM     35  O   SER A  1       18.245 -30.470  12.164  0.00  0.00    -0.393 OA
ATOM     36  H   SER A  1       17.296 -30.428  11.939  0.00  0.00    +0.209 HD
ENDBRANCH  34  35
ENDBRANCH  33  34
BRANCH  33  37
ATOM     37  CB  SER A  1       18.777 -28.850  14.811  0.00  0.00    +0.180 C 
BRANCH  37  38
ATOM     38  OG  SER A  1       18.938 -27.836  13.818  0.00  0.00    -0.393 OA
ATOM     39  H   SER A  1       18.080 -27.746  13.350  0.00  0.00    +0.209 HD
ENDBRANCH  37  38
ENDBRANCH  33  37
ENDBRANCH  30  33
ENDBRANCH   7  29
TORSDOF 15
ENDMDL
MODEL 8
REMARK VINA RESULT:      -3.9      1.732      5.838
REMARK  Name = *****
REMARK                            x       y       z     vdW  Elec       q    Type
REMARK                         _______ _______ _______ _____ _____    ______ ____
ROOT
ATOM      1  C   UNK A  0       25.122 -30.187  10.785  0.00  0.00    +0.061 A 
ATOM      2  C   UNK A  0       23.844 -30.709  11.177  0.00  0.00    +0.049 A 
ATOM      3  I   UNK A  0       22.683 -31.673   9.585  0.00  0.00    -0.041 I 
ATOM      4  C   UNK A  0       23.304 -30.554  12.499  0.00  0.00    +0.065 A 
ATOM      5  C   UNK A  0       24.017 -29.683  13.380  0.00  0.00    +0.040 A 
ATOM      6  I   UNK A  0       23.544 -29.464  15.499  0.00  0.00    -0.042 I 
ATOM      7  C   UNK A  0       25.220 -29.037  12.969  0.00  0.00    +0.065 A 
ATOM      8  C   UNK A  0       25.821 -29.411  11.741  0.00  0.00    +0.049 A 
ATOM      9  I   UNK A  0       28.006 -29.292  11.767  0.00  0.00    -0.041 I 
ENDROOT
BRANCH   1  11
ATOM     10  C   UNK A  0       26.334 -31.715   9.150  0.00  0.00    +0.246 C 
ATOM     11  N   UNK A  0       25.642 -30.568   9.501  0.00  0.00    -0.282 N 
ATOM     12  H   UNK A  0       25.695 -29.831   8.795  0.00  0.00    +0.155 HD
ATOM     13  O   UNK A  0       26.869 -32.491   9.952  0.00  0.00    -0.273 OA
BRANCH  10  15
ATOM     14  C   UNK A  0       25.527 -31.003   6.877  0.00  0.00    +0.047 C 
ATOM     15  C   UNK A  0       26.460 -31.948   7.624  0.00  0.00    +0.197 C 
BRANCH  15  16
ATOM     16  O   UNK A  0       26.216 -33.282   7.195  0.00  0.00    -0.383 OA
ATOM     17  H   UNK A  0       25.247 -33.404   7.183  0.00  0.00    +0.210 HD
ENDBRANCH  15  16
ENDBRANCH  10  15
ENDBRANCH   1  11
BRANCH   4  18
ATOM     18  C   UNK A  0       22.097 -31.378  12.950  0.00  0.00    +0.246 C 
ATOM     19  N   SER A  1       20.860 -30.795  12.858  0.00  0.00    -0.304 N 
ATOM     20  H   SER A  1       20.832 -29.778  12.749  0.00  0.00    +0.149 HD
ATOM     21  O   UNK A  0       22.206 -32.526  13.372  0.00  0.00    -0.270 OA
BRANCH  19  22
ATOM     22  CA  SER A  1       19.609 -31.375  13.391  0.00  0.00    +0.124 C 
BRANCH  22  23
ATOM     23  C   SER A  1       18.764 -31.843  12.195  0.00  0.00    +0.180 C 
BRANCH  23  24
ATOM     24  O   SER A  1       18.583 -30.832  11.217  0.00  0.00    -0.393 OA
ATOM     25  H   SER A  1       19.010 -30.024  11.550  0.00  0.00    +0.209 HD
ENDBRANCH  23  24
ENDBRANCH  22  23
BRANCH  22  26
ATOM     26  CB  SER A  1       18.780 -30.398  14.267  0.00  0.00    +0.180 C 
BRANCH  26  27
ATOM     27  OG  SER A  1       18.515 -29.150  13.634  0.00  0.00    -0.393 OA
ATOM     28  H   SER A  1       19.020 -28.465  14.108  0.00  0.00    +0.209 HD
ENDBRANCH  26  27
ENDBRANCH  22  26
ENDBRANCH  19  22
ENDBRANCH   4  18
BRANCH   7  29
ATOM     29  C   UNK A  0       25.881 -27.989  13.826  0.00  0.00    +0.246 C 
ATOM     30  N   SER A  1       25.568 -26.701  13.499  0.00  0.00    -0.304 N 
ATOM     31  H   SER A  1       25.014 -26.506  12.644  0.00  0.00    +0.149 HD
ATOM     32  O   UNK A  0       26.599 -28.265  14.741  0.00  0.00    -0.270 OA
BRANCH  30  33
ATOM     33  CA  SER A  1       26.094 -25.515  14.207  0.00  0.00    +0.124 C 
BRANCH  33  34
ATOM     34  C   SER A  1       25.134 -24.325  14.021  0.00  0.00    +0.180 C 
BRANCH  34  35
ATOM     35  O   SER A  1       25.701 -23.068  14.373  0.00  0.00    -0.393 OA
ATOM     36  H   SER A  1       25.465 -22.889  15.303  0.00  0.00    +0.209 HD
ENDBRANCH  34  35
ENDBRANCH  33  34
BRANCH  33  37
ATOM     37  CB  SER A  1       27.534 -25.138  13.767  0.00  0.00    +0.180 C 
BRANCH  37  38
ATOM     38  OG  SER A  1       28.539 -25.877  14.463  0.00  0.00    -0.393 OA
ATOM     39  H   SER A  1       28.680 -26.714  13.972  0.00  0.00    +0.209 HD
ENDBRANCH  37  38
ENDBRANCH  33  37
ENDBRANCH  30  33
ENDBRANCH   7  29
TORSDOF 15
ENDMDL
MODEL 9
REMARK VINA RESULT:      -3.8      2.651      6.744
REMARK  Name = *****
REMARK                            x       y       z     vdW  Elec       q    Type
REMARK                         _______ _______ _______ _____ _____    ______ ____
ROOT
ATOM      1  C   UNK A  0       24.239 -30.165  11.565  0.00  0.00    +0.061 A 
ATOM      2  C   UNK A  0       24.377 -30.452  10.166  0.00  0.00    +0.049 A 
ATOM      3  I   UNK A  0       25.850 -29.237   9.087  0.00  0.00    -0.041 I 
ATOM      4  C   UNK A  0       23.560 -31.412   9.477  0.00  0.00    +0.065 A 
ATOM      5  C   UNK A  0       22.456 -31.950  10.209  0.00  0.00    +0.040 A 
ATOM      6  I   UNK A  0       21.214 -33.589   9.479  0.00  0.00    -0.042 I 
ATOM      7  C   UNK A  0       22.212 -31.575  11.563  0.00  0.00    +0.065 A 
ATOM      8  C   UNK A  0       23.182 -30.807  12.253  0.00  0.00    +0.049 A 
ATOM      9  I   UNK A  0       23.296 -31.263  14.391  0.00  0.00    -0.041 I 
ENDROOT
BRANCH   1  11
ATOM     10  C   UNK A  0       26.457 -29.697  12.724  0.00  0.00    +0.246 C 
ATOM     11  N   UNK A  0       25.234 -29.333  12.184  0.00  0.00    -0.282 N 
ATOM     12  H   UNK A  0       24.939 -28.392  12.449  0.00  0.00    +0.155 HD
ATOM     13  O   UNK A  0       26.785 -30.854  13.015  0.00  0.00    -0.273 OA
BRANCH  10  15
ATOM     14  C   UNK A  0       26.838 -27.229  12.420  0.00  0.00    +0.047 C 
ATOM     15  C   UNK A  0       27.410 -28.511  13.014  0.00  0.00    +0.197 C 
BRANCH  15  16
ATOM     16  O   UNK A  0       28.745 -28.684  12.556  0.00  0.00    -0.383 OA
ATOM     17  H   UNK A  0       28.732 -28.562  11.587  0.00  0.00    +0.210 HD
ENDBRANCH  15  16
ENDBRANCH  10  15
ENDBRANCH   1  11
BRANCH   4  18
ATOM     18  C   UNK A  0       23.941 -31.900   8.078  0.00  0.00    +0.246 C 
ATOM     19  N   SER A  1       25.119 -32.587   7.945  0.00  0.00    -0.304 N 
ATOM     20  H   SER A  1       25.792 -32.509   8.711  0.00  0.00    +0.149 HD
ATOM     21  O   UNK A  0       23.228 -31.705   7.098  0.00  0.00    -0.270 OA
BRANCH  19  22
ATOM     22  CA  SER A  1       25.721 -32.991   6.657  0.00  0.00    +0.124 C 
BRANCH  22  23
ATOM     23  C   SER A  1       26.975 -33.825   6.968  0.00  0.00    +0.180 C 
BRANCH  23  24
ATOM     24  O   SER A  1       28.180 -33.102   6.779  0.00  0.00    -0.393 OA
ATOM     25  H   SER A  1       28.914 -33.739   6.828  0.00  0.00    +0.209 HD
ENDBRANCH  23  24
ENDBRANCH  22  23
BRANCH  22  26
ATOM     26  CB  SER A  1       26.100 -31.803   5.733  0.00  0.00    +0.180 C 
BRANCH  26  27
ATOM     27  OG  SER A  1       25.105 -31.494   4.763  0.00  0.00    -0.393 OA
ATOM     28  H   SER A  1       25.562 -31.240   3.941  0.00  0.00    +0.209 HD
ENDBRANCH  26  27
ENDBRANCH  22  26
ENDBRANCH  19  22
ENDBRANCH   4  18
BRANCH   7  29
ATOM     29  C   UNK A  0       20.959 -32.004  12.282  0.00  0.00    +0.246 C 
ATOM     30  N   SER A  1       19.965 -31.068  12.306  0.00  0.00    -0.304 N 
ATOM     31  H   SER A  1       20.148 -30.111  11.952  0.00  0.00    +0.149 HD
ATOM     32  O   UNK A  0       20.835 -33.089  12.768  0.00  0.00    -0.270 OA
BRANCH  30  33
ATOM     33  CA  SER A  1       18.649 -31.274  12.949  0.00  0.00    +0.124 C 
BRANCH  33  34
ATOM     34  C   SER A  1       17.549 -31.361  11.875  0.00  0.00    +0.180 C 
BRANCH  34  35
ATOM     35  O   SER A  1       16.400 -30.571  12.164  0.00  0.00    -0.393 OA
ATOM     36  H   SER A  1       16.137 -30.122  11.339  0.00  0.00    +0.209 HD
ENDBRANCH  34  35
ENDBRANCH  33  34
BRANCH  33  37
ATOM     37  CB  SER A  1       18.314 -30.181  13.999  0.00  0.00    +0.180 C 
BRANCH  37  38
ATOM     38  OG  SER A  1       17.278 -30.576  14.900  0.00  0.00    -0.393 OA
ATOM     39  H   SER A  1       17.670 -31.213  15.535  0.00  0.00    +0.209 HD
ENDBRANCH  37  38
ENDBRANCH  33  37
ENDBRANCH  30  33
ENDBRANCH   7  29
TORSDOF 15
ENDMDL
