MODEL 1
REMARK VINA RESULT:       7.5      0.000      0.000
REMARK  Name = *****
REMARK                            x       y       z     vdW  Elec       q    Type
REMARK                         _______ _______ _______ _____ _____    ______ ____
ROOT
ATOM      1  C   LIG    1       25.988 -12.054   3.013  0.00  0.00    +0.042 C 
ATOM      2  C   LIG    1       26.381 -12.750   4.326  0.00  0.00    +0.069 C 
ATOM      3  C   LIG    1       25.554 -14.046   4.663  0.00  0.00    -0.000 C 
ATOM      4  C   LIG    1       25.564 -14.336   6.194  0.00  0.00    +0.014 C 
ATOM      5  C   LIG    1       26.393 -15.176   3.990  0.00  0.00    +0.001 C 
ATOM      6  C   LIG    1       25.711 -16.109   2.971  0.00  0.00    -0.004 C 
ATOM      7  C   LIG    1       24.167 -16.308   3.199  0.00  0.00    -0.001 C 
ATOM      8  C   LIG    1       23.708 -14.812   3.042  0.00  0.00    +0.005 C 
ATOM      9  C   LIG    1       23.640 -17.205   4.547  0.00  0.00    -0.022 C 
ATOM     10  C   LIG    1       22.087 -16.958   3.970  0.00  0.00    +0.012 C 
ATOM     11  C   LIG    1       24.744 -18.399   4.295  0.00  0.00    +0.003 C 
ATOM     12  C   LIG    1       24.255 -19.438   3.289  0.00  0.00    +0.083 C 
ATOM     13  C   LIG    1       23.629 -20.415   4.221  0.00  0.00    +0.162 C 
ATOM     14  O   LIG    1       24.066 -21.515   4.457  0.00  0.00    -0.292 OA
ATOM     15  C   LIG    1       22.504 -19.798   4.994  0.00  0.00    +0.029 C 
ATOM     16  C   LIG    1       21.334 -20.242   4.504  0.00  0.00    +0.190 C 
ATOM     17  C   LIG    1       26.232 -18.162   4.124  0.00  0.00    +0.005 C 
ATOM     18  C   LIG    1       22.815 -18.356   5.517  0.00  0.00    +0.049 C 
ATOM     19  C   LIG    1       26.495 -17.399   2.872  0.00  0.00    +0.004 C 
ATOM     20  C   LIG    1       27.660 -14.528   3.394  0.00  0.00    +0.007 C 
ATOM     21  C   LIG    1       24.058 -13.987   4.266  0.00  0.00    +0.010 C 
ATOM     22  C   LIG    1       27.825 -13.266   4.211  0.00  0.00    +0.035 C 
ENDROOT
BRANCH   2  23
ATOM     23  O   LIG    1       26.289 -11.766   5.348  0.00  0.00    -0.388 OA
ATOM     24  H   LIG    1       27.188 -11.491   5.594  0.00  0.00    +0.210 HD
ENDBRANCH   2  23
BRANCH  16  25
ATOM     25  O   LIG    1       20.933 -21.568   4.734  0.00  0.00    -0.514 OA
ATOM     26  H   LIG    1       21.733 -22.106   4.892  0.00  0.00    +0.291 HD
ENDBRANCH  16  25
TORSDOF 2
ENDMDL
MODEL 2
REMARK VINA RESULT:       8.5      1.234      6.919
REMARK  Name = *****
REMARK                            x       y       z     vdW  Elec       q    Type
REMARK                         _______ _______ _______ _____ _____    ______ ____
ROOT
ATOM      1  C   LIG    1       23.397 -20.972   2.972  0.00  0.00    +0.042 C 
ATOM      2  C   LIG    1       23.412 -20.466   4.423  0.00  0.00    +0.069 C 
ATOM      3  C   LIG    1       24.314 -19.202   4.674  0.00  0.00    -0.000 C 
ATOM      4  C   LIG    1       24.756 -19.115   6.166  0.00  0.00    +0.014 C 
ATOM      5  C   LIG    1       23.327 -18.019   4.433  0.00  0.00    +0.001 C 
ATOM      6  C   LIG    1       23.689 -16.940   3.394  0.00  0.00    -0.004 C 
ATOM      7  C   LIG    1       25.234 -16.727   3.186  0.00  0.00    -0.001 C 
ATOM      8  C   LIG    1       25.613 -18.175   2.703  0.00  0.00    +0.005 C 
ATOM      9  C   LIG    1       26.142 -15.999   4.430  0.00  0.00    -0.022 C 
ATOM     10  C   LIG    1       27.456 -16.122   3.397  0.00  0.00    +0.012 C 
ATOM     11  C   LIG    1       25.025 -14.815   4.671  0.00  0.00    +0.003 C 
ATOM     12  C   LIG    1       25.208 -13.640   3.715  0.00  0.00    +0.083 C 
ATOM     13  C   LIG    1       26.089 -12.775   4.547  0.00  0.00    +0.162 C 
ATOM     14  O   LIG    1       25.752 -11.729   5.043  0.00  0.00    -0.292 OA
ATOM     15  C   LIG    1       27.385 -13.454   4.868  0.00  0.00    +0.029 C 
ATOM     16  C   LIG    1       28.365 -12.915   4.122  0.00  0.00    +0.190 C 
ATOM     17  C   LIG    1       23.550 -15.072   4.912  0.00  0.00    +0.005 C 
ATOM     18  C   LIG    1       27.226 -14.961   5.261  0.00  0.00    +0.049 C 
ATOM     19  C   LIG    1       22.924 -15.672   3.700  0.00  0.00    +0.004 C 
ATOM     20  C   LIG    1       21.934 -18.620   4.151  0.00  0.00    +0.007 C 
ATOM     21  C   LIG    1       25.628 -19.164   3.855  0.00  0.00    +0.010 C 
ATOM     22  C   LIG    1       22.003 -19.983   4.804  0.00  0.00    +0.035 C 
ENDROOT
BRANCH   2  23
ATOM     23  O   LIG    1       23.789 -21.572   5.233  0.00  0.00    -0.388 OA
ATOM     24  H   LIG    1       24.246 -22.223   4.674  0.00  0.00    +0.210 HD
ENDBRANCH   2  23
BRANCH  16  25
ATOM     25  O   LIG    1       28.829 -11.619   4.400  0.00  0.00    -0.514 OA
ATOM     26  H   LIG    1       28.784 -11.096   3.577  0.00  0.00    +0.291 HD
ENDBRANCH  16  25
TORSDOF 2
ENDMDL
