MODEL 1
REMARK VINA RESULT:      -9.4      0.000      0.000
REMARK  Name = *****
REMARK                            x       y       z     vdW  Elec       q    Type
REMARK                         _______ _______ _______ _____ _____    ______ ____
ROOT
ATOM      1  CA  LIG    1       27.626 -20.224   7.141  0.00  0.00    +0.299 C 
ATOM      2  C   LIG    1       28.291 -20.051   5.784  0.00  0.00    +0.253 C 
ATOM      3  O   LIG    1       29.506 -20.031   5.599  0.00  0.00    -0.273 OA
ATOM      4  N   LIG    1       27.460 -19.852   4.704  0.00  0.00    -0.283 N 
ATOM      5  H   LIG    1       27.955 -19.518   3.884  0.00  0.00    +0.155 HD
ATOM      6  C   LIG    1       26.058 -19.896   4.696  0.00  0.00    +0.043 A 
ATOM      7  C   LIG    1       25.289 -20.660   5.589  0.00  0.00    +0.023 A 
ATOM      8  C   LIG    1       23.889 -20.536   5.589  0.00  0.00    +0.032 A 
ATOM      9  C   LIG    1       23.264 -19.727   4.645  0.00  0.00    +0.042 A 
ATOM     10  C   LIG    1       24.016 -19.039   3.698  0.00  0.00    +0.022 A 
ATOM     11 CL   LIG    1       21.549 -19.609   4.625  0.00  0.00    -0.084 Cl
ATOM     12  C   LIG    1       25.903 -21.719   6.453  0.00  0.00    +0.076 C 
ATOM     13  C   LIG    1       25.411 -19.125   3.723  0.00  0.00    +0.025 A 
ATOM     14  N   LIG    1       26.956 -21.553   7.187  0.00  0.00    -0.259 NA
ENDROOT
BRANCH  12  15
ATOM     15  C   LIG    1       25.275 -23.086   6.453  0.00  0.00    +0.001 A 
ATOM     16  C   LIG    1       23.890 -23.205   6.620  0.00  0.00    +0.010 A 
ATOM     17  C   LIG    1       23.290 -24.467   6.625  0.00  0.00    +0.001 A 
ATOM     18  C   LIG    1       24.068 -25.613   6.467  0.00  0.00    +0.000 A 
ATOM     19  C   LIG    1       25.450 -25.503   6.321  0.00  0.00    +0.001 A 
ATOM     20  C   LIG    1       26.055 -24.245   6.326  0.00  0.00    +0.010 A 
ENDBRANCH  12  15
BRANCH   1  22
ATOM     21  O   LIG    1       28.909 -19.162   8.930  0.00  0.00    -0.248 OA
ATOM     22  C   LIG    1       28.613 -20.166   8.302  0.00  0.00    +0.339 C 
BRANCH  22  23
ATOM     23  OXT LIG    1       29.074 -21.404   8.637  0.00  0.00    -0.479 OA
ATOM     24  HXT LIG    1       28.576 -21.671   9.448  0.00  0.00    +0.295 HD
ENDBRANCH  22  23
ENDBRANCH   1  22
TORSDOF 3
ENDMDL
MODEL 2
REMARK VINA RESULT:      -9.2      3.001      5.111
REMARK  Name = *****
REMARK                            x       y       z     vdW  Elec       q    Type
REMARK                         _______ _______ _______ _____ _____    ______ ____
ROOT
ATOM      1  CA  LIG    1       24.794 -23.735   5.510  0.00  0.00    +0.299 C 
ATOM      2  C   LIG    1       23.493 -23.424   6.234  0.00  0.00    +0.253 C 
ATOM      3  O   LIG    1       22.843 -24.242   6.883  0.00  0.00    -0.273 OA
ATOM      4  N   LIG    1       22.994 -22.148   6.100  0.00  0.00    -0.283 N 
ATOM      5  H   LIG    1       22.030 -22.069   6.403  0.00  0.00    +0.155 HD
ATOM      6  C   LIG    1       23.607 -21.065   5.454  0.00  0.00    +0.043 A 
ATOM      7  C   LIG    1       24.997 -20.909   5.322  0.00  0.00    +0.023 A 
ATOM      8  C   LIG    1       25.513 -19.859   4.543  0.00  0.00    +0.032 A 
ATOM      9  C   LIG    1       24.650 -18.924   3.980  0.00  0.00    +0.042 A 
ATOM     10  C   LIG    1       23.277 -19.020   4.184  0.00  0.00    +0.022 A 
ATOM     11 CL   LIG    1       25.289 -17.620   3.060  0.00  0.00    -0.084 Cl
ATOM     12  C   LIG    1       25.962 -21.746   6.107  0.00  0.00    +0.076 C 
ATOM     13  C   LIG    1       22.757 -20.088   4.921  0.00  0.00    +0.025 A 
ATOM     14  N   LIG    1       25.913 -23.036   6.200  0.00  0.00    -0.259 NA
ENDROOT
BRANCH  12  15
ATOM     15  C   LIG    1       27.054 -21.043   6.866  0.00  0.00    +0.001 A 
ATOM     16  C   LIG    1       28.344 -20.992   6.323  0.00  0.00    +0.010 A 
ATOM     17  C   LIG    1       29.371 -20.347   7.015  0.00  0.00    +0.001 A 
ATOM     18  C   LIG    1       29.118 -19.754   8.251  0.00  0.00    +0.000 A 
ATOM     19  C   LIG    1       27.841 -19.818   8.807  0.00  0.00    +0.001 A 
ATOM     20  C   LIG    1       26.814 -20.472   8.124  0.00  0.00    +0.010 A 
ENDBRANCH  12  15
BRANCH   1  22
ATOM     21  O   LIG    1       26.205 -25.712   5.784  0.00  0.00    -0.248 OA
ATOM     22  C   LIG    1       25.126 -25.224   5.489  0.00  0.00    +0.339 C 
BRANCH  22  23
ATOM     23  OXT LIG    1       24.033 -25.981   5.190  0.00  0.00    -0.479 OA
ATOM     24  HXT LIG    1       23.246 -25.435   5.435  0.00  0.00    +0.295 HD
ENDBRANCH  22  23
ENDBRANCH   1  22
TORSDOF 3
ENDMDL
MODEL 3
REMARK VINA RESULT:      -8.9      1.765      4.426
REMARK  Name = *****
REMARK                            x       y       z     vdW  Elec       q    Type
REMARK                         _______ _______ _______ _____ _____    ______ ____
ROOT
ATOM      1  CA  LIG    1       28.186 -20.317   6.251  0.00  0.00    +0.299 C 
ATOM      2  C   LIG    1       28.007 -20.434   7.758  0.00  0.00    +0.253 C 
ATOM      3  O   LIG    1       28.581 -19.727   8.585  0.00  0.00    -0.273 OA
ATOM      4  N   LIG    1       27.185 -21.440   8.212  0.00  0.00    -0.283 N 
ATOM      5  H   LIG    1       27.288 -21.613   9.206  0.00  0.00    +0.155 HD
ATOM      6  C   LIG    1       26.404 -22.308   7.436  0.00  0.00    +0.043 A 
ATOM      7  C   LIG    1       25.891 -21.987   6.168  0.00  0.00    +0.023 A 
ATOM      8  C   LIG    1       25.232 -22.971   5.411  0.00  0.00    +0.032 A 
ATOM      9  C   LIG    1       25.009 -24.232   5.954  0.00  0.00    +0.042 A 
ATOM     10  C   LIG    1       25.434 -24.527   7.246  0.00  0.00    +0.022 A 
ATOM     11 CL   LIG    1       24.169 -25.419   5.038  0.00  0.00    -0.084 Cl
ATOM     12  C   LIG    1       25.896 -20.582   5.649  0.00  0.00    +0.076 C 
ATOM     13  C   LIG    1       26.129 -23.567   7.986  0.00  0.00    +0.025 A 
ATOM     14  N   LIG    1       26.925 -19.798   5.653  0.00  0.00    -0.259 NA
ENDROOT
BRANCH  12  15
ATOM     15  C   LIG    1       24.609 -20.023   5.106  0.00  0.00    +0.001 A 
ATOM     16  C   LIG    1       23.417 -20.240   5.808  0.00  0.00    +0.010 A 
ATOM     17  C   LIG    1       22.212 -19.731   5.318  0.00  0.00    +0.001 A 
ATOM     18  C   LIG    1       22.190 -19.007   4.127  0.00  0.00    +0.000 A 
ATOM     19  C   LIG    1       23.370 -18.804   3.413  0.00  0.00    +0.001 A 
ATOM     20  C   LIG    1       24.575 -19.321   3.893  0.00  0.00    +0.010 A 
ENDBRANCH  12  15
BRANCH   1  22
ATOM     21  O   LIG    1       29.177 -18.353   5.186  0.00  0.00    -0.248 OA
ATOM     22  C   LIG    1       29.310 -19.366   5.855  0.00  0.00    +0.339 C 
BRANCH  22  23
ATOM     23  OXT LIG    1       30.497 -19.722   6.420  0.00  0.00    -0.479 OA
ATOM     24  HXT LIG    1       30.468 -20.705   6.522  0.00  0.00    +0.295 HD
ENDBRANCH  22  23
ENDBRANCH   1  22
TORSDOF 3
ENDMDL
MODEL 4
REMARK VINA RESULT:      -7.3      7.529     10.571
REMARK  Name = *****
REMARK                            x       y       z     vdW  Elec       q    Type
REMARK                         _______ _______ _______ _____ _____    ______ ____
ROOT
ATOM      1  CA  LIG    1       25.287 -32.013   5.777  0.00  0.00    +0.299 C 
ATOM      2  C   LIG    1       26.693 -32.353   6.248  0.00  0.00    +0.253 C 
ATOM      3  O   LIG    1       27.533 -32.940   5.569  0.00  0.00    -0.273 OA
ATOM      4  N   LIG    1       27.012 -32.022   7.546  0.00  0.00    -0.283 N 
ATOM      5  H   LIG    1       27.861 -32.473   7.869  0.00  0.00    +0.155 HD
ATOM      6  C   LIG    1       26.220 -31.306   8.455  0.00  0.00    +0.043 A 
ATOM      7  C   LIG    1       25.255 -30.356   8.083  0.00  0.00    +0.023 A 
ATOM      8  C   LIG    1       24.419 -29.788   9.060  0.00  0.00    +0.032 A 
ATOM      9  C   LIG    1       24.609 -30.101  10.403  0.00  0.00    +0.042 A 
ATOM     10  C   LIG    1       25.624 -30.971  10.786  0.00  0.00    +0.022 A 
ATOM     11 CL   LIG    1       23.608 -29.374  11.596  0.00  0.00    -0.084 Cl
ATOM     12  C   LIG    1       25.180 -29.813   6.688  0.00  0.00    +0.076 C 
ATOM     13  C   LIG    1       26.429 -31.572   9.815  0.00  0.00    +0.025 A 
ATOM     14  N   LIG    1       25.173 -30.537   5.615  0.00  0.00    -0.259 NA
ENDROOT
BRANCH  12  15
ATOM     15  C   LIG    1       25.137 -28.320   6.510  0.00  0.00    +0.001 A 
ATOM     16  C   LIG    1       24.223 -27.763   5.608  0.00  0.00    +0.010 A 
ATOM     17  C   LIG    1       24.170 -26.379   5.427  0.00  0.00    +0.001 A 
ATOM     18  C   LIG    1       25.030 -25.547   6.141  0.00  0.00    +0.000 A 
ATOM     19  C   LIG    1       25.957 -26.096   7.026  0.00  0.00    +0.001 A 
ATOM     20  C   LIG    1       26.020 -27.480   7.202  0.00  0.00    +0.010 A 
ENDBRANCH  12  15
BRANCH   1  22
ATOM     21  O   LIG    1       24.128 -33.553   4.275  0.00  0.00    -0.248 OA
ATOM     22  C   LIG    1       24.934 -32.651   4.438  0.00  0.00    +0.339 C 
BRANCH  22  23
ATOM     23  OXT LIG    1       25.560 -32.028   3.400  0.00  0.00    -0.479 OA
ATOM     24  HXT LIG    1       26.363 -32.569   3.201  0.00  0.00    +0.295 HD
ENDBRANCH  22  23
ENDBRANCH   1  22
TORSDOF 3
ENDMDL
MODEL 5
REMARK VINA RESULT:      -7.3      7.747      9.707
REMARK  Name = *****
REMARK                            x       y       z     vdW  Elec       q    Type
REMARK                         _______ _______ _______ _____ _____    ______ ____
ROOT
ATOM      1  CA  LIG    1       26.216 -31.585   6.755  0.00  0.00    +0.299 C 
ATOM      2  C   LIG    1       24.841 -31.735   6.120  0.00  0.00    +0.253 C 
ATOM      3  O   LIG    1       24.333 -32.808   5.802  0.00  0.00    -0.273 OA
ATOM      4  N   LIG    1       24.154 -30.576   5.839  0.00  0.00    -0.283 N 
ATOM      5  H   LIG    1       23.366 -30.726   5.218  0.00  0.00    +0.155 HD
ATOM      6  C   LIG    1       24.534 -29.267   6.170  0.00  0.00    +0.043 A 
ATOM      7  C   LIG    1       25.339 -28.934   7.273  0.00  0.00    +0.023 A 
ATOM      8  C   LIG    1       25.775 -27.610   7.446  0.00  0.00    +0.032 A 
ATOM      9  C   LIG    1       25.335 -26.615   6.578  0.00  0.00    +0.042 A 
ATOM     10  C   LIG    1       24.463 -26.922   5.538  0.00  0.00    +0.022 A 
ATOM     11 CL   LIG    1       25.841 -24.989   6.818  0.00  0.00    -0.084 Cl
ATOM     12  C   LIG    1       25.634 -29.922   8.360  0.00  0.00    +0.076 C 
ATOM     13  C   LIG    1       24.062 -28.246   5.335  0.00  0.00    +0.025 A 
ATOM     14  N   LIG    1       26.052 -31.131   8.163  0.00  0.00    -0.259 NA
ENDROOT
BRANCH  12  15
ATOM     15  C   LIG    1       25.405 -29.498   9.785  0.00  0.00    +0.001 A 
ATOM     16  C   LIG    1       26.382 -28.740  10.440  0.00  0.00    +0.010 A 
ATOM     17  C   LIG    1       26.188 -28.339  11.765  0.00  0.00    +0.001 A 
ATOM     18  C   LIG    1       25.021 -28.695  12.439  0.00  0.00    +0.000 A 
ATOM     19  C   LIG    1       24.053 -29.467  11.799  0.00  0.00    +0.001 A 
ATOM     20  C   LIG    1       24.248 -29.879  10.480  0.00  0.00    +0.010 A 
ENDBRANCH  12  15
BRANCH   1  22
ATOM     21  O   LIG    1       28.082 -33.072   6.229  0.00  0.00    -0.248 OA
ATOM     22  C   LIG    1       27.008 -32.887   6.779  0.00  0.00    +0.339 C 
BRANCH  22  23
ATOM     23  OXT LIG    1       26.423 -33.821   7.581  0.00  0.00    -0.479 OA
ATOM     24  HXT LIG    1       26.608 -33.538   8.510  0.00  0.00    +0.295 HD
ENDBRANCH  22  23
ENDBRANCH   1  22
TORSDOF 3
ENDMDL
MODEL 6
REMARK VINA RESULT:      -7.0      6.125      8.909
REMARK  Name = *****
REMARK                            x       y       z     vdW  Elec       q    Type
REMARK                         _______ _______ _______ _____ _____    ______ ____
ROOT
ATOM      1  CA  LIG    1       25.221 -26.988   6.444  0.00  0.00    +0.299 C 
ATOM      2  C   LIG    1       25.961 -27.733   5.343  0.00  0.00    +0.253 C 
ATOM      3  O   LIG    1       26.627 -27.194   4.461  0.00  0.00    -0.273 OA
ATOM      4  N   LIG    1       25.822 -29.102   5.315  0.00  0.00    -0.283 N 
ATOM      5  H   LIG    1       26.139 -29.512   4.443  0.00  0.00    +0.155 HD
ATOM      6  C   LIG    1       25.158 -29.904   6.254  0.00  0.00    +0.043 A 
ATOM      7  C   LIG    1       25.005 -29.568   7.610  0.00  0.00    +0.023 A 
ATOM      8  C   LIG    1       24.209 -30.372   8.444  0.00  0.00    +0.032 A 
ATOM      9  C   LIG    1       23.650 -31.546   7.949  0.00  0.00    +0.042 A 
ATOM     10  C   LIG    1       23.875 -31.932   6.632  0.00  0.00    +0.022 A 
ATOM     11 CL   LIG    1       22.709 -32.545   8.985  0.00  0.00    -0.084 Cl
ATOM     12  C   LIG    1       25.782 -28.452   8.238  0.00  0.00    +0.076 C 
ATOM     13  C   LIG    1       24.628 -31.113   5.786  0.00  0.00    +0.025 A 
ATOM     14  N   LIG    1       25.888 -27.259   7.746  0.00  0.00    -0.259 NA
ENDROOT
BRANCH  12  15
ATOM     15  C   LIG    1       26.519 -28.735   9.519  0.00  0.00    +0.001 A 
ATOM     16  C   LIG    1       27.150 -29.973   9.688  0.00  0.00    +0.010 A 
ATOM     17  C   LIG    1       27.837 -30.255  10.871  0.00  0.00    +0.001 A 
ATOM     18  C   LIG    1       27.895 -29.305  11.890  0.00  0.00    +0.000 A 
ATOM     19  C   LIG    1       27.252 -28.078  11.737  0.00  0.00    +0.001 A 
ATOM     20  C   LIG    1       26.555 -27.797  10.560  0.00  0.00    +0.010 A 
ENDBRANCH  12  15
BRANCH   1  22
ATOM     21  O   LIG    1       25.860 -24.670   6.882  0.00  0.00    -0.248 OA
ATOM     22  C   LIG    1       25.209 -25.477   6.239  0.00  0.00    +0.339 C 
BRANCH  22  23
ATOM     23  OXT LIG    1       24.445 -25.118   5.168  0.00  0.00    -0.479 OA
ATOM     24  HXT LIG    1       24.374 -25.924   4.601  0.00  0.00    +0.295 HD
ENDBRANCH  22  23
ENDBRANCH   1  22
TORSDOF 3
ENDMDL
MODEL 7
REMARK VINA RESULT:      -7.0      6.565      9.605
REMARK  Name = *****
REMARK                            x       y       z     vdW  Elec       q    Type
REMARK                         _______ _______ _______ _____ _____    ______ ____
ROOT
ATOM      1  CA  LIG    1       26.627 -29.507  10.340  0.00  0.00    +0.299 C 
ATOM      2  C   LIG    1       25.300 -29.714  11.054  0.00  0.00    +0.253 C 
ATOM      3  O   LIG    1       25.069 -29.366  12.210  0.00  0.00    -0.273 OA
ATOM      4  N   LIG    1       24.318 -30.387  10.363  0.00  0.00    -0.283 N 
ATOM      5  H   LIG    1       23.557 -30.694  10.960  0.00  0.00    +0.155 HD
ATOM      6  C   LIG    1       24.365 -30.814   9.028  0.00  0.00    +0.043 A 
ATOM      7  C   LIG    1       25.127 -30.189   8.027  0.00  0.00    +0.023 A 
ATOM      8  C   LIG    1       25.214 -30.769   6.750  0.00  0.00    +0.032 A 
ATOM      9  C   LIG    1       24.474 -31.909   6.453  0.00  0.00    +0.042 A 
ATOM     10  C   LIG    1       23.646 -32.480   7.413  0.00  0.00    +0.022 A 
ATOM     11 CL   LIG    1       24.555 -32.592   4.877  0.00  0.00    -0.084 Cl
ATOM     12  C   LIG    1       25.741 -28.837   8.232  0.00  0.00    +0.076 C 
ATOM     13  C   LIG    1       23.590 -31.933   8.699  0.00  0.00    +0.025 A 
ATOM     14  N   LIG    1       26.446 -28.496   9.263  0.00  0.00    -0.259 NA
ENDROOT
BRANCH  12  15
ATOM     15  C   LIG    1       25.504 -27.785   7.183  0.00  0.00    +0.001 A 
ATOM     16  C   LIG    1       26.364 -26.683   7.111  0.00  0.00    +0.010 A 
ATOM     17  C   LIG    1       26.159 -25.694   6.145  0.00  0.00    +0.001 A 
ATOM     18  C   LIG    1       25.094 -25.800   5.251  0.00  0.00    +0.000 A 
ATOM     19  C   LIG    1       24.222 -26.884   5.331  0.00  0.00    +0.001 A 
ATOM     20  C   LIG    1       24.417 -27.869   6.301  0.00  0.00    +0.010 A 
ENDBRANCH  12  15
BRANCH   1  22
ATOM     21  O   LIG    1       28.764 -29.600  11.523  0.00  0.00    -0.248 OA
ATOM     22  C   LIG    1       27.731 -29.003  11.263  0.00  0.00    +0.339 C 
BRANCH  22  23
ATOM     23  OXT LIG    1       27.482 -27.739  11.707  0.00  0.00    -0.479 OA
ATOM     24  HXT LIG    1       27.249 -27.826  12.664  0.00  0.00    +0.295 HD
ENDBRANCH  22  23
ENDBRANCH   1  22
TORSDOF 3
ENDMDL
MODEL 8
REMARK VINA RESULT:      -6.8      7.109     10.234
REMARK  Name = *****
REMARK                            x       y       z     vdW  Elec       q    Type
REMARK                         _______ _______ _______ _____ _____    ______ ____
ROOT
ATOM      1  CA  LIG    1       25.279 -30.577   9.868  0.00  0.00    +0.299 C 
ATOM      2  C   LIG    1       23.841 -31.076   9.886  0.00  0.00    +0.253 C 
ATOM      3  O   LIG    1       23.110 -31.060  10.874  0.00  0.00    -0.273 OA
ATOM      4  N   LIG    1       23.359 -31.629   8.721  0.00  0.00    -0.283 N 
ATOM      5  H   LIG    1       22.496 -32.144   8.858  0.00  0.00    +0.155 HD
ATOM      6  C   LIG    1       24.011 -31.689   7.481  0.00  0.00    +0.043 A 
ATOM      7  C   LIG    1       24.975 -30.762   7.051  0.00  0.00    +0.023 A 
ATOM      8  C   LIG    1       25.669 -30.982   5.848  0.00  0.00    +0.032 A 
ATOM      9  C   LIG    1       25.335 -32.066   5.042  0.00  0.00    +0.042 A 
ATOM     10  C   LIG    1       24.316 -32.935   5.418  0.00  0.00    +0.022 A 
ATOM     11 CL   LIG    1       26.160 -32.307   3.554  0.00  0.00    -0.084 Cl
ATOM     12  C   LIG    1       25.192 -29.463   7.764  0.00  0.00    +0.076 C 
ATOM     13  C   LIG    1       23.655 -32.747   6.635  0.00  0.00    +0.025 A 
ATOM     14  N   LIG    1       25.353 -29.341   9.042  0.00  0.00    -0.259 NA
ENDROOT
BRANCH  12  15
ATOM     15  C   LIG    1       25.198 -28.199   6.947  0.00  0.00    +0.001 A 
ATOM     16  C   LIG    1       26.130 -27.196   7.242  0.00  0.00    +0.010 A 
ATOM     17  C   LIG    1       26.148 -26.015   6.497  0.00  0.00    +0.001 A 
ATOM     18  C   LIG    1       25.238 -25.828   5.458  0.00  0.00    +0.000 A 
ATOM     19  C   LIG    1       24.295 -26.814   5.172  0.00  0.00    +0.001 A 
ATOM     20  C   LIG    1       24.265 -27.991   5.922  0.00  0.00    +0.010 A 
ENDBRANCH  12  15
BRANCH   1  22
ATOM     21  O   LIG    1       26.715 -30.821  11.830  0.00  0.00    -0.248 OA
ATOM     22  C   LIG    1       25.810 -30.236  11.256  0.00  0.00    +0.339 C 
BRANCH  22  23
ATOM     23  OXT LIG    1       25.217 -29.120  11.765  0.00  0.00    -0.479 OA
ATOM     24  HXT LIG    1       24.352 -29.031  11.295  0.00  0.00    +0.295 HD
ENDBRANCH  22  23
ENDBRANCH   1  22
TORSDOF 3
ENDMDL
MODEL 9
REMARK VINA RESULT:      -6.6      8.810     10.803
REMARK  Name = *****
REMARK                            x       y       z     vdW  Elec       q    Type
REMARK                         _______ _______ _______ _____ _____    ______ ____
ROOT
ATOM      1  CA  LIG    1       24.737 -30.612   7.615  0.00  0.00    +0.299 C 
ATOM      2  C   LIG    1       25.207 -29.187   7.366  0.00  0.00    +0.253 C 
ATOM      3  O   LIG    1       25.092 -28.591   6.297  0.00  0.00    -0.273 OA
ATOM      4  N   LIG    1       25.853 -28.553   8.404  0.00  0.00    -0.283 N 
ATOM      5  H   LIG    1       26.339 -27.713   8.110  0.00  0.00    +0.155 HD
ATOM      6  C   LIG    1       26.035 -29.036   9.708  0.00  0.00    +0.043 A 
ATOM      7  C   LIG    1       25.167 -29.942  10.341  0.00  0.00    +0.023 A 
ATOM      8  C   LIG    1       25.503 -30.470  11.599  0.00  0.00    +0.032 A 
ATOM      9  C   LIG    1       26.649 -30.028  12.254  0.00  0.00    +0.042 A 
ATOM     10  C   LIG    1       27.464 -29.063  11.672  0.00  0.00    +0.022 A 
ATOM     11 CL   LIG    1       27.036 -30.650  13.809  0.00  0.00    -0.084 Cl
ATOM     12  C   LIG    1       23.812 -30.257   9.783  0.00  0.00    +0.076 C 
ATOM     13  C   LIG    1       27.157 -28.567  10.401  0.00  0.00    +0.025 A 
ATOM     14  N   LIG    1       23.580 -30.584   8.552  0.00  0.00    -0.259 NA
ENDROOT
BRANCH  12  15
ATOM     15  C   LIG    1       22.627 -30.163  10.703  0.00  0.00    +0.001 A 
ATOM     16  C   LIG    1       21.509 -30.972  10.467  0.00  0.00    +0.010 A 
ATOM     17  C   LIG    1       20.397 -30.897  11.310  0.00  0.00    +0.001 A 
ATOM     18  C   LIG    1       20.395 -30.013  12.388  0.00  0.00    +0.000 A 
ATOM     19  C   LIG    1       21.496 -29.190  12.617  0.00  0.00    +0.001 A 
ATOM     20  C   LIG    1       22.605 -29.254  11.771  0.00  0.00    +0.010 A 
ENDBRANCH  12  15
BRANCH   1  22
ATOM     21  O   LIG    1       24.675 -32.415   5.967  0.00  0.00    -0.248 OA
ATOM     22  C   LIG    1       24.284 -31.322   6.345  0.00  0.00    +0.339 C 
BRANCH  22  23
ATOM     23  OXT LIG    1       23.297 -30.634   5.704  0.00  0.00    -0.479 OA
ATOM     24  HXT LIG    1       23.736 -29.852   5.287  0.00  0.00    +0.295 HD
ENDBRANCH  22  23
ENDBRANCH   1  22
TORSDOF 3
ENDMDL
