MODEL 1
REMARK VINA RESULT:      -8.3      0.000      0.000
REMARK  Name = *****
REMARK                            x       y       z     vdW  Elec       q    Type
REMARK                         _______ _______ _______ _____ _____    ______ ____
ROOT
ATOM      1  C   LIG    1       25.432 -23.023   6.110  0.00  0.00    +0.168 A 
ATOM      2  N   LIG    1       26.561 -22.467   6.550  0.00  0.00    -0.208 NA
ATOM      3  C   LIG    1       26.610 -21.141   6.405  0.00  0.00    +0.168 A 
ATOM      4  N   LIG    1       25.639 -20.388   5.897  0.00  0.00    -0.208 NA
ATOM      5  C   LIG    1       24.563 -21.047   5.474  0.00  0.00    +0.164 A 
ATOM      6  N   LIG    1       24.417 -22.365   5.555  0.00  0.00    -0.208 NA
ENDROOT
BRANCH   5   7
ATOM      7  C   LIG    1       23.471 -20.267   4.878  0.00  0.00    +0.019 A 
ATOM      8  C   LIG    1       22.152 -20.752   4.824  0.00  0.00    +0.015 A 
ATOM      9  C   LIG    1       21.122 -19.987   4.267  0.00  0.00    +0.046 A 
ATOM     10  C   LIG    1       21.385 -18.715   3.760  0.00  0.00    +0.120 A 
ATOM     11  C   LIG    1       22.685 -18.227   3.774  0.00  0.00    +0.046 A 
ATOM     12  C   LIG    1       23.713 -18.993   4.329  0.00  0.00    +0.015 A 
BRANCH  10  13
ATOM     13  O   LIG    1       20.308 -18.047   3.240  0.00  0.00    -0.495 OA
ATOM     14  C   LIG    1       19.134 -18.833   3.055  0.00  0.00    +0.277 C 
ENDBRANCH  10  13
ENDBRANCH   5   7
BRANCH   3  15
ATOM     15  C   LIG    1       27.873 -20.480   6.748  0.00  0.00    +0.061 A 
ATOM     16  C   LIG    1       28.635 -20.851   7.869  0.00  0.00    +0.131 A 
ATOM     17  C   LIG    1       29.870 -20.270   8.132  0.00  0.00    +0.091 A 
ATOM     18  C   LIG    1       30.381 -19.285   7.291  0.00  0.00    +0.124 A 
ATOM     19  C   LIG    1       29.638 -18.881   6.185  0.00  0.00    +0.046 A 
ATOM     20  C   LIG    1       28.395 -19.467   5.920  0.00  0.00    +0.019 A 
BRANCH  16  21
ATOM     21  O   LIG    1       28.251 -21.819   8.760  0.00  0.00    -0.506 OA
ATOM     22  H   LIG    1       28.821 -22.599   8.647  0.00  0.00    +0.292 HD
ENDBRANCH  16  21
BRANCH  18  23
ATOM     23  O   LIG    1       31.607 -18.692   7.430  0.00  0.00    -0.492 OA
BRANCH  23  24
ATOM     24  C   LIG    1       31.985 -18.395   8.777  0.00  0.00    +0.232 C 
BRANCH  24  25
ATOM     25  C   LIG    1       31.751 -16.906   9.075  0.00  0.00    +0.026 C 
BRANCH  25  26
ATOM     26  C   LIG    1       30.441 -16.657   9.849  0.00  0.00    +0.003 C 
ATOM     27  C   LIG    1       30.087 -17.716  10.883  0.00  0.00    +0.004 C 
ENDBRANCH  25  26
BRANCH  25  28
ATOM     28  C   LIG    1       33.021 -16.339   9.748  0.00  0.00    +0.007 C 
BRANCH  28  29
ATOM     29  C   LIG    1       32.777 -15.612  11.073  0.00  0.00    +0.000 C 
BRANCH  29  30
ATOM     30  C   LIG    1       33.020 -16.546  12.262  0.00  0.00    -0.003 C 
ATOM     31  C   LIG    1       32.494 -15.966  13.566  0.00  0.00    +0.004 C 
ENDBRANCH  29  30
ENDBRANCH  28  29
ENDBRANCH  25  28
ENDBRANCH  24  25
ENDBRANCH  23  24
ENDBRANCH  18  23
ENDBRANCH   3  15
BRANCH   1  35
ATOM     32  C   LIG    1       25.210 -27.298   6.370  0.00  0.00    +0.124 A 
ATOM     33  C   LIG    1       24.038 -26.544   6.477  0.00  0.00    +0.091 A 
ATOM     34  C   LIG    1       24.093 -25.152   6.416  0.00  0.00    +0.131 A 
ATOM     35  C   LIG    1       25.312 -24.482   6.230  0.00  0.00    +0.061 A 
ATOM     36  C   LIG    1       26.478 -25.259   6.130  0.00  0.00    +0.019 A 
ATOM     37  C   LIG    1       26.428 -26.646   6.198  0.00  0.00    +0.046 A 
BRANCH  34  38
ATOM     38  O   LIG    1       22.892 -24.500   6.531  0.00  0.00    -0.506 OA
ATOM     39  H   LIG    1       22.184 -25.160   6.655  0.00  0.00    +0.292 HD
ENDBRANCH  34  38
BRANCH  32  40
ATOM     40  O   LIG    1       25.065 -28.657   6.464  0.00  0.00    -0.492 OA
BRANCH  40  41
ATOM     41  C   LIG    1       25.827 -29.278   7.496  0.00  0.00    +0.232 C 
BRANCH  41  42
ATOM     42  C   LIG    1       24.958 -30.090   8.477  0.00  0.00    +0.026 C 
BRANCH  42  43
ATOM     43  C   LIG    1       25.052 -31.613   8.225  0.00  0.00    +0.003 C 
ATOM     44  C   LIG    1       23.731 -32.358   8.046  0.00  0.00    +0.004 C 
ENDBRANCH  42  43
BRANCH  42  45
ATOM     45  C   LIG    1       25.463 -29.705   9.896  0.00  0.00    +0.007 C 
BRANCH  45  46
ATOM     46  C   LIG    1       26.479 -28.564   9.972  0.00  0.00    +0.000 C 
BRANCH  46  48
ATOM     47  C   LIG    1       26.523 -27.424  12.235  0.00  0.00    +0.004 C 
ATOM     48  C   LIG    1       27.123 -28.516  11.364  0.00  0.00    -0.003 C 
ENDBRANCH  46  48
ENDBRANCH  45  46
ENDBRANCH  42  45
ENDBRANCH  41  42
ENDBRANCH  40  41
ENDBRANCH  32  40
ENDBRANCH   1  35
TORSDOF 20
ENDMDL
MODEL 2
REMARK VINA RESULT:      -7.7      0.539      9.822
REMARK  Name = *****
REMARK                            x       y       z     vdW  Elec       q    Type
REMARK                         _______ _______ _______ _____ _____    ______ ____
ROOT
ATOM      1  C   LIG    1       26.944 -21.314   6.279  0.00  0.00    +0.168 A 
ATOM      2  N   LIG    1       26.833 -22.635   6.422  0.00  0.00    -0.208 NA
ATOM      3  C   LIG    1       25.651 -23.129   6.046  0.00  0.00    +0.168 A 
ATOM      4  N   LIG    1       24.647 -22.417   5.544  0.00  0.00    -0.208 NA
ATOM      5  C   LIG    1       24.857 -21.106   5.460  0.00  0.00    +0.164 A 
ATOM      6  N   LIG    1       25.988 -20.509   5.821  0.00  0.00    -0.208 NA
ENDROOT
BRANCH   5   7
ATOM      7  C   LIG    1       23.770 -20.268   4.939  0.00  0.00    +0.019 A 
ATOM      8  C   LIG    1       22.417 -20.603   5.125  0.00  0.00    +0.015 A 
ATOM      9  C   LIG    1       21.395 -19.783   4.635  0.00  0.00    +0.046 A 
ATOM     10  C   LIG    1       21.701 -18.604   3.958  0.00  0.00    +0.120 A 
ATOM     11  C   LIG    1       23.031 -18.268   3.736  0.00  0.00    +0.046 A 
ATOM     12  C   LIG    1       24.050 -19.089   4.223  0.00  0.00    +0.015 A 
BRANCH  10  13
ATOM     13  O   LIG    1       20.630 -17.870   3.522  0.00  0.00    -0.495 OA
ATOM     14  C   LIG    1       19.494 -18.631   3.118  0.00  0.00    +0.277 C 
ENDBRANCH  10  13
ENDBRANCH   5   7
BRANCH   3  15
ATOM     15  C   LIG    1       25.416 -24.554   6.296  0.00  0.00    +0.061 A 
ATOM     16  C   LIG    1       24.123 -25.101   6.366  0.00  0.00    +0.131 A 
ATOM     17  C   LIG    1       23.920 -26.467   6.522  0.00  0.00    +0.091 A 
ATOM     18  C   LIG    1       25.004 -27.335   6.629  0.00  0.00    +0.124 A 
ATOM     19  C   LIG    1       26.297 -26.819   6.585  0.00  0.00    +0.046 A 
ATOM     20  C   LIG    1       26.501 -25.443   6.427  0.00  0.00    +0.019 A 
BRANCH  16  21
ATOM     21  O   LIG    1       22.977 -24.356   6.256  0.00  0.00    -0.506 OA
ATOM     22  H   LIG    1       22.402 -24.757   5.582  0.00  0.00    +0.292 HD
ENDBRANCH  16  21
BRANCH  18  23
ATOM     23  O   LIG    1       24.913 -28.698   6.729  0.00  0.00    -0.492 OA
BRANCH  23  24
ATOM     24  C   LIG    1       25.603 -29.268   7.842  0.00  0.00    +0.232 C 
BRANCH  24  25
ATOM     25  C   LIG    1       24.600 -29.679   8.932  0.00  0.00    +0.026 C 
BRANCH  25  26
ATOM     26  C   LIG    1       24.081 -31.118   8.745  0.00  0.00    +0.003 C 
ATOM     27  C   LIG    1       25.158 -32.192   8.674  0.00  0.00    +0.004 C 
ENDBRANCH  25  26
BRANCH  25  28
ATOM     28  C   LIG    1       25.234 -29.390  10.312  0.00  0.00    +0.007 C 
BRANCH  28  29
ATOM     29  C   LIG    1       26.575 -28.653  10.261  0.00  0.00    +0.000 C 
BRANCH  29  30
ATOM     30  C   LIG    1       27.629 -29.377  11.104  0.00  0.00    -0.003 C 
ATOM     31  C   LIG    1       27.729 -28.809  12.512  0.00  0.00    +0.004 C 
ENDBRANCH  29  30
ENDBRANCH  28  29
ENDBRANCH  25  28
ENDBRANCH  24  25
ENDBRANCH  23  24
ENDBRANCH  18  23
ENDBRANCH   3  15
BRANCH   1  35
ATOM     32  C   LIG    1       30.690 -19.495   7.303  0.00  0.00    +0.124 A 
ATOM     33  C   LIG    1       30.129 -20.440   8.166  0.00  0.00    +0.091 A 
ATOM     34  C   LIG    1       28.902 -21.028   7.861  0.00  0.00    +0.131 A 
ATOM     35  C   LIG    1       28.215 -20.700   6.682  0.00  0.00    +0.061 A 
ATOM     36  C   LIG    1       28.794 -19.744   5.831  0.00  0.00    +0.019 A 
ATOM     37  C   LIG    1       30.014 -19.151   6.136  0.00  0.00    +0.046 A 
BRANCH  34  38
ATOM     38  O   LIG    1       28.433 -21.942   8.769  0.00  0.00    -0.506 OA
ATOM     39  H   LIG    1       29.096 -22.649   8.878  0.00  0.00    +0.292 HD
ENDBRANCH  34  38
BRANCH  32  40
ATOM     40  O   LIG    1       31.886 -18.954   7.694  0.00  0.00    -0.492 OA
BRANCH  40  41
ATOM     41  C   LIG    1       31.950 -18.547   9.058  0.00  0.00    +0.232 C 
BRANCH  41  42
ATOM     42  C   LIG    1       31.821 -17.020   9.234  0.00  0.00    +0.026 C 
BRANCH  42  43
ATOM     43  C   LIG    1       30.454 -16.609   9.830  0.00  0.00    +0.003 C 
ATOM     44  C   LIG    1       29.670 -17.700  10.554  0.00  0.00    +0.004 C 
ENDBRANCH  42  43
BRANCH  42  45
ATOM     45  C   LIG    1       33.004 -16.607  10.155  0.00  0.00    +0.007 C 
BRANCH  45  46
ATOM     46  C   LIG    1       32.649 -15.788  11.396  0.00  0.00    +0.000 C 
BRANCH  46  48
ATOM     47  C   LIG    1       32.626 -15.815  13.929  0.00  0.00    +0.004 C 
ATOM     48  C   LIG    1       32.844 -16.629  12.664  0.00  0.00    -0.003 C 
ENDBRANCH  46  48
ENDBRANCH  45  46
ENDBRANCH  42  45
ENDBRANCH  41  42
ENDBRANCH  40  41
ENDBRANCH  32  40
ENDBRANCH   1  35
TORSDOF 20
ENDMDL
MODEL 3
REMARK VINA RESULT:      -7.5      0.976      2.066
REMARK  Name = *****
REMARK                            x       y       z     vdW  Elec       q    Type
REMARK                         _______ _______ _______ _____ _____    ______ ____
ROOT
ATOM      1  C   LIG    1       25.586 -23.050   6.044  0.00  0.00    +0.168 A 
ATOM      2  N   LIG    1       26.702 -22.472   6.487  0.00  0.00    -0.208 NA
ATOM      3  C   LIG    1       26.704 -21.140   6.391  0.00  0.00    +0.168 A 
ATOM      4  N   LIG    1       25.701 -20.403   5.924  0.00  0.00    -0.208 NA
ATOM      5  C   LIG    1       24.641 -21.083   5.493  0.00  0.00    +0.164 A 
ATOM      6  N   LIG    1       24.541 -22.407   5.528  0.00  0.00    -0.208 NA
ENDROOT
BRANCH   5   7
ATOM      7  C   LIG    1       23.515 -20.320   4.941  0.00  0.00    +0.019 A 
ATOM      8  C   LIG    1       23.675 -19.021   4.426  0.00  0.00    +0.015 A 
ATOM      9  C   LIG    1       22.592 -18.317   3.889  0.00  0.00    +0.046 A 
ATOM     10  C   LIG    1       21.326 -18.897   3.846  0.00  0.00    +0.120 A 
ATOM     11  C   LIG    1       21.137 -20.167   4.377  0.00  0.00    +0.046 A 
ATOM     12  C   LIG    1       22.218 -20.868   4.914  0.00  0.00    +0.015 A 
BRANCH  10  13
ATOM     13  O   LIG    1       20.335 -18.127   3.298  0.00  0.00    -0.495 OA
ATOM     14  C   LIG    1       19.122 -18.814   3.001  0.00  0.00    +0.277 C 
ENDBRANCH  10  13
ENDBRANCH   5   7
BRANCH   3  15
ATOM     15  C   LIG    1       27.949 -20.450   6.739  0.00  0.00    +0.061 A 
ATOM     16  C   LIG    1       28.714 -20.802   7.865  0.00  0.00    +0.131 A 
ATOM     17  C   LIG    1       29.934 -20.191   8.134  0.00  0.00    +0.091 A 
ATOM     18  C   LIG    1       30.426 -19.195   7.294  0.00  0.00    +0.124 A 
ATOM     19  C   LIG    1       29.679 -18.810   6.184  0.00  0.00    +0.046 A 
ATOM     20  C   LIG    1       28.451 -19.425   5.912  0.00  0.00    +0.019 A 
BRANCH  16  21
ATOM     21  O   LIG    1       28.348 -21.778   8.755  0.00  0.00    -0.506 OA
ATOM     22  H   LIG    1       27.881 -21.366   9.502  0.00  0.00    +0.292 HD
ENDBRANCH  16  21
BRANCH  18  23
ATOM     23  O   LIG    1       31.637 -18.574   7.439  0.00  0.00    -0.492 OA
BRANCH  23  24
ATOM     24  C   LIG    1       32.084 -18.430   8.789  0.00  0.00    +0.232 C 
BRANCH  24  25
ATOM     25  C   LIG    1       31.895 -16.978   9.257  0.00  0.00    +0.026 C 
BRANCH  25  26
ATOM     26  C   LIG    1       30.452 -16.689   9.717  0.00  0.00    +0.003 C 
ATOM     27  C   LIG    1       29.861 -17.708  10.681  0.00  0.00    +0.004 C 
ENDBRANCH  25  26
BRANCH  25  28
ATOM     28  C   LIG    1       32.987 -16.658  10.302  0.00  0.00    +0.007 C 
BRANCH  28  29
ATOM     29  C   LIG    1       32.488 -15.920  11.548  0.00  0.00    +0.000 C 
BRANCH  29  30
ATOM     30  C   LIG    1       33.025 -16.576  12.824  0.00  0.00    -0.003 C 
ATOM     31  C   LIG    1       32.630 -15.807  14.076  0.00  0.00    +0.004 C 
ENDBRANCH  29  30
ENDBRANCH  28  29
ENDBRANCH  25  28
ENDBRANCH  24  25
ENDBRANCH  23  24
ENDBRANCH  18  23
ENDBRANCH   3  15
BRANCH   1  35
ATOM     32  C   LIG    1       25.499 -27.327   6.348  0.00  0.00    +0.124 A 
ATOM     33  C   LIG    1       25.090 -26.716   5.159  0.00  0.00    +0.091 A 
ATOM     34  C   LIG    1       25.092 -25.327   5.048  0.00  0.00    +0.131 A 
ATOM     35  C   LIG    1       25.516 -24.515   6.112  0.00  0.00    +0.061 A 
ATOM     36  C   LIG    1       25.917 -25.150   7.299  0.00  0.00    +0.019 A 
ATOM     37  C   LIG    1       25.910 -26.534   7.416  0.00  0.00    +0.046 A 
BRANCH  34  38
ATOM     38  O   LIG    1       24.674 -24.821   3.844  0.00  0.00    -0.506 OA
ATOM     39  H   LIG    1       24.968 -25.418   3.130  0.00  0.00    +0.292 HD
ENDBRANCH  34  38
BRANCH  32  40
ATOM     40  O   LIG    1       25.443 -28.696   6.375  0.00  0.00    -0.492 OA
BRANCH  40  41
ATOM     41  C   LIG    1       24.781 -29.253   7.507  0.00  0.00    +0.232 C 
BRANCH  41  42
ATOM     42  C   LIG    1       25.760 -29.837   8.545  0.00  0.00    +0.026 C 
BRANCH  42  43
ATOM     43  C   LIG    1       25.324 -29.537   9.999  0.00  0.00    +0.003 C 
ATOM     44  C   LIG    1       24.832 -30.725  10.822  0.00  0.00    +0.004 C 
ENDBRANCH  42  43
BRANCH  42  45
ATOM     45  C   LIG    1       25.809 -31.364   8.257  0.00  0.00    +0.007 C 
BRANCH  45  46
ATOM     46  C   LIG    1       25.437 -31.803   6.841  0.00  0.00    +0.000 C 
BRANCH  46  48
ATOM     47  C   LIG    1       24.036 -33.320   8.311  0.00  0.00    +0.004 C 
ATOM     48  C   LIG    1       24.449 -32.977   6.889  0.00  0.00    -0.003 C 
ENDBRANCH  46  48
ENDBRANCH  45  46
ENDBRANCH  42  45
ENDBRANCH  41  42
ENDBRANCH  40  41
ENDBRANCH  32  40
ENDBRANCH   1  35
TORSDOF 20
ENDMDL
MODEL 4
REMARK VINA RESULT:      -7.0      0.945     10.299
REMARK  Name = *****
REMARK                            x       y       z     vdW  Elec       q    Type
REMARK                         _______ _______ _______ _____ _____    ______ ____
ROOT
ATOM      1  C   LIG    1       26.744 -21.149   6.201  0.00  0.00    +0.168 A 
ATOM      2  N   LIG    1       26.728 -22.475   6.327  0.00  0.00    -0.208 NA
ATOM      3  C   LIG    1       25.567 -23.043   5.995  0.00  0.00    +0.168 A 
ATOM      4  N   LIG    1       24.496 -22.395   5.548  0.00  0.00    -0.208 NA
ATOM      5  C   LIG    1       24.614 -21.072   5.476  0.00  0.00    +0.164 A 
ATOM      6  N   LIG    1       25.717 -20.404   5.796  0.00  0.00    -0.208 NA
ENDROOT
BRANCH   5   7
ATOM      7  C   LIG    1       23.451 -20.303   5.015  0.00  0.00    +0.019 A 
ATOM      8  C   LIG    1       23.559 -18.962   4.605  0.00  0.00    +0.015 A 
ATOM      9  C   LIG    1       22.442 -18.252   4.153  0.00  0.00    +0.046 A 
ATOM     10  C   LIG    1       21.193 -18.868   4.091  0.00  0.00    +0.120 A 
ATOM     11  C   LIG    1       21.056 -20.182   4.521  0.00  0.00    +0.046 A 
ATOM     12  C   LIG    1       22.171 -20.889   4.974  0.00  0.00    +0.015 A 
BRANCH  10  13
ATOM     13  O   LIG    1       20.165 -18.087   3.632  0.00  0.00    -0.495 OA
ATOM     14  C   LIG    1       20.126 -17.901   2.219  0.00  0.00    +0.277 C 
ENDBRANCH  10  13
ENDBRANCH   5   7
BRANCH   3  15
ATOM     15  C   LIG    1       25.439 -24.484   6.233  0.00  0.00    +0.061 A 
ATOM     16  C   LIG    1       24.190 -25.119   6.343  0.00  0.00    +0.131 A 
ATOM     17  C   LIG    1       24.087 -26.499   6.487  0.00  0.00    +0.091 A 
ATOM     18  C   LIG    1       25.230 -27.291   6.541  0.00  0.00    +0.124 A 
ATOM     19  C   LIG    1       26.483 -26.687   6.457  0.00  0.00    +0.046 A 
ATOM     20  C   LIG    1       26.586 -25.298   6.312  0.00  0.00    +0.019 A 
BRANCH  16  21
ATOM     21  O   LIG    1       22.993 -24.454   6.286  0.00  0.00    -0.506 OA
ATOM     22  H   LIG    1       23.010 -23.834   5.536  0.00  0.00    +0.292 HD
ENDBRANCH  16  21
BRANCH  18  23
ATOM     23  O   LIG    1       25.236 -28.657   6.624  0.00  0.00    -0.492 OA
BRANCH  23  24
ATOM     24  C   LIG    1       24.262 -29.211   7.511  0.00  0.00    +0.232 C 
BRANCH  24  25
ATOM     25  C   LIG    1       24.950 -29.791   8.757  0.00  0.00    +0.026 C 
BRANCH  25  26
ATOM     26  C   LIG    1       23.946 -30.177   9.861  0.00  0.00    +0.003 C 
ATOM     27  C   LIG    1       24.314 -29.714  11.264  0.00  0.00    +0.004 C 
ENDBRANCH  25  26
BRANCH  25  28
ATOM     28  C   LIG    1       25.892 -30.931   8.308  0.00  0.00    +0.007 C 
BRANCH  28  29
ATOM     29  C   LIG    1       25.257 -31.954   7.362  0.00  0.00    +0.000 C 
BRANCH  29  30
ATOM     30  C   LIG    1       26.294 -32.505   6.378  0.00  0.00    -0.003 C 
ATOM     31  C   LIG    1       26.152 -31.894   4.992  0.00  0.00    +0.004 C 
ENDBRANCH  29  30
ENDBRANCH  28  29
ENDBRANCH  25  28
ENDBRANCH  24  25
ENDBRANCH  23  24
ENDBRANCH  18  23
ENDBRANCH   3  15
BRANCH   1  35
ATOM     32  C   LIG    1       30.398 -19.089   7.090  0.00  0.00    +0.124 A 
ATOM     33  C   LIG    1       29.959 -20.104   7.945  0.00  0.00    +0.091 A 
ATOM     34  C   LIG    1       28.763 -20.771   7.684  0.00  0.00    +0.131 A 
ATOM     35  C   LIG    1       27.987 -20.454   6.558  0.00  0.00    +0.061 A 
ATOM     36  C   LIG    1       28.445 -19.427   5.715  0.00  0.00    +0.019 A 
ATOM     37  C   LIG    1       29.633 -18.756   5.977  0.00  0.00    +0.046 A 
BRANCH  34  38
ATOM     38  O   LIG    1       28.414 -21.749   8.579  0.00  0.00    -0.506 OA
ATOM     39  H   LIG    1       27.451 -21.709   8.734  0.00  0.00    +0.292 HD
ENDBRANCH  34  38
BRANCH  32  40
ATOM     40  O   LIG    1       31.572 -18.473   7.437  0.00  0.00    -0.492 OA
BRANCH  40  41
ATOM     41  C   LIG    1       31.765 -18.280   8.836  0.00  0.00    +0.232 C 
BRANCH  41  42
ATOM     42  C   LIG    1       31.597 -16.809   9.266  0.00  0.00    +0.026 C 
BRANCH  42  43
ATOM     43  C   LIG    1       30.362 -16.597  10.172  0.00  0.00    +0.003 C 
ATOM     44  C   LIG    1       29.689 -17.856  10.713  0.00  0.00    +0.004 C 
ENDBRANCH  42  43
BRANCH  42  45
ATOM     45  C   LIG    1       32.921 -16.435   9.992  0.00  0.00    +0.007 C 
BRANCH  45  46
ATOM     46  C   LIG    1       33.025 -16.828  11.466  0.00  0.00    +0.000 C 
BRANCH  46  48
ATOM     47  C   LIG    1       32.605 -15.964  13.811  0.00  0.00    +0.004 C 
ATOM     48  C   LIG    1       32.865 -15.591  12.360  0.00  0.00    -0.003 C 
ENDBRANCH  46  48
ENDBRANCH  45  46
ENDBRANCH  42  45
ENDBRANCH  41  42
ENDBRANCH  40  41
ENDBRANCH  32  40
ENDBRANCH   1  35
TORSDOF 20
ENDMDL
MODEL 5
REMARK VINA RESULT:      -6.9      1.268     10.446
REMARK  Name = *****
REMARK                            x       y       z     vdW  Elec       q    Type
REMARK                         _______ _______ _______ _____ _____    ______ ____
ROOT
ATOM      1  C   LIG    1       26.866 -21.299   6.289  0.00  0.00    +0.168 A 
ATOM      2  N   LIG    1       26.807 -22.620   6.452  0.00  0.00    -0.208 NA
ATOM      3  C   LIG    1       25.637 -23.163   6.106  0.00  0.00    +0.168 A 
ATOM      4  N   LIG    1       24.598 -22.496   5.614  0.00  0.00    -0.208 NA
ATOM      5  C   LIG    1       24.759 -21.179   5.508  0.00  0.00    +0.164 A 
ATOM      6  N   LIG    1       25.873 -20.536   5.838  0.00  0.00    -0.208 NA
ENDROOT
BRANCH   5   7
ATOM      7  C   LIG    1       23.631 -20.389   4.997  0.00  0.00    +0.019 A 
ATOM      8  C   LIG    1       23.793 -19.069   4.539  0.00  0.00    +0.015 A 
ATOM      9  C   LIG    1       22.709 -18.339   4.040  0.00  0.00    +0.046 A 
ATOM     10  C   LIG    1       21.441 -18.914   3.977  0.00  0.00    +0.120 A 
ATOM     11  C   LIG    1       21.251 -20.205   4.452  0.00  0.00    +0.046 A 
ATOM     12  C   LIG    1       22.333 -20.933   4.952  0.00  0.00    +0.015 A 
BRANCH  10  13
ATOM     13  O   LIG    1       20.450 -18.117   3.469  0.00  0.00    -0.495 OA
ATOM     14  C   LIG    1       19.275 -18.802   3.043  0.00  0.00    +0.277 C 
ENDBRANCH  10  13
ENDBRANCH   5   7
BRANCH   3  15
ATOM     15  C   LIG    1       25.459 -24.592   6.381  0.00  0.00    +0.061 A 
ATOM     16  C   LIG    1       24.197 -25.208   6.363  0.00  0.00    +0.131 A 
ATOM     17  C   LIG    1       24.056 -26.580   6.545  0.00  0.00    +0.091 A 
ATOM     18  C   LIG    1       25.172 -27.381   6.766  0.00  0.00    +0.124 A 
ATOM     19  C   LIG    1       26.435 -26.795   6.811  0.00  0.00    +0.046 A 
ATOM     20  C   LIG    1       26.576 -25.414   6.627  0.00  0.00    +0.019 A 
BRANCH  16  21
ATOM     21  O   LIG    1       23.025 -24.532   6.137  0.00  0.00    -0.506 OA
ATOM     22  H   LIG    1       23.227 -23.683   5.709  0.00  0.00    +0.292 HD
ENDBRANCH  16  21
BRANCH  18  23
ATOM     23  O   LIG    1       25.147 -28.744   6.900  0.00  0.00    -0.492 OA
BRANCH  23  24
ATOM     24  C   LIG    1       24.479 -29.441   5.847  0.00  0.00    +0.232 C 
BRANCH  24  25
ATOM     25  C   LIG    1       24.746 -30.951   5.960  0.00  0.00    +0.026 C 
BRANCH  25  26
ATOM     26  C   LIG    1       25.725 -31.460   4.884  0.00  0.00    +0.003 C 
ATOM     27  C   LIG    1       26.506 -32.713   5.258  0.00  0.00    +0.004 C 
ENDBRANCH  25  26
BRANCH  25  28
ATOM     28  C   LIG    1       25.159 -31.265   7.415  0.00  0.00    +0.007 C 
BRANCH  28  29
ATOM     29  C   LIG    1       24.059 -31.896   8.274  0.00  0.00    +0.000 C 
BRANCH  29  30
ATOM     30  C   LIG    1       24.039 -31.280   9.676  0.00  0.00    -0.003 C 
ATOM     31  C   LIG    1       23.078 -30.106   9.775  0.00  0.00    +0.004 C 
ENDBRANCH  29  30
ENDBRANCH  28  29
ENDBRANCH  25  28
ENDBRANCH  24  25
ENDBRANCH  23  24
ENDBRANCH  18  23
ENDBRANCH   3  15
BRANCH   1  35
ATOM     32  C   LIG    1       30.559 -19.325   7.213  0.00  0.00    +0.124 A 
ATOM     33  C   LIG    1       30.067 -20.300   8.086  0.00  0.00    +0.091 A 
ATOM     34  C   LIG    1       28.858 -20.938   7.813  0.00  0.00    +0.131 A 
ATOM     35  C   LIG    1       28.121 -20.632   6.658  0.00  0.00    +0.061 A 
ATOM     36  C   LIG    1       28.632 -19.646   5.798  0.00  0.00    +0.019 A 
ATOM     37  C   LIG    1       29.834 -19.003   6.070  0.00  0.00    +0.046 A 
BRANCH  34  38
ATOM     38  O   LIG    1       28.457 -21.878   8.727  0.00  0.00    -0.506 OA
ATOM     39  H   LIG    1       28.861 -22.736   8.498  0.00  0.00    +0.292 HD
ENDBRANCH  34  38
BRANCH  32  40
ATOM     40  O   LIG    1       31.743 -18.735   7.573  0.00  0.00    -0.492 OA
BRANCH  40  41
ATOM     41  C   LIG    1       31.847 -18.375   8.947  0.00  0.00    +0.232 C 
BRANCH  41  42
ATOM     42  C   LIG    1       31.682 -16.859   9.183  0.00  0.00    +0.026 C 
BRANCH  42  43
ATOM     43  C   LIG    1       30.475 -16.533  10.093  0.00  0.00    +0.003 C 
ATOM     44  C   LIG    1       29.970 -17.663  10.988  0.00  0.00    +0.004 C 
ENDBRANCH  42  43
BRANCH  42  45
ATOM     45  C   LIG    1       33.025 -16.389   9.810  0.00  0.00    +0.007 C 
BRANCH  45  46
ATOM     46  C   LIG    1       32.933 -15.651  11.146  0.00  0.00    +0.000 C 
BRANCH  46  48
ATOM     47  C   LIG    1       32.548 -16.032  13.621  0.00  0.00    +0.004 C 
ATOM     48  C   LIG    1       33.012 -16.647  12.311  0.00  0.00    -0.003 C 
ENDBRANCH  46  48
ENDBRANCH  45  46
ENDBRANCH  42  45
ENDBRANCH  41  42
ENDBRANCH  40  41
ENDBRANCH  32  40
ENDBRANCH   1  35
TORSDOF 20
ENDMDL
MODEL 6
REMARK VINA RESULT:      -6.4      1.115     10.340
REMARK  Name = *****
REMARK                            x       y       z     vdW  Elec       q    Type
REMARK                         _______ _______ _______ _____ _____    ______ ____
ROOT
ATOM      1  C   LIG    1       26.224 -21.120   6.395  0.00  0.00    +0.168 A 
ATOM      2  N   LIG    1       26.328 -22.448   6.433  0.00  0.00    -0.208 NA
ATOM      3  C   LIG    1       25.264 -23.095   5.954  0.00  0.00    +0.168 A 
ATOM      4  N   LIG    1       24.178 -22.517   5.448  0.00  0.00    -0.208 NA
ATOM      5  C   LIG    1       24.171 -21.187   5.474  0.00  0.00    +0.164 A 
ATOM      6  N   LIG    1       25.169 -20.445   5.942  0.00  0.00    -0.208 NA
ENDROOT
BRANCH   5   7
ATOM      7  C   LIG    1       22.984 -20.497   4.953  0.00  0.00    +0.019 A 
ATOM      8  C   LIG    1       22.996 -19.126   4.640  0.00  0.00    +0.015 A 
ATOM      9  C   LIG    1       21.860 -18.490   4.129  0.00  0.00    +0.046 A 
ATOM     10  C   LIG    1       20.687 -19.212   3.910  0.00  0.00    +0.120 A 
ATOM     11  C   LIG    1       20.643 -20.561   4.240  0.00  0.00    +0.046 A 
ATOM     12  C   LIG    1       21.777 -21.194   4.752  0.00  0.00    +0.015 A 
BRANCH  10  13
ATOM     13  O   LIG    1       19.634 -18.499   3.404  0.00  0.00    -0.495 OA
ATOM     14  C   LIG    1       19.905 -17.779   2.204  0.00  0.00    +0.277 C 
ENDBRANCH  10  13
ENDBRANCH   5   7
BRANCH   3  15
ATOM     15  C   LIG    1       25.257 -24.555   6.085  0.00  0.00    +0.061 A 
ATOM     16  C   LIG    1       24.081 -25.282   6.333  0.00  0.00    +0.131 A 
ATOM     17  C   LIG    1       24.081 -26.672   6.373  0.00  0.00    +0.091 A 
ATOM     18  C   LIG    1       25.261 -27.384   6.181  0.00  0.00    +0.124 A 
ATOM     19  C   LIG    1       26.447 -26.690   5.955  0.00  0.00    +0.046 A 
ATOM     20  C   LIG    1       26.447 -25.290   5.915  0.00  0.00    +0.019 A 
BRANCH  16  21
ATOM     21  O   LIG    1       22.854 -24.699   6.520  0.00  0.00    -0.506 OA
ATOM     22  H   LIG    1       22.872 -24.179   7.342  0.00  0.00    +0.292 HD
ENDBRANCH  16  21
BRANCH  18  23
ATOM     23  O   LIG    1       25.358 -28.749   6.145  0.00  0.00    -0.492 OA
BRANCH  23  24
ATOM     24  C   LIG    1       24.387 -29.444   6.930  0.00  0.00    +0.232 C 
BRANCH  24  25
ATOM     25  C   LIG    1       25.080 -30.235   8.050  0.00  0.00    +0.026 C 
BRANCH  25  26
ATOM     26  C   LIG    1       25.614 -29.325   9.174  0.00  0.00    +0.003 C 
ATOM     27  C   LIG    1       26.965 -29.729   9.749  0.00  0.00    +0.004 C 
ENDBRANCH  25  26
BRANCH  25  28
ATOM     28  C   LIG    1       24.123 -31.354   8.520  0.00  0.00    +0.007 C 
BRANCH  28  29
ATOM     29  C   LIG    1       23.614 -31.204   9.957  0.00  0.00    +0.000 C 
BRANCH  29  30
ATOM     30  C   LIG    1       24.028 -32.405  10.812  0.00  0.00    -0.003 C 
ATOM     31  C   LIG    1       25.264 -33.103  10.263  0.00  0.00    +0.004 C 
ENDBRANCH  29  30
ENDBRANCH  28  29
ENDBRANCH  25  28
ENDBRANCH  24  25
ENDBRANCH  23  24
ENDBRANCH  18  23
ENDBRANCH   3  15
BRANCH   1  35
ATOM     32  C   LIG    1       29.614 -18.895   7.790  0.00  0.00    +0.124 A 
ATOM     33  C   LIG    1       28.669 -19.352   8.712  0.00  0.00    +0.091 A 
ATOM     34  C   LIG    1       27.549 -20.060   8.276  0.00  0.00    +0.131 A 
ATOM     35  C   LIG    1       27.355 -20.342   6.915  0.00  0.00    +0.061 A 
ATOM     36  C   LIG    1       28.315 -19.868   6.005  0.00  0.00    +0.019 A 
ATOM     37  C   LIG    1       29.428 -19.156   6.435  0.00  0.00    +0.046 A 
BRANCH  34  38
ATOM     38  O   LIG    1       26.679 -20.465   9.254  0.00  0.00    -0.506 OA
ATOM     39  H   LIG    1       26.455 -19.700   9.817  0.00  0.00    +0.292 HD
ENDBRANCH  34  38
BRANCH  32  40
ATOM     40  O   LIG    1       30.670 -18.190   8.306  0.00  0.00    -0.492 OA
BRANCH  40  41
ATOM     41  C   LIG    1       30.467 -17.668   9.616  0.00  0.00    +0.232 C 
BRANCH  41  42
ATOM     42  C   LIG    1       31.771 -17.578  10.434  0.00  0.00    +0.026 C 
BRANCH  42  43
ATOM     43  C   LIG    1       32.878 -16.793   9.693  0.00  0.00    +0.003 C 
ATOM     44  C   LIG    1       32.626 -15.304   9.469  0.00  0.00    +0.004 C 
ENDBRANCH  42  43
BRANCH  42  45
ATOM     45  C   LIG    1       31.374 -16.897  11.774  0.00  0.00    +0.007 C 
BRANCH  45  46
ATOM     46  C   LIG    1       32.447 -16.042  12.449  0.00  0.00    +0.000 C 
BRANCH  46  48
ATOM     47  C   LIG    1       32.415 -17.457  14.551  0.00  0.00    +0.004 C 
ATOM     48  C   LIG    1       32.263 -16.060  13.973  0.00  0.00    -0.003 C 
ENDBRANCH  46  48
ENDBRANCH  45  46
ENDBRANCH  42  45
ENDBRANCH  41  42
ENDBRANCH  40  41
ENDBRANCH  32  40
ENDBRANCH   1  35
TORSDOF 20
ENDMDL
MODEL 7
REMARK VINA RESULT:      -6.2      2.053      6.865
REMARK  Name = *****
REMARK                            x       y       z     vdW  Elec       q    Type
REMARK                         _______ _______ _______ _____ _____    ______ ____
ROOT
ATOM      1  C   LIG    1       25.934 -23.305   6.373  0.00  0.00    +0.168 A 
ATOM      2  N   LIG    1       25.076 -22.492   5.757  0.00  0.00    -0.208 NA
ATOM      3  C   LIG    1       25.438 -21.207   5.762  0.00  0.00    +0.168 A 
ATOM      4  N   LIG    1       26.556 -20.728   6.297  0.00  0.00    -0.208 NA
ATOM      5  C   LIG    1       27.333 -21.623   6.902  0.00  0.00    +0.164 A 
ATOM      6  N   LIG    1       27.060 -22.921   6.970  0.00  0.00    -0.208 NA
ENDROOT
BRANCH   5   7
ATOM      7  C   LIG    1       28.568 -21.143   7.536  0.00  0.00    +0.019 A 
ATOM      8  C   LIG    1       28.927 -19.783   7.535  0.00  0.00    +0.015 A 
ATOM      9  C   LIG    1       30.099 -19.344   8.159  0.00  0.00    +0.046 A 
ATOM     10  C   LIG    1       30.935 -20.251   8.807  0.00  0.00    +0.120 A 
ATOM     11  C   LIG    1       30.617 -21.604   8.794  0.00  0.00    +0.046 A 
ATOM     12  C   LIG    1       29.448 -22.042   8.169  0.00  0.00    +0.015 A 
BRANCH  10  13
ATOM     13  O   LIG    1       32.055 -19.720   9.389  0.00  0.00    -0.495 OA
ATOM     14  C   LIG    1       32.072 -18.298   9.492  0.00  0.00    +0.277 C 
ENDBRANCH  10  13
ENDBRANCH   5   7
BRANCH   3  15
ATOM     15  C   LIG    1       24.479 -20.243   5.215  0.00  0.00    +0.061 A 
ATOM     16  C   LIG    1       23.125 -20.233   5.594  0.00  0.00    +0.131 A 
ATOM     17  C   LIG    1       22.248 -19.260   5.128  0.00  0.00    +0.091 A 
ATOM     18  C   LIG    1       22.690 -18.270   4.254  0.00  0.00    +0.124 A 
ATOM     19  C   LIG    1       24.021 -18.268   3.844  0.00  0.00    +0.046 A 
ATOM     20  C   LIG    1       24.904 -19.248   4.313  0.00  0.00    +0.019 A 
BRANCH  16  21
ATOM     21  O   LIG    1       22.574 -21.140   6.461  0.00  0.00    -0.506 OA
ATOM     22  H   LIG    1       23.287 -21.648   6.884  0.00  0.00    +0.292 HD
ENDBRANCH  16  21
BRANCH  18  23
ATOM     23  O   LIG    1       21.924 -17.238   3.784  0.00  0.00    -0.492 OA
BRANCH  23  24
ATOM     24  C   LIG    1       22.647 -16.049   3.458  0.00  0.00    +0.232 C 
BRANCH  24  25
ATOM     25  C   LIG    1       22.656 -15.090   4.659  0.00  0.00    +0.026 C 
BRANCH  25  26
ATOM     26  C   LIG    1       22.205 -15.774   5.965  0.00  0.00    +0.003 C 
ATOM     27  C   LIG    1       21.387 -14.900   6.906  0.00  0.00    +0.004 C 
ENDBRANCH  25  26
BRANCH  25  28
ATOM     28  C   LIG    1       24.041 -14.408   4.728  0.00  0.00    +0.007 C 
BRANCH  28  29
ATOM     29  C   LIG    1       24.799 -14.356   3.398  0.00  0.00    +0.000 C 
BRANCH  29  30
ATOM     30  C   LIG    1       26.163 -15.041   3.519  0.00  0.00    -0.003 C 
ATOM     31  C   LIG    1       27.175 -14.181   4.260  0.00  0.00    +0.004 C 
ENDBRANCH  29  30
ENDBRANCH  28  29
ENDBRANCH  25  28
ENDBRANCH  24  25
ENDBRANCH  23  24
ENDBRANCH  18  23
ENDBRANCH   3  15
BRANCH   1  35
ATOM     32  C   LIG    1       25.082 -27.507   6.425  0.00  0.00    +0.124 A 
ATOM     33  C   LIG    1       24.024 -26.595   6.397  0.00  0.00    +0.091 A 
ATOM     34  C   LIG    1       24.280 -25.224   6.401  0.00  0.00    +0.131 A 
ATOM     35  C   LIG    1       25.595 -24.733   6.415  0.00  0.00    +0.061 A 
ATOM     36  C   LIG    1       26.643 -25.668   6.448  0.00  0.00    +0.019 A 
ATOM     37  C   LIG    1       26.391 -27.034   6.452  0.00  0.00    +0.046 A 
BRANCH  34  38
ATOM     38  O   LIG    1       23.179 -24.409   6.374  0.00  0.00    -0.506 OA
ATOM     39  H   LIG    1       23.292 -23.701   7.036  0.00  0.00    +0.292 HD
ENDBRANCH  34  38
BRANCH  32  40
ATOM     40  O   LIG    1       24.736 -28.833   6.442  0.00  0.00    -0.492 OA
BRANCH  40  41
ATOM     41  C   LIG    1       25.364 -29.610   7.458  0.00  0.00    +0.232 C 
BRANCH  41  42
ATOM     42  C   LIG    1       24.778 -29.347   8.860  0.00  0.00    +0.026 C 
BRANCH  42  43
ATOM     43  C   LIG    1       23.627 -30.320   9.209  0.00  0.00    +0.003 C 
ATOM     44  C   LIG    1       22.983 -30.150  10.583  0.00  0.00    +0.004 C 
ENDBRANCH  42  43
BRANCH  42  45
ATOM     45  C   LIG    1       25.974 -29.487   9.843  0.00  0.00    +0.007 C 
BRANCH  45  46
ATOM     46  C   LIG    1       26.774 -28.216  10.130  0.00  0.00    +0.000 C 
BRANCH  46  48
ATOM     47  C   LIG    1       25.579 -28.061  12.360  0.00  0.00    +0.004 C 
ATOM     48  C   LIG    1       26.918 -28.007  11.644  0.00  0.00    -0.003 C 
ENDBRANCH  46  48
ENDBRANCH  45  46
ENDBRANCH  42  45
ENDBRANCH  41  42
ENDBRANCH  40  41
ENDBRANCH  32  40
ENDBRANCH   1  35
TORSDOF 20
ENDMDL
MODEL 8
REMARK VINA RESULT:      -6.1      1.128      9.446
REMARK  Name = *****
REMARK                            x       y       z     vdW  Elec       q    Type
REMARK                         _______ _______ _______ _____ _____    ______ ____
ROOT
ATOM      1  C   LIG    1       26.150 -21.055   6.009  0.00  0.00    +0.168 A 
ATOM      2  N   LIG    1       26.268 -22.374   6.166  0.00  0.00    -0.208 NA
ATOM      3  C   LIG    1       25.177 -23.065   5.830  0.00  0.00    +0.168 A 
ATOM      4  N   LIG    1       24.053 -22.541   5.352  0.00  0.00    -0.208 NA
ATOM      5  C   LIG    1       24.037 -21.214   5.251  0.00  0.00    +0.164 A 
ATOM      6  N   LIG    1       25.060 -20.430   5.572  0.00  0.00    -0.208 NA
ENDROOT
BRANCH   5   7
ATOM      7  C   LIG    1       22.809 -20.579   4.754  0.00  0.00    +0.019 A 
ATOM      8  C   LIG    1       21.601 -21.288   4.630  0.00  0.00    +0.015 A 
ATOM      9  C   LIG    1       20.438 -20.661   4.171  0.00  0.00    +0.046 A 
ATOM     10  C   LIG    1       20.452 -19.308   3.836  0.00  0.00    +0.120 A 
ATOM     11  C   LIG    1       21.641 -18.595   3.921  0.00  0.00    +0.046 A 
ATOM     12  C   LIG    1       22.802 -19.223   4.377  0.00  0.00    +0.015 A 
BRANCH  10  13
ATOM     13  O   LIG    1       19.262 -18.789   3.401  0.00  0.00    -0.495 OA
ATOM     14  C   LIG    1       19.360 -17.848   2.335  0.00  0.00    +0.277 C 
ENDBRANCH  10  13
ENDBRANCH   5   7
BRANCH   3  15
ATOM     15  C   LIG    1       25.193 -24.506   6.101  0.00  0.00    +0.061 A 
ATOM     16  C   LIG    1       24.020 -25.234   6.362  0.00  0.00    +0.131 A 
ATOM     17  C   LIG    1       24.045 -26.614   6.535  0.00  0.00    +0.091 A 
ATOM     18  C   LIG    1       25.248 -27.313   6.467  0.00  0.00    +0.124 A 
ATOM     19  C   LIG    1       26.429 -26.614   6.231  0.00  0.00    +0.046 A 
ATOM     20  C   LIG    1       26.404 -25.226   6.057  0.00  0.00    +0.019 A 
BRANCH  16  21
ATOM     21  O   LIG    1       22.775 -24.666   6.435  0.00  0.00    -0.506 OA
ATOM     22  H   LIG    1       22.804 -23.786   6.022  0.00  0.00    +0.292 HD
ENDBRANCH  16  21
BRANCH  18  23
ATOM     23  O   LIG    1       25.373 -28.672   6.567  0.00  0.00    -0.492 OA
BRANCH  23  24
ATOM     24  C   LIG    1       24.312 -29.326   7.268  0.00  0.00    +0.232 C 
BRANCH  24  25
ATOM     25  C   LIG    1       24.707 -29.546   8.737  0.00  0.00    +0.026 C 
BRANCH  25  26
ATOM     26  C   LIG    1       23.604 -30.258   9.545  0.00  0.00    +0.003 C 
ATOM     27  C   LIG    1       23.204 -31.632   9.025  0.00  0.00    +0.004 C 
ENDBRANCH  25  26
BRANCH  25  28
ATOM     28  C   LIG    1       26.088 -30.239   8.772  0.00  0.00    +0.007 C 
BRANCH  28  29
ATOM     29  C   LIG    1       27.035 -29.730   9.862  0.00  0.00    +0.000 C 
BRANCH  29  30
ATOM     30  C   LIG    1       26.762 -28.258  10.181  0.00  0.00    -0.003 C 
ATOM     31  C   LIG    1       26.951 -27.944  11.657  0.00  0.00    +0.004 C 
ENDBRANCH  29  30
ENDBRANCH  28  29
ENDBRANCH  25  28
ENDBRANCH  24  25
ENDBRANCH  23  24
ENDBRANCH  18  23
ENDBRANCH   3  15
BRANCH   1  35
ATOM     32  C   LIG    1       29.591 -18.660   6.910  0.00  0.00    +0.124 A 
ATOM     33  C   LIG    1       28.962 -19.369   7.937  0.00  0.00    +0.091 A 
ATOM     34  C   LIG    1       27.830 -20.137   7.668  0.00  0.00    +0.131 A 
ATOM     35  C   LIG    1       27.310 -20.229   6.368  0.00  0.00    +0.061 A 
ATOM     36  C   LIG    1       27.954 -19.505   5.351  0.00  0.00    +0.019 A 
ATOM     37  C   LIG    1       29.079 -18.733   5.618  0.00  0.00    +0.046 A 
BRANCH  34  38
ATOM     38  O   LIG    1       27.283 -20.794   8.740  0.00  0.00    -0.506 OA
ATOM     39  H   LIG    1       27.419 -21.754   8.626  0.00  0.00    +0.292 HD
ENDBRANCH  34  38
BRANCH  32  40
ATOM     40  O   LIG    1       30.683 -17.915   7.271  0.00  0.00    -0.492 OA
BRANCH  40  41
ATOM     41  C   LIG    1       30.666 -17.423   8.608  0.00  0.00    +0.232 C 
BRANCH  41  42
ATOM     42  C   LIG    1       31.896 -17.867   9.425  0.00  0.00    +0.026 C 
BRANCH  42  43
ATOM     43  C   LIG    1       32.181 -16.926  10.619  0.00  0.00    +0.003 C 
ATOM     44  C   LIG    1       30.974 -16.481  11.440  0.00  0.00    +0.004 C 
ENDBRANCH  42  43
BRANCH  42  45
ATOM     45  C   LIG    1       31.584 -19.317   9.892  0.00  0.00    +0.007 C 
BRANCH  45  46
ATOM     46  C   LIG    1       31.874 -20.434   8.889  0.00  0.00    +0.000 C 
BRANCH  46  48
ATOM     47  C   LIG    1       31.730 -22.943   8.563  0.00  0.00    +0.004 C 
ATOM     48  C   LIG    1       31.221 -21.745   9.347  0.00  0.00    -0.003 C 
ENDBRANCH  46  48
ENDBRANCH  45  46
ENDBRANCH  42  45
ENDBRANCH  41  42
ENDBRANCH  40  41
ENDBRANCH  32  40
ENDBRANCH   1  35
TORSDOF 20
ENDMDL
MODEL 9
REMARK VINA RESULT:      -6.0      2.210     11.305
REMARK  Name = *****
REMARK                            x       y       z     vdW  Elec       q    Type
REMARK                         _______ _______ _______ _____ _____    ______ ____
ROOT
ATOM      1  C   LIG    1       25.336 -21.126   5.955  0.00  0.00    +0.168 A 
ATOM      2  N   LIG    1       25.018 -22.420   5.904  0.00  0.00    -0.208 NA
ATOM      3  C   LIG    1       25.932 -23.230   6.442  0.00  0.00    +0.168 A 
ATOM      4  N   LIG    1       27.066 -22.836   7.014  0.00  0.00    -0.208 NA
ATOM      5  C   LIG    1       27.292 -21.525   6.995  0.00  0.00    +0.164 A 
ATOM      6  N   LIG    1       26.459 -20.632   6.473  0.00  0.00    -0.208 NA
ENDROOT
BRANCH   5   7
ATOM      7  C   LIG    1       28.544 -21.036   7.588  0.00  0.00    +0.019 A 
ATOM      8  C   LIG    1       28.859 -19.667   7.640  0.00  0.00    +0.015 A 
ATOM      9  C   LIG    1       30.049 -19.220   8.224  0.00  0.00    +0.046 A 
ATOM     10  C   LIG    1       30.947 -20.131   8.779  0.00  0.00    +0.120 A 
ATOM     11  C   LIG    1       30.671 -21.490   8.712  0.00  0.00    +0.046 A 
ATOM     12  C   LIG    1       29.484 -21.935   8.127  0.00  0.00    +0.015 A 
BRANCH  10  13
ATOM     13  O   LIG    1       32.079 -19.591   9.329  0.00  0.00    -0.495 OA
ATOM     14  C   LIG    1       32.072 -18.173   9.471  0.00  0.00    +0.277 C 
ENDBRANCH  10  13
ENDBRANCH   5   7
BRANCH   3  15
ATOM     15  C   LIG    1       25.706 -24.672   6.305  0.00  0.00    +0.061 A 
ATOM     16  C   LIG    1       24.419 -25.236   6.321  0.00  0.00    +0.131 A 
ATOM     17  C   LIG    1       24.219 -26.595   6.106  0.00  0.00    +0.091 A 
ATOM     18  C   LIG    1       25.302 -27.442   5.883  0.00  0.00    +0.124 A 
ATOM     19  C   LIG    1       26.591 -26.915   5.885  0.00  0.00    +0.046 A 
ATOM     20  C   LIG    1       26.792 -25.547   6.100  0.00  0.00    +0.019 A 
BRANCH  16  21
ATOM     21  O   LIG    1       23.274 -24.507   6.510  0.00  0.00    -0.506 OA
ATOM     22  H   LIG    1       22.509 -25.107   6.491  0.00  0.00    +0.292 HD
ENDBRANCH  16  21
BRANCH  18  23
ATOM     23  O   LIG    1       25.208 -28.780   5.608  0.00  0.00    -0.492 OA
BRANCH  23  24
ATOM     24  C   LIG    1       23.986 -29.397   6.019  0.00  0.00    +0.232 C 
BRANCH  24  25
ATOM     25  C   LIG    1       24.282 -30.697   6.783  0.00  0.00    +0.026 C 
BRANCH  25  26
ATOM     26  C   LIG    1       25.598 -31.361   6.334  0.00  0.00    +0.003 C 
ATOM     27  C   LIG    1       25.526 -32.113   5.012  0.00  0.00    +0.004 C 
ENDBRANCH  25  26
BRANCH  25  28
ATOM     28  C   LIG    1       24.186 -30.404   8.298  0.00  0.00    +0.007 C 
BRANCH  28  29
ATOM     29  C   LIG    1       25.531 -30.336   9.026  0.00  0.00    +0.000 C 
BRANCH  29  30
ATOM     30  C   LIG    1       26.080 -28.907   9.028  0.00  0.00    -0.003 C 
ATOM     31  C   LIG    1       26.945 -28.625  10.247  0.00  0.00    +0.004 C 
ENDBRANCH  29  30
ENDBRANCH  28  29
ENDBRANCH  25  28
ENDBRANCH  24  25
ENDBRANCH  23  24
ENDBRANCH  18  23
ENDBRANCH   3  15
BRANCH   1  35
ATOM     32  C   LIG    1       22.427 -18.438   4.315  0.00  0.00    +0.124 A 
ATOM     33  C   LIG    1       23.674 -18.555   3.697  0.00  0.00    +0.091 A 
ATOM     34  C   LIG    1       24.641 -19.409   4.228  0.00  0.00    +0.131 A 
ATOM     35  C   LIG    1       24.380 -20.176   5.374  0.00  0.00    +0.061 A 
ATOM     36  C   LIG    1       23.121 -20.038   5.981  0.00  0.00    +0.019 A 
ATOM     37  C   LIG    1       22.158 -19.182   5.460  0.00  0.00    +0.046 A 
BRANCH  34  38
ATOM     38  O   LIG    1       25.834 -19.456   3.553  0.00  0.00    -0.506 OA
ATOM     39  H   LIG    1       25.960 -18.616   3.073  0.00  0.00    +0.292 HD
ENDBRANCH  34  38
BRANCH  32  40
ATOM     40  O   LIG    1       21.547 -17.559   3.738  0.00  0.00    -0.492 OA
BRANCH  40  41
ATOM     41  C   LIG    1       22.129 -16.353   3.250  0.00  0.00    +0.232 C 
BRANCH  41  42
ATOM     42  C   LIG    1       22.540 -15.387   4.380  0.00  0.00    +0.026 C 
BRANCH  42  43
ATOM     43  C   LIG    1       22.234 -15.958   5.784  0.00  0.00    +0.003 C 
ATOM     44  C   LIG    1       21.426 -15.066   6.723  0.00  0.00    +0.004 C 
ENDBRANCH  42  43
BRANCH  42  45
ATOM     45  C   LIG    1       24.060 -15.132   4.176  0.00  0.00    +0.007 C 
BRANCH  45  46
ATOM     46  C   LIG    1       24.506 -13.671   4.115  0.00  0.00    +0.000 C 
BRANCH  46  48
ATOM     47  C   LIG    1       26.610 -14.952   3.519  0.00  0.00    +0.004 C 
ATOM     48  C   LIG    1       25.985 -13.581   3.714  0.00  0.00    -0.003 C 
ENDBRANCH  46  48
ENDBRANCH  45  46
ENDBRANCH  42  45
ENDBRANCH  41  42
ENDBRANCH  40  41
ENDBRANCH  32  40
ENDBRANCH   1  35
TORSDOF 20
ENDMDL
