MODEL 1
REMARK VINA RESULT:      16.2      0.000      0.000
REMARK  Name = *****
REMARK                            x       y       z     vdW  Elec       q    Type
REMARK                         _______ _______ _______ _____ _____    ______ ____
ROOT
ATOM      1  C   LIG    1       25.216 -15.919   3.851  0.00  0.00    -0.002 C 
ATOM      2  C   LIG    1       24.738 -14.642   3.557  0.00  0.00    -0.016 C 
ATOM      3  C   LIG    1       23.322 -14.220   3.360  0.00  0.00    +0.015 C 
ATOM      4  C   LIG    1       22.894 -13.049   3.891  0.00  0.00    +0.078 C 
ATOM      5  C   LIG    1       23.893 -12.293   4.727  0.00  0.00    +0.203 C 
ATOM      6  N   LIG    1       23.616 -11.691   5.849  0.00  0.00    -0.229 N 
ATOM      7  C   LIG    1       25.243 -12.315   4.072  0.00  0.00    +0.078 C 
ATOM      8  C   LIG    1       25.587 -13.445   3.423  0.00  0.00    +0.015 C 
ENDROOT
BRANCH   1  12
ATOM      9  C   LIG    1       21.983 -18.981   4.230  0.00  0.00    +0.030 A 
ATOM     10  C   LIG    1       23.293 -19.321   3.848  0.00  0.00    +0.024 A 
ATOM     11  C   LIG    1       24.346 -18.366   3.717  0.00  0.00    +0.010 A 
ATOM     12  C   LIG    1       24.134 -16.995   3.939  0.00  0.00    -0.017 A 
ATOM     13  C   LIG    1       22.864 -16.662   4.408  0.00  0.00    +0.010 A 
ATOM     14  C   LIG    1       21.860 -17.643   4.616  0.00  0.00    +0.024 A 
BRANCH   9  15
ATOM     15  N   LIG    1       20.923 -19.890   4.195  0.00  0.00    -0.330 N 
BRANCH  15  17
ATOM     16  C   LIG    1       19.351 -18.385   2.812  0.00  0.00    +0.024 C 
ATOM     17  C   LIG    1       19.748 -19.781   3.291  0.00  0.00    +0.102 C 
ENDBRANCH  15  17
BRANCH  15  18
ATOM     18  C   LIG    1       21.027 -21.175   4.935  0.00  0.00    +0.102 C 
ATOM     19  C   LIG    1       22.443 -21.475   5.425  0.00  0.00    +0.024 C 
ENDBRANCH  15  18
ENDBRANCH   9  15
ENDBRANCH   1  12
BRANCH   1  20
ATOM     20  C   LIG    1       26.761 -16.204   4.209  0.00  0.00    +0.012 A 
ATOM     21  C   LIG    1       27.965 -15.438   4.043  0.00  0.00    +0.125 A 
ATOM     22  C   LIG    1       29.260 -15.986   4.372  0.00  0.00    +0.032 A 
ATOM     23  C   LIG    1       29.440 -17.251   4.901  0.00  0.00    +0.031 A 
ATOM     24  C   LIG    1       28.312 -17.998   5.109  0.00  0.00    +0.117 A 
ATOM     25  C   LIG    1       27.033 -17.503   4.749  0.00  0.00    +0.040 A 
BRANCH  21  26
ATOM     26  S   LIG    1       28.179 -13.726   3.535  0.00  0.00    +0.110 S 
ATOM     27  O   LIG    1       28.486 -12.932   4.725  0.00  0.00    -0.142 OA
ATOM     28  O   LIG    1       27.098 -13.303   2.668  0.00  0.00    -0.142 OA
BRANCH  26  29
ATOM     29  O   LIG    1       29.474 -13.697   2.583  0.00  0.00    -0.250 OA
ATOM     30  H   LIG    1       29.126 -13.813   1.662  0.00  0.00    +0.245 HD
ENDBRANCH  26  29
ENDBRANCH  21  26
BRANCH  24  31
ATOM     31  S   LIG    1       28.466 -19.615   5.822  0.00  0.00    +0.110 S 
ATOM     32  O   LIG    1       29.337 -19.505   6.964  0.00  0.00    -0.142 OA
ATOM     33  O   LIG    1       28.760 -20.532   4.739  0.00  0.00    -0.142 OA
BRANCH  31  34
ATOM     34  O   LIG    1       26.998 -19.992   6.377  0.00  0.00    -0.250 OA
ATOM     35  H   LIG    1       26.678 -19.273   6.961  0.00  0.00    +0.245 HD
ENDBRANCH  31  34
ENDBRANCH  24  31
ENDBRANCH   1  20
BRANCH   6  36
ATOM     36  C   LIG    1       24.715 -11.449   6.865  0.00  0.00    +0.347 C 
ATOM     37  C   LIG    1       25.823 -12.478   6.792  0.00  0.00    +0.082 C 
ENDBRANCH   6  36
BRANCH   6  38
ATOM     38  C   LIG    1       22.163 -11.477   6.245  0.00  0.00    +0.347 C 
ATOM     39  C   LIG    1       21.410 -12.698   6.737  0.00  0.00    +0.082 C 
ENDBRANCH   6  38
TORSDOF 11
ENDMDL
MODEL 2
REMARK VINA RESULT:      17.3      0.333      1.526
REMARK  Name = *****
REMARK                            x       y       z     vdW  Elec       q    Type
REMARK                         _______ _______ _______ _____ _____    ______ ____
ROOT
ATOM      1  C   LIG    1       25.235 -15.909   3.764  0.00  0.00    -0.002 C 
ATOM      2  C   LIG    1       24.760 -14.638   3.443  0.00  0.00    -0.016 C 
ATOM      3  C   LIG    1       23.355 -14.236   3.146  0.00  0.00    +0.015 C 
ATOM      4  C   LIG    1       22.872 -13.075   3.651  0.00  0.00    +0.078 C 
ATOM      5  C   LIG    1       23.798 -12.309   4.559  0.00  0.00    +0.203 C 
ATOM      6  N   LIG    1       23.432 -11.717   5.661  0.00  0.00    -0.229 N 
ATOM      7  C   LIG    1       25.191 -12.307   4.002  0.00  0.00    +0.078 C 
ATOM      8  C   LIG    1       25.598 -13.428   3.374  0.00  0.00    +0.015 C 
ENDROOT
BRANCH   1  12
ATOM      9  C   LIG    1       22.079 -19.069   3.937  0.00  0.00    +0.030 A 
ATOM     10  C   LIG    1       23.225 -19.201   3.135  0.00  0.00    +0.024 A 
ATOM     11  C   LIG    1       24.249 -18.210   3.057  0.00  0.00    +0.010 A 
ATOM     12  C   LIG    1       24.166 -17.001   3.770  0.00  0.00    -0.017 A 
ATOM     13  C   LIG    1       23.081 -16.903   4.639  0.00  0.00    +0.010 A 
ATOM     14  C   LIG    1       22.123 -17.942   4.765  0.00  0.00    +0.024 A 
BRANCH   9  15
ATOM     15  N   LIG    1       21.006 -19.962   3.883  0.00  0.00    -0.330 N 
BRANCH  15  17
ATOM     16  C   LIG    1       21.965 -21.568   5.659  0.00  0.00    +0.024 C 
ATOM     17  C   LIG    1       21.004 -21.316   4.496  0.00  0.00    +0.102 C 
ENDBRANCH  15  17
BRANCH  15  18
ATOM     18  C   LIG    1       19.687 -19.501   3.378  0.00  0.00    +0.102 C 
ATOM     19  C   LIG    1       19.643 -18.002   3.085  0.00  0.00    +0.024 C 
ENDBRANCH  15  18
ENDBRANCH   9  15
ENDBRANCH   1  12
BRANCH   1  20
ATOM     20  C   LIG    1       26.755 -16.173   4.229  0.00  0.00    +0.012 A 
ATOM     21  C   LIG    1       27.955 -15.386   4.158  0.00  0.00    +0.125 A 
ATOM     22  C   LIG    1       29.231 -15.917   4.575  0.00  0.00    +0.032 A 
ATOM     23  C   LIG    1       29.394 -17.184   5.103  0.00  0.00    +0.031 A 
ATOM     24  C   LIG    1       28.267 -17.952   5.223  0.00  0.00    +0.117 A 
ATOM     25  C   LIG    1       27.009 -17.473   4.776  0.00  0.00    +0.040 A 
BRANCH  21  26
ATOM     26  S   LIG    1       28.176 -13.666   3.683  0.00  0.00    +0.110 S 
ATOM     27  O   LIG    1       28.502 -12.899   4.885  0.00  0.00    -0.142 OA
ATOM     28  O   LIG    1       27.088 -13.218   2.837  0.00  0.00    -0.142 OA
BRANCH  26  29
ATOM     29  O   LIG    1       29.460 -13.627   2.716  0.00  0.00    -0.250 OA
ATOM     30  H   LIG    1       29.368 -12.794   2.189  0.00  0.00    +0.245 HD
ENDBRANCH  26  29
ENDBRANCH  21  26
BRANCH  24  31
ATOM     31  S   LIG    1       28.396 -19.573   5.930  0.00  0.00    +0.110 S 
ATOM     32  O   LIG    1       27.060 -20.089   6.082  0.00  0.00    -0.142 OA
ATOM     33  O   LIG    1       29.296 -19.474   7.062  0.00  0.00    -0.142 OA
BRANCH  31  34
ATOM     34  O   LIG    1       29.134 -20.479   4.816  0.00  0.00    -0.250 OA
ATOM     35  H   LIG    1       28.498 -21.132   4.457  0.00  0.00    +0.245 HD
ENDBRANCH  31  34
ENDBRANCH  24  31
ENDBRANCH   1  20
BRANCH   6  36
ATOM     36  C   LIG    1       24.452 -11.464   6.754  0.00  0.00    +0.347 C 
ATOM     37  C   LIG    1       25.861 -11.837   6.344  0.00  0.00    +0.082 C 
ENDBRANCH   6  36
BRANCH   6  38
ATOM     38  C   LIG    1       21.952 -11.527   5.953  0.00  0.00    +0.347 C 
ATOM     39  C   LIG    1       21.244 -12.681   6.637  0.00  0.00    +0.082 C 
ENDBRANCH   6  38
TORSDOF 11
ENDMDL
