MODEL 1
REMARK VINA RESULT:      -8.4      0.000      0.000
REMARK  Name = *****
REMARK                            x       y       z     vdW  Elec       q    Type
REMARK                         _______ _______ _______ _____ _____    ______ ____
ROOT
ATOM      1  O   LIG    1       28.778 -19.806   7.430  0.00  0.00    -0.350 OA
ENDROOT
BRANCH   1   2
ATOM      2  C   LIG    1       29.711 -19.492   6.382  0.00  0.00    +0.183 C 
BRANCH   2   3
ATOM      3  C   LIG    1       31.107 -19.467   7.037  0.00  0.00    +0.266 C 
BRANCH   3   4
ATOM      4  O   LIG    1       31.314 -18.270   7.817  0.00  0.00    -0.461 OA
BRANCH   4   5
ATOM      5  C   LIG    1       31.890 -18.481   9.032  0.00  0.00    +0.324 C 
ATOM      6  O   LIG    1       32.153 -19.597   9.463  0.00  0.00    -0.249 OA
BRANCH   5   7
ATOM      7  C   LIG    1       32.260 -17.149   9.742  0.00  0.00    +0.163 C 
BRANCH   7   9
ATOM      8  C   LIG    1       31.667 -16.284  12.069  0.00  0.00    +0.009 C 
ATOM      9  C   LIG    1       31.135 -16.619  10.666  0.00  0.00    +0.011 C 
ATOM     10  C   LIG    1       29.988 -17.632  10.821  0.00  0.00    +0.009 C 
ENDBRANCH   7   9
BRANCH   7  11
ATOM     11  N   LIG    1       32.646 -16.121   8.740  0.00  0.00    -0.318 NA
ATOM     12  H   LIG    1       31.917 -15.403   8.732  0.00  0.00    +0.119 HD
ATOM     13  H   LIG    1       33.474 -15.628   9.081  0.00  0.00    +0.119 HD
ENDBRANCH   7  11
ENDBRANCH   5   7
ENDBRANCH   4   5
ENDBRANCH   3   4
ENDBRANCH   2   3
BRANCH   2  14
ATOM     14  C   LIG    1       29.413 -18.129   5.726  0.00  0.00    +0.191 C 
BRANCH  14  15
ATOM     15  O   LIG    1       28.578 -18.196   4.576  0.00  0.00    -0.392 OA
ATOM     16  H   LIG    1       27.838 -18.810   4.726  0.00  0.00    +0.209 HD
ENDBRANCH  14  15
ENDBRANCH   2  14
ENDBRANCH   1   2
BRANCH   1  17
ATOM     17  C   LIG    1       28.361 -21.168   7.520  0.00  0.00    +0.287 C 
BRANCH  17  18
ATOM     18  N   LIG    1       26.906 -21.210   7.474  0.00  0.00    -0.291 N 
ATOM     19  C   LIG    1       26.105 -20.771   6.456  0.00  0.00    +0.171 A 
ATOM     20  N   LIG    1       26.506 -20.214   5.286  0.00  0.00    -0.196 NA
ATOM     21  C   LIG    1       25.509 -19.876   4.510  0.00  0.00    +0.195 C 
ATOM     22  N   LIG    1       24.177 -20.063   4.835  0.00  0.00    -0.293 N 
ATOM     23  H   LIG    1       23.458 -19.824   4.173  0.00  0.00    +0.172 HD
ATOM     24  C   LIG    1       23.726 -20.639   6.011  0.00  0.00    +0.280 C 
ATOM     25  O   LIG    1       22.527 -20.797   6.240  0.00  0.00    -0.265 OA
ATOM     26  C   LIG    1       24.818 -21.003   6.891  0.00  0.00    +0.172 A 
ATOM     27  N   LIG    1       24.800 -21.539   8.150  0.00  0.00    -0.229 NA
ATOM     28  C   LIG    1       26.072 -21.635   8.480  0.00  0.00    +0.203 A 
BRANCH  21  29
ATOM     29  N   LIG    1       25.752 -19.294   3.311  0.00  0.00    -0.329 N 
ATOM     30  H   LIG    1       25.459 -19.808   2.491  0.00  0.00    +0.145 HD
ATOM     31  H   LIG    1       25.454 -18.323   3.289  0.00  0.00    +0.145 HD
ENDBRANCH  21  29
ENDBRANCH  17  18
ENDBRANCH   1  17
TORSDOF 12
ENDMDL
MODEL 2
REMARK VINA RESULT:      -8.3      2.863      7.818
REMARK  Name = *****
REMARK                            x       y       z     vdW  Elec       q    Type
REMARK                         _______ _______ _______ _____ _____    ______ ____
ROOT
ATOM      1  O   LIG    1       26.410 -23.576   6.856  0.00  0.00    -0.350 OA
ENDROOT
BRANCH   1   2
ATOM      2  C   LIG    1       25.175 -23.667   6.124  0.00  0.00    +0.183 C 
BRANCH   2   3
ATOM      3  C   LIG    1       24.044 -23.484   7.157  0.00  0.00    +0.266 C 
BRANCH   3   4
ATOM      4  O   LIG    1       22.908 -22.794   6.594  0.00  0.00    -0.461 OA
BRANCH   4   5
ATOM      5  C   LIG    1       23.069 -21.448   6.473  0.00  0.00    +0.324 C 
ATOM      6  O   LIG    1       23.406 -20.728   7.405  0.00  0.00    -0.249 OA
BRANCH   5   7
ATOM      7  C   LIG    1       22.875 -20.966   5.008  0.00  0.00    +0.163 C 
BRANCH   7   9
ATOM      8  C   LIG    1       22.074 -18.600   4.488  0.00  0.00    +0.009 C 
ATOM      9  C   LIG    1       23.290 -19.488   4.794  0.00  0.00    +0.011 C 
ATOM     10  C   LIG    1       24.297 -19.330   3.644  0.00  0.00    +0.009 C 
ENDBRANCH   7   9
BRANCH   7  11
ATOM     11  N   LIG    1       21.471 -21.188   4.575  0.00  0.00    -0.318 NA
ATOM     12  H   LIG    1       21.231 -20.452   3.904  0.00  0.00    +0.119 HD
ATOM     13  H   LIG    1       21.432 -22.046   4.022  0.00  0.00    +0.119 HD
ENDBRANCH   7  11
ENDBRANCH   5   7
ENDBRANCH   4   5
ENDBRANCH   3   4
ENDBRANCH   2   3
BRANCH   2  14
ATOM     14  C   LIG    1       25.020 -25.025   5.410  0.00  0.00    +0.191 C 
BRANCH  14  15
ATOM     15  O   LIG    1       23.715 -25.588   5.490  0.00  0.00    -0.392 OA
ATOM     16  H   LIG    1       23.471 -26.009   4.647  0.00  0.00    +0.209 HD
ENDBRANCH  14  15
ENDBRANCH   2  14
ENDBRANCH   1   2
BRANCH   1  17
ATOM     17  C   LIG    1       26.533 -22.475   7.756  0.00  0.00    +0.287 C 
BRANCH  17  18
ATOM     18  N   LIG    1       27.275 -21.414   7.090  0.00  0.00    -0.291 N 
ATOM     19  C   LIG    1       28.560 -21.025   7.351  0.00  0.00    +0.171 A 
ATOM     20  N   LIG    1       29.400 -21.552   8.277  0.00  0.00    -0.196 NA
ATOM     21  C   LIG    1       30.566 -20.962   8.308  0.00  0.00    +0.195 C 
ATOM     22  N   LIG    1       30.923 -19.908   7.486  0.00  0.00    -0.293 N 
ATOM     23  H   LIG    1       31.853 -19.528   7.529  0.00  0.00    +0.172 HD
ATOM     24  C   LIG    1       30.102 -19.349   6.520  0.00  0.00    +0.280 C 
ATOM     25  O   LIG    1       30.478 -18.421   5.804  0.00  0.00    -0.265 OA
ATOM     26  C   LIG    1       28.799 -19.980   6.484  0.00  0.00    +0.172 A 
ATOM     27  N   LIG    1       27.696 -19.694   5.724  0.00  0.00    -0.229 NA
ATOM     28  C   LIG    1       26.791 -20.564   6.125  0.00  0.00    +0.203 A 
BRANCH  21  29
ATOM     29  N   LIG    1       31.508 -21.370   9.194  0.00  0.00    -0.329 N 
ATOM     30  H   LIG    1       31.219 -22.061   9.874  0.00  0.00    +0.145 HD
ATOM     31  H   LIG    1       32.382 -21.614   8.738  0.00  0.00    +0.145 HD
ENDBRANCH  21  29
ENDBRANCH  17  18
ENDBRANCH   1  17
TORSDOF 12
ENDMDL
MODEL 3
REMARK VINA RESULT:      -8.3      1.997      2.562
REMARK  Name = *****
REMARK                            x       y       z     vdW  Elec       q    Type
REMARK                         _______ _______ _______ _____ _____    ______ ____
ROOT
ATOM      1  O   LIG    1       28.240 -20.262   8.036  0.00  0.00    -0.350 OA
ENDROOT
BRANCH   1   2
ATOM      2  C   LIG    1       29.338 -19.641   7.344  0.00  0.00    +0.183 C 
BRANCH   2   3
ATOM      3  C   LIG    1       29.708 -18.384   8.158  0.00  0.00    +0.266 C 
BRANCH   3   4
ATOM      4  O   LIG    1       31.095 -18.021   7.986  0.00  0.00    -0.461 OA
BRANCH   4   5
ATOM      5  C   LIG    1       31.913 -18.427   8.995  0.00  0.00    +0.324 C 
ATOM      6  O   LIG    1       32.111 -19.606   9.263  0.00  0.00    -0.249 OA
BRANCH   5   7
ATOM      7  C   LIG    1       32.631 -17.231   9.682  0.00  0.00    +0.163 C 
BRANCH   7   9
ATOM      8  C   LIG    1       30.702 -16.622  11.237  0.00  0.00    +0.009 C 
ATOM      9  C   LIG    1       32.185 -17.016  11.150  0.00  0.00    +0.011 C 
ATOM     10  C   LIG    1       33.010 -15.926  11.852  0.00  0.00    +0.009 C 
ENDBRANCH   7   9
BRANCH   7  11
ATOM     11  N   LIG    1       32.440 -15.991   8.886  0.00  0.00    -0.318 NA
ATOM     12  H   LIG    1       31.949 -15.313   9.476  0.00  0.00    +0.119 HD
ATOM     13  H   LIG    1       33.354 -15.562   8.726  0.00  0.00    +0.119 HD
ENDBRANCH   7  11
ENDBRANCH   5   7
ENDBRANCH   4   5
ENDBRANCH   3   4
ENDBRANCH   2   3
BRANCH   2  14
ATOM     14  C   LIG    1       28.969 -19.244   5.901  0.00  0.00    +0.191 C 
BRANCH  14  15
ATOM     15  O   LIG    1       29.679 -18.118   5.399  0.00  0.00    -0.392 OA
ATOM     16  H   LIG    1       29.101 -17.569   4.840  0.00  0.00    +0.209 HD
ENDBRANCH  14  15
ENDBRANCH   2  14
ENDBRANCH   1   2
BRANCH   1  17
ATOM     17  C   LIG    1       27.927 -21.601   7.656  0.00  0.00    +0.287 C 
BRANCH  17  18
ATOM     18  N   LIG    1       26.479 -21.737   7.591  0.00  0.00    -0.291 N 
ATOM     19  C   LIG    1       25.778 -22.798   7.088  0.00  0.00    +0.171 A 
ATOM     20  N   LIG    1       26.290 -23.936   6.555  0.00  0.00    -0.196 NA
ATOM     21  C   LIG    1       25.371 -24.768   6.141  0.00  0.00    +0.195 C 
ATOM     22  N   LIG    1       24.012 -24.529   6.231  0.00  0.00    -0.293 N 
ATOM     23  H   LIG    1       23.355 -25.231   5.936  0.00  0.00    +0.172 HD
ATOM     24  C   LIG    1       23.447 -23.388   6.780  0.00  0.00    +0.280 C 
ATOM     25  O   LIG    1       22.228 -23.235   6.850  0.00  0.00    -0.265 OA
ATOM     26  C   LIG    1       24.452 -22.447   7.228  0.00  0.00    +0.172 A 
ATOM     27  N   LIG    1       24.316 -21.196   7.768  0.00  0.00    -0.229 NA
ATOM     28  C   LIG    1       25.555 -20.789   7.959  0.00  0.00    +0.203 A 
BRANCH  21  29
ATOM     29  N   LIG    1       25.731 -25.944   5.571  0.00  0.00    -0.329 N 
ATOM     30  H   LIG    1       26.688 -26.019   5.254  0.00  0.00    +0.145 HD
ATOM     31  H   LIG    1       25.441 -26.743   6.127  0.00  0.00    +0.145 HD
ENDBRANCH  21  29
ENDBRANCH  17  18
ENDBRANCH   1  17
TORSDOF 12
ENDMDL
MODEL 4
REMARK VINA RESULT:      -8.2      3.306      8.270
REMARK  Name = *****
REMARK                            x       y       z     vdW  Elec       q    Type
REMARK                         _______ _______ _______ _____ _____    ______ ____
ROOT
ATOM      1  O   LIG    1       26.182 -20.670   7.155  0.00  0.00    -0.350 OA
ENDROOT
BRANCH   1   2
ATOM      2  C   LIG    1       24.903 -20.739   6.500  0.00  0.00    +0.183 C 
BRANCH   2   3
ATOM      3  C   LIG    1       24.113 -21.857   7.210  0.00  0.00    +0.266 C 
BRANCH   3   4
ATOM      4  O   LIG    1       24.604 -23.168   6.859  0.00  0.00    -0.461 OA
BRANCH   4   5
ATOM      5  C   LIG    1       23.631 -24.076   6.571  0.00  0.00    +0.324 C 
ATOM      6  O   LIG    1       22.465 -23.943   6.924  0.00  0.00    -0.249 OA
BRANCH   5   7
ATOM      7  C   LIG    1       24.156 -25.226   5.666  0.00  0.00    +0.163 C 
BRANCH   7   9
ATOM      8  C   LIG    1       26.442 -26.291   6.055  0.00  0.00    +0.009 C 
ATOM      9  C   LIG    1       24.955 -26.298   6.447  0.00  0.00    +0.011 C 
ATOM     10  C   LIG    1       24.408 -27.715   6.212  0.00  0.00    +0.009 C 
ENDBRANCH   7   9
BRANCH   7  11
ATOM     11  N   LIG    1       24.966 -24.673   4.549  0.00  0.00    -0.318 NA
ATOM     12  H   LIG    1       24.487 -23.838   4.200  0.00  0.00    +0.119 HD
ATOM     13  H   LIG    1       25.843 -24.313   4.930  0.00  0.00    +0.119 HD
ENDBRANCH   7  11
ENDBRANCH   5   7
ENDBRANCH   4   5
ENDBRANCH   3   4
ENDBRANCH   2   3
BRANCH   2  14
ATOM     14  C   LIG    1       25.034 -21.059   4.998  0.00  0.00    +0.191 C 
BRANCH  14  15
ATOM     15  O   LIG    1       23.895 -21.693   4.428  0.00  0.00    -0.392 OA
ATOM     16  H   LIG    1       24.164 -22.338   3.750  0.00  0.00    +0.209 HD
ENDBRANCH  14  15
ENDBRANCH   2  14
ENDBRANCH   1   2
BRANCH   1  17
ATOM     17  C   LIG    1       27.289 -21.224   6.445  0.00  0.00    +0.287 C 
BRANCH  17  18
ATOM     18  N   LIG    1       28.413 -20.305   6.549  0.00  0.00    -0.291 N 
ATOM     19  C   LIG    1       29.478 -20.406   7.402  0.00  0.00    +0.171 A 
ATOM     20  N   LIG    1       29.701 -21.384   8.316  0.00  0.00    -0.196 NA
ATOM     21  C   LIG    1       30.799 -21.204   9.002  0.00  0.00    +0.195 C 
ATOM     22  N   LIG    1       31.657 -20.134   8.825  0.00  0.00    -0.293 N 
ATOM     23  H   LIG    1       32.511 -20.079   9.354  0.00  0.00    +0.172 HD
ATOM     24  C   LIG    1       31.474 -19.123   7.895  0.00  0.00    +0.280 C 
ATOM     25  O   LIG    1       32.280 -18.201   7.769  0.00  0.00    -0.265 OA
ATOM     26  C   LIG    1       30.251 -19.296   7.138  0.00  0.00    +0.172 A 
ATOM     27  N   LIG    1       29.684 -18.503   6.178  0.00  0.00    -0.229 NA
ATOM     28  C   LIG    1       28.570 -19.129   5.856  0.00  0.00    +0.203 A 
BRANCH  21  29
ATOM     29  N   LIG    1       31.149 -22.094   9.964  0.00  0.00    -0.329 N 
ATOM     30  H   LIG    1       30.716 -23.006   9.914  0.00  0.00    +0.145 HD
ATOM     31  H   LIG    1       32.155 -22.146  10.089  0.00  0.00    +0.145 HD
ENDBRANCH  21  29
ENDBRANCH  17  18
ENDBRANCH   1  17
TORSDOF 12
ENDMDL
MODEL 5
REMARK VINA RESULT:      -8.1      1.609      2.899
REMARK  Name = *****
REMARK                            x       y       z     vdW  Elec       q    Type
REMARK                         _______ _______ _______ _____ _____    ______ ____
ROOT
ATOM      1  O   LIG    1       29.225 -21.451   7.415  0.00  0.00    -0.350 OA
ENDROOT
BRANCH   1   2
ATOM      2  C   LIG    1       30.134 -20.896   8.382  0.00  0.00    +0.183 C 
BRANCH   2   3
ATOM      3  C   LIG    1       31.100 -19.987   7.596  0.00  0.00    +0.266 C 
BRANCH   3   4
ATOM      4  O   LIG    1       31.871 -19.136   8.471  0.00  0.00    -0.461 OA
BRANCH   4   5
ATOM      5  C   LIG    1       31.426 -17.852   8.544  0.00  0.00    +0.324 C 
ATOM      6  O   LIG    1       30.445 -17.447   7.933  0.00  0.00    -0.249 OA
BRANCH   5   7
ATOM      7  C   LIG    1       32.243 -17.008   9.564  0.00  0.00    +0.163 C 
BRANCH   7   9
ATOM      8  C   LIG    1       32.329 -16.210  11.986  0.00  0.00    +0.009 C 
ATOM      9  C   LIG    1       31.419 -16.593  10.808  0.00  0.00    +0.011 C 
ATOM     10  C   LIG    1       30.476 -17.712  11.279  0.00  0.00    +0.009 C 
ENDBRANCH   7   9
BRANCH   7  11
ATOM     11  N   LIG    1       32.825 -15.815   8.894  0.00  0.00    -0.318 NA
ATOM     12  H   LIG    1       33.664 -15.544   9.414  0.00  0.00    +0.119 HD
ATOM     13  H   LIG    1       33.183 -16.097   7.979  0.00  0.00    +0.119 HD
ENDBRANCH   7  11
ENDBRANCH   5   7
ENDBRANCH   4   5
ENDBRANCH   3   4
ENDBRANCH   2   3
BRANCH   2  14
ATOM     14  C   LIG    1       30.927 -21.985   9.130  0.00  0.00    +0.191 C 
BRANCH  14  15
ATOM     15  O   LIG    1       32.245 -21.603   9.505  0.00  0.00    -0.392 OA
ATOM     16  H   LIG    1       32.616 -22.234  10.147  0.00  0.00    +0.209 HD
ENDBRANCH  14  15
ENDBRANCH   2  14
ENDBRANCH   1   2
BRANCH   1  17
ATOM     17  C   LIG    1       27.850 -21.506   7.796  0.00  0.00    +0.287 C 
BRANCH  17  18
ATOM     18  N   LIG    1       27.044 -21.003   6.693  0.00  0.00    -0.291 N 
ATOM     19  C   LIG    1       25.822 -21.468   6.293  0.00  0.00    +0.171 A 
ATOM     20  N   LIG    1       25.114 -22.484   6.847  0.00  0.00    -0.196 NA
ATOM     21  C   LIG    1       23.981 -22.713   6.237  0.00  0.00    +0.195 C 
ATOM     22  N   LIG    1       23.533 -21.999   5.141  0.00  0.00    -0.293 N 
ATOM     23  H   LIG    1       22.628 -22.195   4.746  0.00  0.00    +0.172 HD
ATOM     24  C   LIG    1       24.216 -20.946   4.554  0.00  0.00    +0.280 C 
ATOM     25  O   LIG    1       23.761 -20.334   3.587  0.00  0.00    -0.265 OA
ATOM     26  C   LIG    1       25.484 -20.691   5.205  0.00  0.00    +0.172 A 
ATOM     27  N   LIG    1       26.469 -19.789   4.905  0.00  0.00    -0.229 NA
ATOM     28  C   LIG    1       27.402 -20.015   5.808  0.00  0.00    +0.203 A 
BRANCH  21  29
ATOM     29  N   LIG    1       23.170 -23.710   6.669  0.00  0.00    -0.329 N 
ATOM     30  H   LIG    1       23.569 -24.364   7.329  0.00  0.00    +0.145 HD
ATOM     31  H   LIG    1       22.262 -23.364   6.965  0.00  0.00    +0.145 HD
ENDBRANCH  21  29
ENDBRANCH  17  18
ENDBRANCH   1  17
TORSDOF 12
ENDMDL
MODEL 6
REMARK VINA RESULT:      -8.0      1.478      2.147
REMARK  Name = *****
REMARK                            x       y       z     vdW  Elec       q    Type
REMARK                         _______ _______ _______ _____ _____    ______ ____
ROOT
ATOM      1  O   LIG    1       29.230 -21.084   7.262  0.00  0.00    -0.350 OA
ENDROOT
BRANCH   1   2
ATOM      2  C   LIG    1       30.197 -20.649   8.234  0.00  0.00    +0.183 C 
BRANCH   2   3
ATOM      3  C   LIG    1       31.233 -19.803   7.467  0.00  0.00    +0.266 C 
BRANCH   3   4
ATOM      4  O   LIG    1       32.005 -18.964   8.353  0.00  0.00    -0.461 OA
BRANCH   4   5
ATOM      5  C   LIG    1       31.465 -17.736   8.579  0.00  0.00    +0.324 C 
ATOM      6  O   LIG    1       30.412 -17.364   8.074  0.00  0.00    -0.249 OA
BRANCH   5   7
ATOM      7  C   LIG    1       32.283 -16.921   9.620  0.00  0.00    +0.163 C 
BRANCH   7   9
ATOM      8  C   LIG    1       32.382 -16.149  12.050  0.00  0.00    +0.009 C 
ATOM      9  C   LIG    1       31.466 -16.557  10.885  0.00  0.00    +0.011 C 
ATOM     10  C   LIG    1       30.581 -17.721  11.359  0.00  0.00    +0.009 C 
ENDBRANCH   7   9
BRANCH   7  11
ATOM     11  N   LIG    1       32.849 -15.700   8.988  0.00  0.00    -0.318 NA
ATOM     12  H   LIG    1       33.417 -15.219   9.691  0.00  0.00    +0.119 HD
ATOM     13  H   LIG    1       33.525 -15.985   8.277  0.00  0.00    +0.119 HD
ENDBRANCH   7  11
ENDBRANCH   5   7
ENDBRANCH   4   5
ENDBRANCH   3   4
ENDBRANCH   2   3
BRANCH   2  14
ATOM     14  C   LIG    1       30.897 -21.833   8.931  0.00  0.00    +0.191 C 
BRANCH  14  15
ATOM     15  O   LIG    1       32.162 -21.519   9.501  0.00  0.00    -0.392 OA
ATOM     16  H   LIG    1       32.359 -22.112  10.247  0.00  0.00    +0.209 HD
ENDBRANCH  14  15
ENDBRANCH   2  14
ENDBRANCH   1   2
BRANCH   1  17
ATOM     17  C   LIG    1       28.100 -20.234   7.068  0.00  0.00    +0.287 C 
BRANCH  17  18
ATOM     18  N   LIG    1       26.890 -21.025   7.246  0.00  0.00    -0.291 N 
ATOM     19  C   LIG    1       25.848 -21.137   6.367  0.00  0.00    +0.171 A 
ATOM     20  N   LIG    1       25.735 -20.537   5.156  0.00  0.00    -0.196 NA
ATOM     21  C   LIG    1       24.613 -20.819   4.546  0.00  0.00    +0.195 C 
ATOM     22  N   LIG    1       23.634 -21.644   5.068  0.00  0.00    -0.293 N 
ATOM     23  H   LIG    1       22.813 -21.858   4.527  0.00  0.00    +0.172 HD
ATOM     24  C   LIG    1       23.715 -22.286   6.294  0.00  0.00    +0.280 C 
ATOM     25  O   LIG    1       22.818 -23.024   6.702  0.00  0.00    -0.265 OA
ATOM     26  C   LIG    1       24.944 -21.970   6.991  0.00  0.00    +0.172 A 
ATOM     27  N   LIG    1       25.381 -22.348   8.233  0.00  0.00    -0.229 NA
ATOM     28  C   LIG    1       26.547 -21.748   8.363  0.00  0.00    +0.203 A 
BRANCH  21  29
ATOM     29  N   LIG    1       24.351 -20.281   3.329  0.00  0.00    -0.329 N 
ATOM     30  H   LIG    1       23.390 -20.025   3.146  0.00  0.00    +0.145 HD
ATOM     31  H   LIG    1       25.004 -19.542   3.089  0.00  0.00    +0.145 HD
ENDBRANCH  21  29
ENDBRANCH  17  18
ENDBRANCH   1  17
TORSDOF 12
ENDMDL
MODEL 7
REMARK VINA RESULT:      -8.0      2.737      7.837
REMARK  Name = *****
REMARK                            x       y       z     vdW  Elec       q    Type
REMARK                         _______ _______ _______ _____ _____    ______ ____
ROOT
ATOM      1  O   LIG    1       26.747 -20.321   4.852  0.00  0.00    -0.350 OA
ENDROOT
BRANCH   1   2
ATOM      2  C   LIG    1       25.338 -20.030   4.848  0.00  0.00    +0.183 C 
BRANCH   2   3
ATOM      3  C   LIG    1       24.615 -21.389   4.753  0.00  0.00    +0.266 C 
BRANCH   3   4
ATOM      4  O   LIG    1       23.463 -21.447   5.621  0.00  0.00    -0.461 OA
BRANCH   4   5
ATOM      5  C   LIG    1       23.724 -21.913   6.873  0.00  0.00    +0.324 C 
ATOM      6  O   LIG    1       24.008 -21.182   7.814  0.00  0.00    -0.249 OA
BRANCH   5   7
ATOM      7  C   LIG    1       23.517 -23.451   6.979  0.00  0.00    +0.163 C 
BRANCH   7   9
ATOM      8  C   LIG    1       24.158 -25.724   6.012  0.00  0.00    +0.009 C 
ATOM      9  C   LIG    1       24.592 -24.263   6.215  0.00  0.00    +0.011 C 
ATOM     10  C   LIG    1       25.944 -24.266   6.947  0.00  0.00    +0.009 C 
ENDBRANCH   7   9
BRANCH   7  11
ATOM     11  N   LIG    1       22.152 -23.818   6.518  0.00  0.00    -0.318 NA
ATOM     12  H   LIG    1       22.164 -23.841   5.494  0.00  0.00    +0.119 HD
ATOM     13  H   LIG    1       21.969 -24.788   6.784  0.00  0.00    +0.119 HD
ENDBRANCH   7  11
ENDBRANCH   5   7
ENDBRANCH   4   5
ENDBRANCH   3   4
ENDBRANCH   2   3
BRANCH   2  14
ATOM     14  C   LIG    1       24.931 -19.133   3.662  0.00  0.00    +0.191 C 
BRANCH  14  15
ATOM     15  O   LIG    1       25.921 -18.189   3.269  0.00  0.00    -0.392 OA
ATOM     16  H   LIG    1       25.930 -17.429   3.876  0.00  0.00    +0.209 HD
ENDBRANCH  14  15
ENDBRANCH   2  14
ENDBRANCH   1   2
BRANCH   1  17
ATOM     17  C   LIG    1       27.315 -20.691   6.108  0.00  0.00    +0.287 C 
BRANCH  17  18
ATOM     18  N   LIG    1       28.508 -19.888   6.330  0.00  0.00    -0.291 N 
ATOM     19  C   LIG    1       29.501 -20.129   7.239  0.00  0.00    +0.171 A 
ATOM     20  N   LIG    1       29.574 -21.166   8.111  0.00  0.00    -0.196 NA
ATOM     21  C   LIG    1       30.636 -21.124   8.872  0.00  0.00    +0.195 C 
ATOM     22  N   LIG    1       31.598 -20.132   8.805  0.00  0.00    -0.293 N 
ATOM     23  H   LIG    1       32.417 -20.183   9.387  0.00  0.00    +0.172 HD
ATOM     24  C   LIG    1       31.569 -19.065   7.922  0.00  0.00    +0.280 C 
ATOM     25  O   LIG    1       32.462 -18.218   7.895  0.00  0.00    -0.265 OA
ATOM     26  C   LIG    1       30.388 -19.085   7.083  0.00  0.00    +0.172 A 
ATOM     27  N   LIG    1       29.960 -18.197   6.134  0.00  0.00    -0.229 NA
ATOM     28  C   LIG    1       28.817 -18.700   5.712  0.00  0.00    +0.203 A 
BRANCH  21  29
ATOM     29  N   LIG    1       30.840 -22.087   9.804  0.00  0.00    -0.329 N 
ATOM     30  H   LIG    1       31.339 -22.912   9.499  0.00  0.00    +0.145 HD
ATOM     31  H   LIG    1       31.206 -21.709  10.672  0.00  0.00    +0.145 HD
ENDBRANCH  21  29
ENDBRANCH  17  18
ENDBRANCH   1  17
TORSDOF 12
ENDMDL
MODEL 8
REMARK VINA RESULT:      -8.0      4.988      9.303
REMARK  Name = *****
REMARK                            x       y       z     vdW  Elec       q    Type
REMARK                         _______ _______ _______ _____ _____    ______ ____
ROOT
ATOM      1  O   LIG    1       26.356 -23.587   6.790  0.00  0.00    -0.350 OA
ENDROOT
BRANCH   1   2
ATOM      2  C   LIG    1       25.112 -24.308   6.781  0.00  0.00    +0.183 C 
BRANCH   2   3
ATOM      3  C   LIG    1       25.116 -25.163   5.497  0.00  0.00    +0.266 C 
BRANCH   3   4
ATOM      4  O   LIG    1       24.260 -26.320   5.618  0.00  0.00    -0.461 OA
BRANCH   4   5
ATOM      5  C   LIG    1       24.917 -27.511   5.590  0.00  0.00    +0.324 C 
ATOM      6  O   LIG    1       26.027 -27.653   5.093  0.00  0.00    -0.249 OA
BRANCH   5   7
ATOM      7  C   LIG    1       24.138 -28.624   6.348  0.00  0.00    +0.163 C 
BRANCH   7   9
ATOM      8  C   LIG    1       25.310 -30.887   6.479  0.00  0.00    +0.009 C 
ATOM      9  C   LIG    1       25.058 -29.546   7.187  0.00  0.00    +0.011 C 
ATOM     10  C   LIG    1       24.468 -29.844   8.575  0.00  0.00    +0.009 C 
ENDBRANCH   7   9
BRANCH   7  11
ATOM     11  N   LIG    1       23.321 -29.420   5.394  0.00  0.00    -0.318 NA
ATOM     12  H   LIG    1       23.728 -30.358   5.342  0.00  0.00    +0.119 HD
ATOM     13  H   LIG    1       22.398 -29.574   5.806  0.00  0.00    +0.119 HD
ENDBRANCH   7  11
ENDBRANCH   5   7
ENDBRANCH   4   5
ENDBRANCH   3   4
ENDBRANCH   2   3
BRANCH   2  14
ATOM     14  C   LIG    1       23.892 -23.366   6.782  0.00  0.00    +0.191 C 
BRANCH  14  15
ATOM     15  O   LIG    1       22.639 -24.022   6.623  0.00  0.00    -0.392 OA
ATOM     16  H   LIG    1       22.646 -24.590   5.833  0.00  0.00    +0.209 HD
ENDBRANCH  14  15
ENDBRANCH   2  14
ENDBRANCH   1   2
BRANCH   1  17
ATOM     17  C   LIG    1       26.439 -22.478   7.684  0.00  0.00    +0.287 C 
BRANCH  17  18
ATOM     18  N   LIG    1       27.186 -21.413   7.031  0.00  0.00    -0.291 N 
ATOM     19  C   LIG    1       28.470 -21.027   7.303  0.00  0.00    +0.171 A 
ATOM     20  N   LIG    1       29.304 -21.562   8.230  0.00  0.00    -0.196 NA
ATOM     21  C   LIG    1       30.470 -20.972   8.273  0.00  0.00    +0.195 C 
ATOM     22  N   LIG    1       30.832 -19.913   7.461  0.00  0.00    -0.293 N 
ATOM     23  H   LIG    1       31.763 -19.533   7.512  0.00  0.00    +0.172 HD
ATOM     24  C   LIG    1       30.018 -19.346   6.495  0.00  0.00    +0.280 C 
ATOM     25  O   LIG    1       30.399 -18.413   5.788  0.00  0.00    -0.265 OA
ATOM     26  C   LIG    1       28.714 -19.975   6.446  0.00  0.00    +0.172 A 
ATOM     27  N   LIG    1       27.617 -19.682   5.681  0.00  0.00    -0.229 NA
ATOM     28  C   LIG    1       26.708 -20.554   6.070  0.00  0.00    +0.203 A 
BRANCH  21  29
ATOM     29  N   LIG    1       31.406 -21.389   9.161  0.00  0.00    -0.329 N 
ATOM     30  H   LIG    1       32.372 -21.231   8.907  0.00  0.00    +0.145 HD
ATOM     31  H   LIG    1       31.197 -21.084  10.107  0.00  0.00    +0.145 HD
ENDBRANCH  21  29
ENDBRANCH  17  18
ENDBRANCH   1  17
TORSDOF 12
ENDMDL
MODEL 9
REMARK VINA RESULT:      -7.7      1.463      1.841
REMARK  Name = *****
REMARK                            x       y       z     vdW  Elec       q    Type
REMARK                         _______ _______ _______ _____ _____    ______ ____
ROOT
ATOM      1  O   LIG    1       27.354 -21.180   7.503  0.00  0.00    -0.350 OA
ENDROOT
BRANCH   1   2
ATOM      2  C   LIG    1       28.665 -20.952   6.957  0.00  0.00    +0.183 C 
BRANCH   2   3
ATOM      3  C   LIG    1       29.666 -21.278   8.085  0.00  0.00    +0.266 C 
BRANCH   3   4
ATOM      4  O   LIG    1       30.063 -20.094   8.811  0.00  0.00    -0.461 OA
BRANCH   4   5
ATOM      5  C   LIG    1       31.384 -20.047   9.132  0.00  0.00    +0.324 C 
ATOM      6  O   LIG    1       32.073 -21.048   9.288  0.00  0.00    -0.249 OA
BRANCH   5   7
ATOM      7  C   LIG    1       31.924 -18.589   9.170  0.00  0.00    +0.163 C 
BRANCH   7   9
ATOM      8  C   LIG    1       30.244 -16.794   9.855  0.00  0.00    +0.009 C 
ATOM      9  C   LIG    1       31.341 -17.755  10.339  0.00  0.00    +0.011 C 
ATOM     10  C   LIG    1       32.420 -16.926  11.053  0.00  0.00    +0.009 C 
ENDBRANCH   7   9
BRANCH   7  11
ATOM     11  N   LIG    1       31.677 -17.915   7.868  0.00  0.00    -0.318 NA
ATOM     12  H   LIG    1       30.972 -17.189   8.021  0.00  0.00    +0.119 HD
ATOM     13  H   LIG    1       32.516 -17.392   7.608  0.00  0.00    +0.119 HD
ENDBRANCH   7  11
ENDBRANCH   5   7
ENDBRANCH   4   5
ENDBRANCH   3   4
ENDBRANCH   2   3
BRANCH   2  14
ATOM     14  C   LIG    1       28.857 -19.496   6.489  0.00  0.00    +0.191 C 
BRANCH  14  15
ATOM     15  O   LIG    1       28.441 -19.247   5.151  0.00  0.00    -0.392 OA
ATOM     16  H   LIG    1       27.473 -19.316   5.074  0.00  0.00    +0.209 HD
ENDBRANCH  14  15
ENDBRANCH   2  14
ENDBRANCH   1   2
BRANCH   1  17
ATOM     17  C   LIG    1       26.637 -22.298   6.982  0.00  0.00    +0.287 C 
BRANCH  17  18
ATOM     18  N   LIG    1       25.291 -21.864   6.635  0.00  0.00    -0.291 N 
ATOM     19  C   LIG    1       24.947 -20.943   5.684  0.00  0.00    +0.171 A 
ATOM     20  N   LIG    1       25.789 -20.256   4.872  0.00  0.00    -0.196 NA
ATOM     21  C   LIG    1       25.169 -19.429   4.070  0.00  0.00    +0.195 C 
ATOM     22  N   LIG    1       23.797 -19.263   4.040  0.00  0.00    -0.293 N 
ATOM     23  H   LIG    1       23.378 -18.644   3.367  0.00  0.00    +0.172 HD
ATOM     24  C   LIG    1       22.901 -19.954   4.842  0.00  0.00    +0.280 C 
ATOM     25  O   LIG    1       21.686 -19.777   4.760  0.00  0.00    -0.265 OA
ATOM     26  C   LIG    1       23.572 -20.861   5.749  0.00  0.00    +0.172 A 
ATOM     27  N   LIG    1       23.065 -21.674   6.726  0.00  0.00    -0.229 NA
ATOM     28  C   LIG    1       24.126 -22.251   7.253  0.00  0.00    +0.203 A 
BRANCH  21  29
ATOM     29  N   LIG    1       25.880 -18.662   3.208  0.00  0.00    -0.329 N 
ATOM     30  H   LIG    1       26.590 -19.133   2.664  0.00  0.00    +0.145 HD
ATOM     31  H   LIG    1       25.282 -18.070   2.640  0.00  0.00    +0.145 HD
ENDBRANCH  21  29
ENDBRANCH  17  18
ENDBRANCH   1  17
TORSDOF 12
ENDMDL
