MODEL 1
REMARK VINA RESULT:      -6.4      0.000      0.000
REMARK  Name = *****
REMARK                            x       y       z     vdW  Elec       q    Type
REMARK                         _______ _______ _______ _____ _____    ______ ____
ROOT
ATOM      1  C   LIG    1       25.072 -22.055   7.614  0.00  0.00    +0.018 A 
ATOM      2  C   LIG    1       23.710 -22.217   7.343  0.00  0.00    +0.060 A 
ATOM      3  C   LIG    1       23.280 -23.412   6.787  0.00  0.00    +0.159 A 
ATOM      4  C   LIG    1       24.181 -24.437   6.501  0.00  0.00    +0.158 A 
ATOM      5  C   LIG    1       25.537 -24.281   6.769  0.00  0.00    +0.050 A 
ATOM      6  C   LIG    1       25.985 -23.080   7.330  0.00  0.00    +0.015 A 
ENDROOT
BRANCH   1   8
ATOM      7  O   LIG    1       25.898 -20.707   9.380  0.00  0.00    -0.296 OA
ATOM      8  C   LIG    1       25.564 -20.795   8.206  0.00  0.00    +0.258 C 
ENDBRANCH   1   8
BRANCH   3   9
ATOM      9  O   LIG    1       21.952 -23.581   6.517  0.00  0.00    -0.503 OA
ATOM     10  H   LIG    1       21.928 -24.155   5.726  0.00  0.00    +0.292 HD
ENDBRANCH   3   9
BRANCH   4  11
ATOM     11  O   LIG    1       23.681 -25.586   5.953  0.00  0.00    -0.503 OA
ATOM     12  H   LIG    1       23.017 -25.954   6.562  0.00  0.00    +0.292 HD
ENDBRANCH   4  11
TORSDOF 3
ENDMDL
MODEL 2
REMARK VINA RESULT:      -6.1      5.145      6.620
REMARK  Name = *****
REMARK                            x       y       z     vdW  Elec       q    Type
REMARK                         _______ _______ _______ _____ _____    ______ ____
ROOT
ATOM      1  C   LIG    1       30.410 -20.006   7.977  0.00  0.00    +0.018 A 
ATOM      2  C   LIG    1       30.432 -18.958   7.051  0.00  0.00    +0.060 A 
ATOM      3  C   LIG    1       29.489 -18.947   6.035  0.00  0.00    +0.159 A 
ATOM      4  C   LIG    1       28.533 -19.957   5.932  0.00  0.00    +0.158 A 
ATOM      5  C   LIG    1       28.507 -21.001   6.850  0.00  0.00    +0.050 A 
ATOM      6  C   LIG    1       29.452 -21.025   7.880  0.00  0.00    +0.015 A 
ENDROOT
BRANCH   1   8
ATOM      7  O   LIG    1       32.169 -20.988   9.226  0.00  0.00    -0.296 OA
ATOM      8  C   LIG    1       31.400 -20.048   9.071  0.00  0.00    +0.258 C 
ENDBRANCH   1   8
BRANCH   3   9
ATOM      9  O   LIG    1       29.502 -17.929   5.126  0.00  0.00    -0.503 OA
ATOM     10  H   LIG    1       29.948 -17.189   5.584  0.00  0.00    +0.292 HD
ENDBRANCH   3   9
BRANCH   4  11
ATOM     11  O   LIG    1       27.636 -19.877   4.903  0.00  0.00    -0.503 OA
ATOM     12  H   LIG    1       28.129 -19.854   4.064  0.00  0.00    +0.292 HD
ENDBRANCH   4  11
TORSDOF 3
ENDMDL
MODEL 3
REMARK VINA RESULT:      -6.0      0.839      2.104
REMARK  Name = *****
REMARK                            x       y       z     vdW  Elec       q    Type
REMARK                         _______ _______ _______ _____ _____    ______ ____
ROOT
ATOM      1  C   LIG    1       25.183 -21.913   7.633  0.00  0.00    +0.018 A 
ATOM      2  C   LIG    1       25.977 -23.017   7.311  0.00  0.00    +0.060 A 
ATOM      3  C   LIG    1       25.369 -24.140   6.769  0.00  0.00    +0.159 A 
ATOM      4  C   LIG    1       23.993 -24.174   6.547  0.00  0.00    +0.158 A 
ATOM      5  C   LIG    1       23.198 -23.078   6.866  0.00  0.00    +0.050 A 
ATOM      6  C   LIG    1       23.798 -21.940   7.413  0.00  0.00    +0.015 A 
ENDROOT
BRANCH   1   8
ATOM      7  O   LIG    1       25.889 -20.524   9.420  0.00  0.00    -0.296 OA
ATOM      8  C   LIG    1       25.797 -20.702   8.212  0.00  0.00    +0.258 C 
ENDBRANCH   1   8
BRANCH   3   9
ATOM      9  O   LIG    1       26.136 -25.224   6.451  0.00  0.00    -0.503 OA
ATOM     10  H   LIG    1       27.047 -24.966   6.692  0.00  0.00    +0.292 HD
ENDBRANCH   3   9
BRANCH   4  11
ATOM     11  O   LIG    1       23.466 -25.316   6.010  0.00  0.00    -0.503 OA
ATOM     12  H   LIG    1       24.126 -25.708   5.411  0.00  0.00    +0.292 HD
ENDBRANCH   4  11
TORSDOF 3
ENDMDL
MODEL 4
REMARK VINA RESULT:      -6.0      1.529      3.583
REMARK  Name = *****
REMARK                            x       y       z     vdW  Elec       q    Type
REMARK                         _______ _______ _______ _____ _____    ______ ____
ROOT
ATOM      1  C   LIG    1       25.429 -24.814   6.523  0.00  0.00    +0.018 A 
ATOM      2  C   LIG    1       24.040 -24.819   6.363  0.00  0.00    +0.060 A 
ATOM      3  C   LIG    1       23.320 -23.700   6.756  0.00  0.00    +0.159 A 
ATOM      4  C   LIG    1       23.963 -22.588   7.301  0.00  0.00    +0.158 A 
ATOM      5  C   LIG    1       25.344 -22.578   7.462  0.00  0.00    +0.050 A 
ATOM      6  C   LIG    1       26.082 -23.700   7.070  0.00  0.00    +0.015 A 
ENDROOT
BRANCH   1   8
ATOM      7  O   LIG    1       26.236 -26.409   4.967  0.00  0.00    -0.296 OA
ATOM      8  C   LIG    1       26.226 -25.988   6.116  0.00  0.00    +0.258 C 
ENDBRANCH   1   8
BRANCH   3   9
ATOM      9  O   LIG    1       21.964 -23.694   6.604  0.00  0.00    -0.503 OA
ATOM     10  H   LIG    1       21.778 -22.921   6.036  0.00  0.00    +0.292 HD
ENDBRANCH   3   9
BRANCH   4  11
ATOM     11  O   LIG    1       23.185 -21.523   7.664  0.00  0.00    -0.503 OA
ATOM     12  H   LIG    1       23.516 -20.730   7.208  0.00  0.00    +0.292 HD
ENDBRANCH   4  11
TORSDOF 3
ENDMDL
MODEL 5
REMARK VINA RESULT:      -5.9      3.280      3.989
REMARK  Name = *****
REMARK                            x       y       z     vdW  Elec       q    Type
REMARK                         _______ _______ _______ _____ _____    ______ ____
ROOT
ATOM      1  C   LIG    1       25.048 -20.920   7.271  0.00  0.00    +0.018 A 
ATOM      2  C   LIG    1       25.903 -20.702   6.186  0.00  0.00    +0.060 A 
ATOM      3  C   LIG    1       25.355 -20.299   4.977  0.00  0.00    +0.159 A 
ATOM      4  C   LIG    1       23.980 -20.111   4.839  0.00  0.00    +0.158 A 
ATOM      5  C   LIG    1       23.126 -20.327   5.915  0.00  0.00    +0.050 A 
ATOM      6  C   LIG    1       23.665 -20.734   7.140  0.00  0.00    +0.015 A 
ENDROOT
BRANCH   1   8
ATOM      7  O   LIG    1       25.942 -20.556   9.436  0.00  0.00    -0.296 OA
ATOM      8  C   LIG    1       25.598 -21.351   8.571  0.00  0.00    +0.258 C 
ENDBRANCH   1   8
BRANCH   3   9
ATOM      9  O   LIG    1       26.180 -20.083   3.911  0.00  0.00    -0.503 OA
ATOM     10  H   LIG    1       25.941 -20.776   3.265  0.00  0.00    +0.292 HD
ENDBRANCH   3   9
BRANCH   4  11
ATOM     11  O   LIG    1       23.515 -19.712   3.616  0.00  0.00    -0.503 OA
ATOM     12  H   LIG    1       24.271 -19.420   3.079  0.00  0.00    +0.292 HD
ENDBRANCH   4  11
TORSDOF 3
ENDMDL
MODEL 6
REMARK VINA RESULT:      -5.8      4.727      7.233
REMARK  Name = *****
REMARK                            x       y       z     vdW  Elec       q    Type
REMARK                         _______ _______ _______ _____ _____    ______ ____
ROOT
ATOM      1  C   LIG    1       28.782 -20.846   7.713  0.00  0.00    +0.018 A 
ATOM      2  C   LIG    1       29.898 -21.230   8.462  0.00  0.00    +0.060 A 
ATOM      3  C   LIG    1       31.025 -20.423   8.441  0.00  0.00    +0.159 A 
ATOM      4  C   LIG    1       31.053 -19.248   7.689  0.00  0.00    +0.158 A 
ATOM      5  C   LIG    1       29.946 -18.861   6.942  0.00  0.00    +0.050 A 
ATOM      6  C   LIG    1       28.802 -19.667   6.954  0.00  0.00    +0.015 A 
ENDROOT
BRANCH   1   8
ATOM      7  O   LIG    1       26.825 -21.765   8.684  0.00  0.00    -0.296 OA
ATOM      8  C   LIG    1       27.566 -21.683   7.713  0.00  0.00    +0.258 C 
ENDBRANCH   1   8
BRANCH   3   9
ATOM      9  O   LIG    1       32.121 -20.789   9.169  0.00  0.00    -0.503 OA
ATOM     10  H   LIG    1       32.886 -20.500   8.633  0.00  0.00    +0.292 HD
ENDBRANCH   3   9
BRANCH   4  11
ATOM     11  O   LIG    1       32.200 -18.504   7.718  0.00  0.00    -0.503 OA
ATOM     12  H   LIG    1       31.964 -17.568   7.602  0.00  0.00    +0.292 HD
ENDBRANCH   4  11
TORSDOF 3
ENDMDL
MODEL 7
REMARK VINA RESULT:      -5.8      4.971      7.233
REMARK  Name = *****
REMARK                            x       y       z     vdW  Elec       q    Type
REMARK                         _______ _______ _______ _____ _____    ______ ____
ROOT
ATOM      1  C   LIG    1       29.018 -20.082   6.669  0.00  0.00    +0.018 A 
ATOM      2  C   LIG    1       30.063 -19.156   6.732  0.00  0.00    +0.060 A 
ATOM      3  C   LIG    1       31.092 -19.373   7.637  0.00  0.00    +0.159 A 
ATOM      4  C   LIG    1       31.091 -20.492   8.470  0.00  0.00    +0.158 A 
ATOM      5  C   LIG    1       30.054 -21.416   8.411  0.00  0.00    +0.050 A 
ATOM      6  C   LIG    1       29.010 -21.209   7.503  0.00  0.00    +0.015 A 
ENDROOT
BRANCH   1   8
ATOM      7  O   LIG    1       26.760 -20.232   5.963  0.00  0.00    -0.296 OA
ATOM      8  C   LIG    1       27.907 -19.881   5.718  0.00  0.00    +0.258 C 
ENDBRANCH   1   8
BRANCH   3   9
ATOM      9  O   LIG    1       32.117 -18.475   7.707  0.00  0.00    -0.503 OA
ATOM     10  H   LIG    1       32.649 -18.761   8.476  0.00  0.00    +0.292 HD
ENDBRANCH   3   9
BRANCH   4  11
ATOM     11  O   LIG    1       32.140 -20.638   9.335  0.00  0.00    -0.503 OA
ATOM     12  H   LIG    1       32.827 -19.990   9.099  0.00  0.00    +0.292 HD
ENDBRANCH   4  11
TORSDOF 3
ENDMDL
MODEL 8
REMARK VINA RESULT:      -5.6      3.133      4.506
REMARK  Name = *****
REMARK                            x       y       z     vdW  Elec       q    Type
REMARK                         _______ _______ _______ _____ _____    ______ ____
ROOT
ATOM      1  C   LIG    1       24.500 -20.676   6.138  0.00  0.00    +0.018 A 
ATOM      2  C   LIG    1       24.550 -20.788   7.530  0.00  0.00    +0.060 A 
ATOM      3  C   LIG    1       25.776 -20.662   8.165  0.00  0.00    +0.159 A 
ATOM      4  C   LIG    1       26.941 -20.428   7.435  0.00  0.00    +0.158 A 
ATOM      5  C   LIG    1       26.897 -20.315   6.050  0.00  0.00    +0.050 A 
ATOM      6  C   LIG    1       25.666 -20.440   5.397  0.00  0.00    +0.015 A 
ENDROOT
BRANCH   1   8
ATOM      7  O   LIG    1       22.425 -19.872   5.319  0.00  0.00    -0.296 OA
ATOM      8  C   LIG    1       23.210 -20.805   5.430  0.00  0.00    +0.258 C 
ENDBRANCH   1   8
BRANCH   3   9
ATOM      9  O   LIG    1       25.837 -20.770   9.524  0.00  0.00    -0.503 OA
ATOM     10  H   LIG    1       25.085 -20.239   9.852  0.00  0.00    +0.292 HD
ENDBRANCH   3   9
BRANCH   4  11
ATOM     11  O   LIG    1       28.113 -20.315   8.132  0.00  0.00    -0.503 OA
ATOM     12  H   LIG    1       28.686 -19.678   7.671  0.00  0.00    +0.292 HD
ENDBRANCH   4  11
TORSDOF 3
ENDMDL
MODEL 9
REMARK VINA RESULT:      -5.6      3.923      5.092
REMARK  Name = *****
REMARK                            x       y       z     vdW  Elec       q    Type
REMARK                         _______ _______ _______ _____ _____    ______ ____
ROOT
ATOM      1  C   LIG    1       23.798 -20.786   5.723  0.00  0.00    +0.018 A 
ATOM      2  C   LIG    1       25.196 -20.813   5.718  0.00  0.00    +0.060 A 
ATOM      3  C   LIG    1       25.874 -20.027   4.799  0.00  0.00    +0.159 A 
ATOM      4  C   LIG    1       25.183 -19.222   3.894  0.00  0.00    +0.158 A 
ATOM      5  C   LIG    1       23.793 -19.191   3.894  0.00  0.00    +0.050 A 
ATOM      6  C   LIG    1       23.096 -19.979   4.816  0.00  0.00    +0.015 A 
ENDROOT
BRANCH   1   8
ATOM      7  O   LIG    1       23.235 -21.548   7.895  0.00  0.00    -0.296 OA
ATOM      8  C   LIG    1       23.045 -21.610   6.688  0.00  0.00    +0.258 C 
ENDBRANCH   1   8
BRANCH   3   9
ATOM      9  O   LIG    1       27.239 -20.046   4.786  0.00  0.00    -0.503 OA
ATOM     10  H   LIG    1       27.506 -19.168   5.124  0.00  0.00    +0.292 HD
ENDBRANCH   3   9
BRANCH   4  11
ATOM     11  O   LIG    1       25.922 -18.474   3.018  0.00  0.00    -0.503 OA
ATOM     12  H   LIG    1       26.140 -17.627   3.443  0.00  0.00    +0.292 HD
ENDBRANCH   4  11
TORSDOF 3
ENDMDL
