MODEL 1
REMARK VINA RESULT:       9.4      0.000      0.000
REMARK  Name = *****
REMARK                            x       y       z     vdW  Elec       q    Type
REMARK                         _______ _______ _______ _____ _____    ______ ____
ROOT
ATOM      1  N   LIG    1       22.371 -15.999   4.970  0.00  0.00    -0.302 NA
ATOM      2  C   LIG    1       22.720 -15.894   3.547  0.00  0.00    +0.085 C 
ATOM      3  C   LIG    1       22.868 -14.437   3.113  0.00  0.00    +0.022 C 
ATOM      4  C   LIG    1       24.015 -13.688   3.823  0.00  0.00    +0.032 C 
ATOM      5  C   LIG    1       23.766 -13.868   5.346  0.00  0.00    +0.022 C 
ATOM      6  C   LIG    1       23.314 -15.263   5.827  0.00  0.00    +0.085 C 
ENDROOT
BRANCH   1   7
ATOM      7  C   LIG    1       22.297 -17.427   5.353  0.00  0.00    +0.084 C 
BRANCH   7   8
ATOM      8  C   LIG    1       22.724 -18.398   4.240  0.00  0.00    +0.018 C 
BRANCH   8   9
ATOM      9  C   LIG    1       22.137 -19.791   4.484  0.00  0.00    +0.037 C 
BRANCH   9  10
ATOM     10  C   LIG    1       22.655 -20.455   5.770  0.00  0.00    +0.144 C 
BRANCH  10  14
ATOM     11  C   LIG    1       27.022 -20.449   5.868  0.00  0.00    -0.031 A 
ATOM     12  C   LIG    1       26.285 -19.912   6.942  0.00  0.00    +0.005 A 
ATOM     13  C   LIG    1       24.887 -19.945   6.942  0.00  0.00    +0.006 A 
ATOM     14  C   LIG    1       24.171 -20.511   5.879  0.00  0.00    -0.019 A 
ATOM     15  C   LIG    1       24.904 -21.095   4.839  0.00  0.00    +0.006 A 
ATOM     16  C   LIG    1       26.304 -21.064   4.837  0.00  0.00    +0.005 A 
BRANCH  11  18
ATOM     17  C   LIG    1       29.111 -21.016   4.576  0.00  0.00    +0.027 C 
ATOM     18  C   LIG    1       28.565 -20.383   5.885  0.00  0.00    +0.087 C 
ATOM     19  C   LIG    1       29.190 -21.159   7.048  0.00  0.00    +0.027 C 
BRANCH  18  20
ATOM     20  C   LIG    1       29.080 -18.948   5.980  0.00  0.00    +0.315 C 
ATOM     21  O   LIG    1       29.092 -18.288   7.060  0.00  0.00    -0.250 OA
BRANCH  20  22
ATOM     22  O   LIG    1       29.474 -18.366   4.822  0.00  0.00    -0.480 OA
ATOM     23  H   LIG    1       30.353 -17.970   4.862  0.00  0.00    +0.295 HD
ENDBRANCH  20  22
ENDBRANCH  18  20
ENDBRANCH  11  18
ENDBRANCH  10  14
BRANCH  10  24
ATOM     24  O   LIG    1       22.112 -19.787   6.906  0.00  0.00    -0.387 OA
ATOM     25  H   LIG    1       21.262 -19.395   6.645  0.00  0.00    +0.210 HD
ENDBRANCH  10  24
ENDBRANCH   9  10
ENDBRANCH   8   9
ENDBRANCH   7   8
ENDBRANCH   1   7
BRANCH   4  26
ATOM     26  C   LIG    1       25.486 -14.062   3.344  0.00  0.00    +0.119 C 
BRANCH  26  27
ATOM     27  C   LIG    1       25.711 -15.607   3.373  0.00  0.00    -0.011 A 
ATOM     28  C   LIG    1       26.972 -16.155   3.693  0.00  0.00    +0.007 A 
ATOM     29  C   LIG    1       27.184 -17.538   3.758  0.00  0.00    +0.000 A 
ATOM     30  C   LIG    1       26.135 -18.417   3.520  0.00  0.00    +0.000 A 
ATOM     31  C   LIG    1       24.888 -17.913   3.171  0.00  0.00    +0.000 A 
ATOM     32  C   LIG    1       24.685 -16.528   3.080  0.00  0.00    +0.007 A 
ENDBRANCH  26  27
BRANCH  26  33
ATOM     33  C   LIG    1       26.615 -13.315   4.156  0.00  0.00    -0.011 A 
ATOM     34  C   LIG    1       26.771 -13.429   5.557  0.00  0.00    +0.007 A 
ATOM     35  C   LIG    1       27.850 -12.848   6.245  0.00  0.00    +0.000 A 
ATOM     36  C   LIG    1       28.808 -12.114   5.565  0.00  0.00    +0.000 A 
ATOM     37  C   LIG    1       28.654 -11.918   4.198  0.00  0.00    +0.000 A 
ATOM     38  C   LIG    1       27.573 -12.500   3.508  0.00  0.00    +0.007 A 
ENDBRANCH  26  33
BRANCH  26  39
ATOM     39  O   LIG    1       25.490 -13.691   1.953  0.00  0.00    -0.379 OA
ATOM     40  H   LIG    1       25.330 -14.470   1.410  0.00  0.00    +0.211 HD
ENDBRANCH  26  39
ENDBRANCH   4  26
TORSDOF 13
ENDMDL
MODEL 2
REMARK VINA RESULT:       9.6      1.941      5.538
REMARK  Name = *****
REMARK                            x       y       z     vdW  Elec       q    Type
REMARK                         _______ _______ _______ _____ _____    ______ ____
ROOT
ATOM      1  N   LIG    1       29.114 -15.887   5.320  0.00  0.00    -0.302 NA
ATOM      2  C   LIG    1       27.815 -15.520   5.900  0.00  0.00    +0.085 C 
ATOM      3  C   LIG    1       27.639 -14.005   5.962  0.00  0.00    +0.022 C 
ATOM      4  C   LIG    1       27.625 -13.320   4.581  0.00  0.00    +0.032 C 
ATOM      5  C   LIG    1       28.928 -13.772   3.865  0.00  0.00    +0.022 C 
ATOM      6  C   LIG    1       29.336 -15.253   4.011  0.00  0.00    +0.085 C 
ENDROOT
BRANCH   1   7
ATOM      7  C   LIG    1       29.211 -17.362   5.228  0.00  0.00    +0.084 C 
BRANCH   7   8
ATOM      8  C   LIG    1       28.323 -18.113   6.234  0.00  0.00    +0.018 C 
BRANCH   8   9
ATOM      9  C   LIG    1       29.145 -19.139   7.019  0.00  0.00    +0.037 C 
BRANCH   9  10
ATOM     10  C   LIG    1       28.575 -20.564   6.945  0.00  0.00    +0.144 C 
BRANCH  10  14
ATOM     11  C   LIG    1       24.492 -20.654   5.394  0.00  0.00    -0.031 A 
ATOM     12  C   LIG    1       25.528 -20.070   4.639  0.00  0.00    +0.005 A 
ATOM     13  C   LIG    1       26.846 -20.071   5.105  0.00  0.00    +0.006 A 
ATOM     14  C   LIG    1       27.184 -20.651   6.335  0.00  0.00    -0.019 A 
ATOM     15  C   LIG    1       26.165 -21.281   7.059  0.00  0.00    +0.006 A 
ATOM     16  C   LIG    1       24.845 -21.281   6.594  0.00  0.00    +0.005 A 
BRANCH  11  18
ATOM     17  C   LIG    1       22.147 -21.490   5.791  0.00  0.00    +0.027 C 
ATOM     18  C   LIG    1       23.042 -20.622   4.864  0.00  0.00    +0.087 C 
ATOM     19  C   LIG    1       22.903 -21.192   3.451  0.00  0.00    +0.027 C 
BRANCH  18  20
ATOM     20  C   LIG    1       22.471 -19.205   4.830  0.00  0.00    +0.315 C 
ATOM     21  O   LIG    1       22.459 -18.440   5.839  0.00  0.00    -0.250 OA
BRANCH  20  22
ATOM     22  O   LIG    1       21.901 -18.808   3.667  0.00  0.00    -0.480 OA
ATOM     23  H   LIG    1       21.397 -17.989   3.738  0.00  0.00    +0.295 HD
ENDBRANCH  20  22
ENDBRANCH  18  20
ENDBRANCH  11  18
ENDBRANCH  10  14
BRANCH  10  24
ATOM     24  O   LIG    1       29.474 -21.404   6.224  0.00  0.00    -0.387 OA
ATOM     25  H   LIG    1       28.978 -22.179   5.916  0.00  0.00    +0.210 HD
ENDBRANCH  10  24
ENDBRANCH   9  10
ENDBRANCH   8   9
ENDBRANCH   7   8
ENDBRANCH   1   7
BRANCH   4  26
ATOM     26  C   LIG    1       26.298 -13.517   3.724  0.00  0.00    +0.119 C 
BRANCH  26  27
ATOM     27  C   LIG    1       25.095 -12.756   4.367  0.00  0.00    -0.011 A 
ATOM     28  C   LIG    1       23.871 -12.614   3.681  0.00  0.00    +0.007 A 
ATOM     29  C   LIG    1       22.770 -11.965   4.255  0.00  0.00    +0.000 A 
ATOM     30  C   LIG    1       22.857 -11.449   5.542  0.00  0.00    +0.000 A 
ATOM     31  C   LIG    1       24.058 -11.543   6.235  0.00  0.00    +0.000 A 
ATOM     32  C   LIG    1       25.167 -12.169   5.647  0.00  0.00    +0.007 A 
ENDBRANCH  26  27
BRANCH  26  33
ATOM     33  C   LIG    1       25.935 -15.033   3.478  0.00  0.00    -0.011 A 
ATOM     34  C   LIG    1       26.898 -16.027   3.186  0.00  0.00    +0.007 A 
ATOM     35  C   LIG    1       26.569 -17.390   3.083  0.00  0.00    +0.000 A 
ATOM     36  C   LIG    1       25.261 -17.814   3.252  0.00  0.00    +0.000 A 
ATOM     37  C   LIG    1       24.272 -16.864   3.471  0.00  0.00    +0.000 A 
ATOM     38  C   LIG    1       24.602 -15.498   3.573  0.00  0.00    +0.007 A 
ENDBRANCH  26  33
BRANCH  26  39
ATOM     39  O   LIG    1       26.587 -12.828   2.494  0.00  0.00    -0.379 OA
ATOM     40  H   LIG    1       26.432 -13.418   1.749  0.00  0.00    +0.211 HD
ENDBRANCH  26  39
ENDBRANCH   4  26
TORSDOF 13
ENDMDL
MODEL 3
REMARK VINA RESULT:      10.4      1.757      5.125
REMARK  Name = *****
REMARK                            x       y       z     vdW  Elec       q    Type
REMARK                         _______ _______ _______ _____ _____    ______ ____
ROOT
ATOM      1  N   LIG    1       26.929 -16.622   3.806  0.00  0.00    -0.302 NA
ATOM      2  C   LIG    1       27.945 -15.592   3.553  0.00  0.00    +0.085 C 
ATOM      3  C   LIG    1       27.675 -14.848   2.248  0.00  0.00    +0.022 C 
ATOM      4  C   LIG    1       26.350 -14.058   2.241  0.00  0.00    +0.032 C 
ATOM      5  C   LIG    1       25.242 -15.077   2.624  0.00  0.00    +0.022 C 
ATOM      6  C   LIG    1       25.562 -16.077   3.755  0.00  0.00    +0.085 C 
ENDROOT
BRANCH   1   7
ATOM      7  C   LIG    1       27.202 -17.272   5.108  0.00  0.00    +0.084 C 
BRANCH   7   8
ATOM      8  C   LIG    1       28.688 -17.286   5.502  0.00  0.00    +0.018 C 
BRANCH   8   9
ATOM      9  C   LIG    1       29.311 -18.655   5.215  0.00  0.00    +0.037 C 
BRANCH   9  10
ATOM     10  C   LIG    1       28.686 -19.794   6.037  0.00  0.00    +0.144 C 
BRANCH  10  14
ATOM     11  C   LIG    1       24.454 -20.428   5.161  0.00  0.00    -0.031 A 
ATOM     12  C   LIG    1       25.377 -20.237   4.114  0.00  0.00    +0.005 A 
ATOM     13  C   LIG    1       26.740 -20.075   4.378  0.00  0.00    +0.006 A 
ATOM     14  C   LIG    1       27.236 -20.096   5.688  0.00  0.00    -0.019 A 
ATOM     15  C   LIG    1       26.328 -20.342   6.725  0.00  0.00    +0.006 A 
ATOM     16  C   LIG    1       24.962 -20.505   6.462  0.00  0.00    +0.005 A 
BRANCH  11  18
ATOM     17  C   LIG    1       22.274 -21.384   5.990  0.00  0.00    +0.027 C 
ATOM     18  C   LIG    1       22.951 -20.586   4.842  0.00  0.00    +0.087 C 
ATOM     19  C   LIG    1       22.687 -21.359   3.548  0.00  0.00    +0.027 C 
BRANCH  18  20
ATOM     20  C   LIG    1       22.244 -19.239   4.708  0.00  0.00    +0.315 C 
ATOM     21  O   LIG    1       22.165 -18.402   5.655  0.00  0.00    -0.250 OA
BRANCH  20  22
ATOM     22  O   LIG    1       21.629 -18.990   3.527  0.00  0.00    -0.480 OA
ATOM     23  H   LIG    1       21.852 -19.618   2.830  0.00  0.00    +0.295 HD
ENDBRANCH  20  22
ENDBRANCH  18  20
ENDBRANCH  11  18
ENDBRANCH  10  14
BRANCH  10  24
ATOM     24  O   LIG    1       29.474 -20.974   5.897  0.00  0.00    -0.387 OA
ATOM     25  H   LIG    1       30.396 -20.744   6.096  0.00  0.00    +0.210 HD
ENDBRANCH  10  24
ENDBRANCH   9  10
ENDBRANCH   8   9
ENDBRANCH   7   8
ENDBRANCH   1   7
BRANCH   4  26
ATOM     26  C   LIG    1       26.340 -12.717   3.099  0.00  0.00    +0.119 C 
BRANCH  26  27
ATOM     27  C   LIG    1       27.390 -12.779   4.252  0.00  0.00    -0.011 A 
ATOM     28  C   LIG    1       28.539 -11.960   4.238  0.00  0.00    +0.007 A 
ATOM     29  C   LIG    1       29.475 -11.977   5.281  0.00  0.00    +0.000 A 
ATOM     30  C   LIG    1       29.282 -12.806   6.379  0.00  0.00    +0.000 A 
ATOM     31  C   LIG    1       28.178 -13.649   6.411  0.00  0.00    +0.000 A 
ATOM     32  C   LIG    1       27.257 -13.650   5.353  0.00  0.00    +0.007 A 
ENDBRANCH  26  27
BRANCH  26  33
ATOM     33  C   LIG    1       24.912 -12.347   3.660  0.00  0.00    -0.011 A 
ATOM     34  C   LIG    1       24.600 -12.323   5.040  0.00  0.00    +0.007 A 
ATOM     35  C   LIG    1       23.357 -11.881   5.524  0.00  0.00    +0.000 A 
ATOM     36  C   LIG    1       22.368 -11.460   4.650  0.00  0.00    +0.000 A 
ATOM     37  C   LIG    1       22.607 -11.535   3.283  0.00  0.00    +0.000 A 
ATOM     38  C   LIG    1       23.853 -11.978   2.798  0.00  0.00    +0.007 A 
ENDBRANCH  26  33
BRANCH  26  39
ATOM     39  O   LIG    1       26.827 -11.726   2.176  0.00  0.00    -0.379 OA
ATOM     40  H   LIG    1       26.386 -11.830   1.327  0.00  0.00    +0.211 HD
ENDBRANCH  26  39
ENDBRANCH   4  26
TORSDOF 13
ENDMDL
MODEL 4
REMARK VINA RESULT:      10.7      2.312      5.134
REMARK  Name = *****
REMARK                            x       y       z     vdW  Elec       q    Type
REMARK                         _______ _______ _______ _____ _____    ______ ____
ROOT
ATOM      1  N   LIG    1       25.508 -12.081   6.189  0.00  0.00    -0.302 NA
ATOM      2  C   LIG    1       26.265 -11.701   4.990  0.00  0.00    +0.085 C 
ATOM      3  C   LIG    1       27.712 -12.182   5.065  0.00  0.00    +0.022 C 
ATOM      4  C   LIG    1       27.858 -13.717   5.114  0.00  0.00    +0.032 C 
ATOM      5  C   LIG    1       26.975 -14.194   6.299  0.00  0.00    +0.022 C 
ATOM      6  C   LIG    1       25.594 -13.525   6.465  0.00  0.00    +0.085 C 
ENDROOT
BRANCH   1   7
ATOM      7  C   LIG    1       24.101 -11.644   6.040  0.00  0.00    +0.084 C 
BRANCH   7   8
ATOM      8  C   LIG    1       23.067 -12.733   6.371  0.00  0.00    +0.018 C 
BRANCH   8   9
ATOM      9  C   LIG    1       23.218 -13.926   5.424  0.00  0.00    +0.037 C 
BRANCH   9  10
ATOM     10  C   LIG    1       21.999 -14.862   5.421  0.00  0.00    +0.144 C 
BRANCH  10  14
ATOM     11  C   LIG    1       22.730 -19.158   5.126  0.00  0.00    -0.031 A 
ATOM     12  C   LIG    1       22.769 -18.349   3.974  0.00  0.00    +0.005 A 
ATOM     13  C   LIG    1       22.577 -16.967   4.059  0.00  0.00    +0.006 A 
ATOM     14  C   LIG    1       22.342 -16.338   5.289  0.00  0.00    -0.019 A 
ATOM     15  C   LIG    1       22.360 -17.134   6.441  0.00  0.00    +0.006 A 
ATOM     16  C   LIG    1       22.552 -18.518   6.357  0.00  0.00    +0.005 A 
BRANCH  11  18
ATOM     17  C   LIG    1       21.601 -21.324   4.504  0.00  0.00    +0.027 C 
ATOM     18  C   LIG    1       22.926 -20.685   5.001  0.00  0.00    +0.087 C 
ATOM     19  C   LIG    1       23.274 -21.361   6.330  0.00  0.00    +0.027 C 
BRANCH  18  20
ATOM     20  C   LIG    1       24.036 -21.045   4.015  0.00  0.00    +0.315 C 
ATOM     21  O   LIG    1       25.259 -21.096   4.339  0.00  0.00    -0.250 OA
BRANCH  20  22
ATOM     22  O   LIG    1       23.663 -21.250   2.729  0.00  0.00    -0.480 OA
ATOM     23  H   LIG    1       22.746 -21.529   2.626  0.00  0.00    +0.295 HD
ENDBRANCH  20  22
ENDBRANCH  18  20
ENDBRANCH  11  18
ENDBRANCH  10  14
BRANCH  10  24
ATOM     24  O   LIG    1       21.226 -14.647   6.600  0.00  0.00    -0.387 OA
ATOM     25  H   LIG    1       20.599 -13.927   6.419  0.00  0.00    +0.210 HD
ENDBRANCH  10  24
ENDBRANCH   9  10
ENDBRANCH   8   9
ENDBRANCH   7   8
ENDBRANCH   1   7
BRANCH   4  26
ATOM     26  C   LIG    1       27.594 -14.480   3.742  0.00  0.00    +0.119 C 
BRANCH  26  27
ATOM     27  C   LIG    1       26.319 -13.931   3.029  0.00  0.00    -0.011 A 
ATOM     28  C   LIG    1       25.127 -14.685   2.983  0.00  0.00    +0.007 A 
ATOM     29  C   LIG    1       23.962 -14.194   2.378  0.00  0.00    +0.000 A 
ATOM     30  C   LIG    1       23.951 -12.925   1.812  0.00  0.00    +0.000 A 
ATOM     31  C   LIG    1       25.116 -12.167   1.812  0.00  0.00    +0.000 A 
ATOM     32  C   LIG    1       26.288 -12.672   2.395  0.00  0.00    +0.007 A 
ENDBRANCH  26  27
BRANCH  26  33
ATOM     33  C   LIG    1       27.513 -16.048   3.908  0.00  0.00    -0.011 A 
ATOM     34  C   LIG    1       28.445 -16.800   4.660  0.00  0.00    +0.007 A 
ATOM     35  C   LIG    1       28.292 -18.179   4.889  0.00  0.00    +0.000 A 
ATOM     36  C   LIG    1       27.210 -18.865   4.363  0.00  0.00    +0.000 A 
ATOM     37  C   LIG    1       26.308 -18.179   3.559  0.00  0.00    +0.000 A 
ATOM     38  C   LIG    1       26.462 -16.798   3.328  0.00  0.00    +0.007 A 
ENDBRANCH  26  33
BRANCH  26  39
ATOM     39  O   LIG    1       28.707 -14.084   2.919  0.00  0.00    -0.379 OA
ATOM     40  H   LIG    1       29.532 -14.278   3.375  0.00  0.00    +0.211 HD
ENDBRANCH  26  39
ENDBRANCH   4  26
TORSDOF 13
ENDMDL
