MODEL 1
REMARK VINA RESULT:      -7.7      0.000      0.000
REMARK  Name = *****
REMARK                            x       y       z     vdW  Elec       q    Type
REMARK                         _______ _______ _______ _____ _____    ______ ____
ROOT
ATOM      1  C   LIG    1       25.665 -21.447   7.627  0.00  0.00    -0.045 A 
ATOM      2  C   LIG    1       25.853 -22.775   7.230  0.00  0.00    +0.016 A 
ATOM      3  C   LIG    1       24.773 -23.578   6.829  0.00  0.00    +0.055 A 
ATOM      4  C   LIG    1       23.483 -23.029   6.842  0.00  0.00    +0.012 A 
ATOM      5  C   LIG    1       23.283 -21.707   7.239  0.00  0.00    +0.001 A 
ATOM      6  C   LIG    1       24.368 -20.921   7.632  0.00  0.00    +0.003 A 
ENDROOT
BRANCH   3   7
ATOM      7  C   LIG    1       25.029 -25.004   6.390  0.00  0.00    +0.417 C 
ATOM      8  F   LIG    1       25.501 -25.083   5.116  0.00  0.00    -0.166 F 
ATOM      9  F   LIG    1       23.894 -25.756   6.418  0.00  0.00    -0.166 F 
ATOM     10  F   LIG    1       25.931 -25.657   7.168  0.00  0.00    -0.166 F 
ENDBRANCH   3   7
BRANCH   1  11
ATOM     11  C   LIG    1       26.845 -20.590   8.029  0.00  0.00    +0.053 C 
BRANCH  11  12
ATOM     12  C   LIG    1       28.186 -20.962   7.349  0.00  0.00    +0.055 C 
ATOM     13  C   LIG    1       28.399 -20.163   6.055  0.00  0.00    +0.024 C 
BRANCH  12  14
ATOM     14  N   LIG    1       29.351 -20.690   8.221  0.00  0.00    -0.314 NA
ATOM     15  H   LIG    1       29.017 -20.486   9.165  0.00  0.00    +0.122 HD
BRANCH  14  17
ATOM     16  C   LIG    1       30.116 -18.417   8.753  0.00  0.00    +0.020 C 
ATOM     17  C   LIG    1       30.177 -19.572   7.763  0.00  0.00    +0.077 C 
ENDBRANCH  14  17
ENDBRANCH  12  14
ENDBRANCH  11  12
ENDBRANCH   1  11
TORSDOF 5
ENDMDL
MODEL 2
REMARK VINA RESULT:      -7.6      1.742      2.752
REMARK  Name = *****
REMARK                            x       y       z     vdW  Elec       q    Type
REMARK                         _______ _______ _______ _____ _____    ______ ____
ROOT
ATOM      1  C   LIG    1       25.040 -22.231   7.486  0.00  0.00    -0.045 A 
ATOM      2  C   LIG    1       25.472 -23.519   7.152  0.00  0.00    +0.016 A 
ATOM      3  C   LIG    1       24.575 -24.496   6.695  0.00  0.00    +0.055 A 
ATOM      4  C   LIG    1       23.216 -24.166   6.587  0.00  0.00    +0.012 A 
ATOM      5  C   LIG    1       22.772 -22.887   6.920  0.00  0.00    +0.001 A 
ATOM      6  C   LIG    1       23.678 -21.926   7.370  0.00  0.00    +0.003 A 
ENDROOT
BRANCH   3   7
ATOM      7  C   LIG    1       25.093 -25.870   6.328  0.00  0.00    +0.417 C 
ATOM      8  F   LIG    1       25.631 -25.910   5.078  0.00  0.00    -0.166 F 
ATOM      9  F   LIG    1       24.106 -26.807   6.343  0.00  0.00    -0.166 F 
ATOM     10  F   LIG    1       26.058 -26.327   7.168  0.00  0.00    -0.166 F 
ENDBRANCH   3   7
BRANCH   1  11
ATOM     11  C   LIG    1       26.027 -21.183   7.950  0.00  0.00    +0.053 C 
BRANCH  11  12
ATOM     12  C   LIG    1       26.747 -20.414   6.815  0.00  0.00    +0.055 C 
ATOM     13  C   LIG    1       28.274 -20.524   6.945  0.00  0.00    +0.024 C 
BRANCH  12  14
ATOM     14  N   LIG    1       26.390 -20.931   5.474  0.00  0.00    -0.314 NA
ATOM     15  H   LIG    1       27.245 -21.202   4.985  0.00  0.00    +0.122 HD
BRANCH  14  17
ATOM     16  C   LIG    1       24.453 -20.618   3.997  0.00  0.00    +0.020 C 
ATOM     17  C   LIG    1       25.663 -19.965   4.649  0.00  0.00    +0.077 C 
ENDBRANCH  14  17
ENDBRANCH  12  14
ENDBRANCH  11  12
ENDBRANCH   1  11
TORSDOF 5
ENDMDL
MODEL 3
REMARK VINA RESULT:      -7.6      2.650      3.239
REMARK  Name = *****
REMARK                            x       y       z     vdW  Elec       q    Type
REMARK                         _______ _______ _______ _____ _____    ______ ____
ROOT
ATOM      1  C   LIG    1       25.761 -21.272   7.425  0.00  0.00    -0.045 A 
ATOM      2  C   LIG    1       24.816 -20.603   6.641  0.00  0.00    +0.016 A 
ATOM      3  C   LIG    1       23.724 -21.279   6.075  0.00  0.00    +0.055 A 
ATOM      4  C   LIG    1       23.595 -22.657   6.299  0.00  0.00    +0.012 A 
ATOM      5  C   LIG    1       24.533 -23.336   7.076  0.00  0.00    +0.001 A 
ATOM      6  C   LIG    1       25.611 -22.648   7.634  0.00  0.00    +0.003 A 
ENDROOT
BRANCH   3   7
ATOM      7  C   LIG    1       22.717 -20.507   5.248  0.00  0.00    +0.417 C 
ATOM      8  F   LIG    1       23.199 -20.167   4.021  0.00  0.00    -0.166 F 
ATOM      9  F   LIG    1       22.355 -19.340   5.846  0.00  0.00    -0.166 F 
ATOM     10  F   LIG    1       21.563 -21.189   5.025  0.00  0.00    -0.166 F 
ENDBRANCH   3   7
BRANCH   1  11
ATOM     11  C   LIG    1       26.916 -20.519   8.049  0.00  0.00    +0.053 C 
BRANCH  11  12
ATOM     12  C   LIG    1       28.308 -20.853   7.460  0.00  0.00    +0.055 C 
ATOM     13  C   LIG    1       28.533 -20.142   6.117  0.00  0.00    +0.024 C 
BRANCH  12  14
ATOM     14  N   LIG    1       29.411 -20.439   8.357  0.00  0.00    -0.314 NA
ATOM     15  H   LIG    1       29.029 -20.255   9.287  0.00  0.00    +0.122 HD
BRANCH  14  17
ATOM     16  C   LIG    1       30.111 -18.166   8.969  0.00  0.00    +0.020 C 
ATOM     17  C   LIG    1       30.124 -19.247   7.897  0.00  0.00    +0.077 C 
ENDBRANCH  14  17
ENDBRANCH  12  14
ENDBRANCH  11  12
ENDBRANCH   1  11
TORSDOF 5
ENDMDL
MODEL 4
REMARK VINA RESULT:      -7.6      3.038      3.693
REMARK  Name = *****
REMARK                            x       y       z     vdW  Elec       q    Type
REMARK                         _______ _______ _______ _____ _____    ______ ____
ROOT
ATOM      1  C   LIG    1       25.921 -20.548   7.068  0.00  0.00    -0.045 A 
ATOM      2  C   LIG    1       25.721 -20.305   5.706  0.00  0.00    +0.016 A 
ATOM      3  C   LIG    1       24.442 -20.367   5.132  0.00  0.00    +0.055 A 
ATOM      4  C   LIG    1       23.351 -20.693   5.950  0.00  0.00    +0.012 A 
ATOM      5  C   LIG    1       23.538 -20.941   7.309  0.00  0.00    +0.001 A 
ATOM      6  C   LIG    1       24.816 -20.872   7.865  0.00  0.00    +0.003 A 
ENDROOT
BRANCH   3   7
ATOM      7  C   LIG    1       24.273 -20.077   3.655  0.00  0.00    +0.417 C 
ATOM      8  F   LIG    1       23.931 -21.184   2.941  0.00  0.00    -0.166 F 
ATOM      9  F   LIG    1       25.421 -19.608   3.094  0.00  0.00    -0.166 F 
ATOM     10  F   LIG    1       23.319 -19.147   3.391  0.00  0.00    -0.166 F 
ENDBRANCH   3   7
BRANCH   1  11
ATOM     11  C   LIG    1       27.304 -20.449   7.673  0.00  0.00    +0.053 C 
BRANCH  11  12
ATOM     12  C   LIG    1       28.471 -20.618   6.669  0.00  0.00    +0.055 C 
ATOM     13  C   LIG    1       29.096 -19.263   6.303  0.00  0.00    +0.024 C 
BRANCH  12  14
ATOM     14  N   LIG    1       29.560 -21.462   7.212  0.00  0.00    -0.314 NA
ATOM     15  H   LIG    1       29.158 -22.328   7.576  0.00  0.00    +0.122 HD
BRANCH  14  17
ATOM     16  C   LIG    1       31.072 -21.851   9.108  0.00  0.00    +0.020 C 
ATOM     17  C   LIG    1       30.326 -20.816   8.279  0.00  0.00    +0.077 C 
ENDBRANCH  14  17
ENDBRANCH  12  14
ENDBRANCH  11  12
ENDBRANCH   1  11
TORSDOF 5
ENDMDL
MODEL 5
REMARK VINA RESULT:      -7.5      3.728      6.289
REMARK  Name = *****
REMARK                            x       y       z     vdW  Elec       q    Type
REMARK                         _______ _______ _______ _____ _____    ______ ____
ROOT
ATOM      1  C   LIG    1       25.009 -24.339   6.897  0.00  0.00    -0.045 A 
ATOM      2  C   LIG    1       25.848 -23.311   7.338  0.00  0.00    +0.016 A 
ATOM      3  C   LIG    1       25.357 -22.018   7.576  0.00  0.00    +0.055 A 
ATOM      4  C   LIG    1       23.997 -21.760   7.352  0.00  0.00    +0.012 A 
ATOM      5  C   LIG    1       23.151 -22.777   6.909  0.00  0.00    +0.001 A 
ATOM      6  C   LIG    1       23.654 -24.058   6.680  0.00  0.00    +0.003 A 
ENDROOT
BRANCH   3   7
ATOM      7  C   LIG    1       26.301 -20.942   8.070  0.00  0.00    +0.417 C 
ATOM      8  F   LIG    1       27.524 -21.434   8.410  0.00  0.00    -0.166 F 
ATOM      9  F   LIG    1       25.825 -20.318   9.182  0.00  0.00    -0.166 F 
ATOM     10  F   LIG    1       26.530 -19.961   7.158  0.00  0.00    -0.166 F 
ENDBRANCH   3   7
BRANCH   1  11
ATOM     11  C   LIG    1       25.551 -25.733   6.673  0.00  0.00    +0.053 C 
BRANCH  11  12
ATOM     12  C   LIG    1       25.058 -26.427   5.379  0.00  0.00    +0.055 C 
ATOM     13  C   LIG    1       26.215 -27.116   4.638  0.00  0.00    +0.024 C 
BRANCH  12  14
ATOM     14  N   LIG    1       24.040 -27.466   5.653  0.00  0.00    -0.314 NA
ATOM     15  H   LIG    1       23.534 -27.217   6.505  0.00  0.00    +0.122 HD
BRANCH  14  17
ATOM     16  C   LIG    1       24.437 -29.290   7.249  0.00  0.00    +0.020 C 
ATOM     17  C   LIG    1       24.602 -28.808   5.815  0.00  0.00    +0.077 C 
ENDBRANCH  14  17
ENDBRANCH  12  14
ENDBRANCH  11  12
ENDBRANCH   1  11
TORSDOF 5
ENDMDL
MODEL 6
REMARK VINA RESULT:      -7.5      4.177      6.314
REMARK  Name = *****
REMARK                            x       y       z     vdW  Elec       q    Type
REMARK                         _______ _______ _______ _____ _____    ______ ____
ROOT
ATOM      1  C   LIG    1       26.241 -20.737   6.052  0.00  0.00    -0.045 A 
ATOM      2  C   LIG    1       27.328 -19.885   5.831  0.00  0.00    +0.016 A 
ATOM      3  C   LIG    1       28.460 -19.913   6.660  0.00  0.00    +0.055 A 
ATOM      4  C   LIG    1       28.484 -20.809   7.738  0.00  0.00    +0.012 A 
ATOM      5  C   LIG    1       27.405 -21.661   7.972  0.00  0.00    +0.001 A 
ATOM      6  C   LIG    1       26.289 -21.623   7.135  0.00  0.00    +0.003 A 
ENDROOT
BRANCH   3   7
ATOM      7  C   LIG    1       29.620 -18.984   6.369  0.00  0.00    +0.417 C 
ATOM      8  F   LIG    1       29.751 -18.002   7.303  0.00  0.00    -0.166 F 
ATOM      9  F   LIG    1       29.476 -18.350   5.174  0.00  0.00    -0.166 F 
ATOM     10  F   LIG    1       30.821 -19.617   6.316  0.00  0.00    -0.166 F 
ENDBRANCH   3   7
BRANCH   1  11
ATOM     11  C   LIG    1       25.042 -20.712   5.130  0.00  0.00    +0.053 C 
BRANCH  11  12
ATOM     12  C   LIG    1       23.670 -20.823   5.839  0.00  0.00    +0.055 C 
ATOM     13  C   LIG    1       22.695 -19.743   5.345  0.00  0.00    +0.024 C 
BRANCH  12  14
ATOM     14  N   LIG    1       23.020 -22.132   5.600  0.00  0.00    -0.314 NA
ATOM     15  H   LIG    1       22.090 -21.973   5.207  0.00  0.00    +0.122 HD
BRANCH  14  17
ATOM     16  C   LIG    1       23.603 -24.282   6.634  0.00  0.00    +0.020 C 
ATOM     17  C   LIG    1       22.887 -22.949   6.807  0.00  0.00    +0.077 C 
ENDBRANCH  14  17
ENDBRANCH  12  14
ENDBRANCH  11  12
ENDBRANCH   1  11
TORSDOF 5
ENDMDL
MODEL 7
REMARK VINA RESULT:      -7.4      2.717      3.586
REMARK  Name = *****
REMARK                            x       y       z     vdW  Elec       q    Type
REMARK                         _______ _______ _______ _____ _____    ______ ____
ROOT
ATOM      1  C   LIG    1       27.582 -20.274   6.858  0.00  0.00    -0.045 A 
ATOM      2  C   LIG    1       26.650 -20.323   5.817  0.00  0.00    +0.016 A 
ATOM      3  C   LIG    1       25.290 -20.566   6.064  0.00  0.00    +0.055 A 
ATOM      4  C   LIG    1       24.871 -20.775   7.385  0.00  0.00    +0.012 A 
ATOM      5  C   LIG    1       25.792 -20.732   8.432  0.00  0.00    +0.001 A 
ATOM      6  C   LIG    1       27.140 -20.486   8.170  0.00  0.00    +0.003 A 
ENDROOT
BRANCH   3   7
ATOM      7  C   LIG    1       24.316 -20.590   4.905  0.00  0.00    +0.417 C 
ATOM      8  F   LIG    1       24.431 -21.716   4.148  0.00  0.00    -0.166 F 
ATOM      9  F   LIG    1       24.508 -19.545   4.056  0.00  0.00    -0.166 F 
ATOM     10  F   LIG    1       23.014 -20.527   5.290  0.00  0.00    -0.166 F 
ENDBRANCH   3   7
BRANCH   1  11
ATOM     11  C   LIG    1       29.040 -19.984   6.575  0.00  0.00    +0.053 C 
BRANCH  11  12
ATOM     12  C   LIG    1       29.869 -19.537   7.804  0.00  0.00    +0.055 C 
ATOM     13  C   LIG    1       30.804 -20.656   8.286  0.00  0.00    +0.024 C 
BRANCH  12  14
ATOM     14  N   LIG    1       30.719 -18.361   7.509  0.00  0.00    -0.314 NA
ATOM     15  H   LIG    1       31.445 -18.636   6.845  0.00  0.00    +0.122 HD
BRANCH  14  17
ATOM     16  C   LIG    1       30.315 -17.224   9.648  0.00  0.00    +0.020 C 
ATOM     17  C   LIG    1       31.359 -17.789   8.694  0.00  0.00    +0.077 C 
ENDBRANCH  14  17
ENDBRANCH  12  14
ENDBRANCH  11  12
ENDBRANCH   1  11
TORSDOF 5
ENDMDL
MODEL 8
REMARK VINA RESULT:      -7.4      2.675      3.951
REMARK  Name = *****
REMARK                            x       y       z     vdW  Elec       q    Type
REMARK                         _______ _______ _______ _____ _____    ______ ____
ROOT
ATOM      1  C   LIG    1       24.032 -21.295   6.880  0.00  0.00    -0.045 A 
ATOM      2  C   LIG    1       24.027 -22.631   6.468  0.00  0.00    +0.016 A 
ATOM      3  C   LIG    1       25.036 -23.523   6.865  0.00  0.00    +0.055 A 
ATOM      4  C   LIG    1       26.072 -23.049   7.682  0.00  0.00    +0.012 A 
ATOM      5  C   LIG    1       26.090 -21.718   8.097  0.00  0.00    +0.001 A 
ATOM      6  C   LIG    1       25.077 -20.845   7.696  0.00  0.00    +0.003 A 
ENDROOT
BRANCH   3   7
ATOM      7  C   LIG    1       24.977 -24.966   6.408  0.00  0.00    +0.417 C 
ATOM      8  F   LIG    1       25.331 -25.115   5.102  0.00  0.00    -0.166 F 
ATOM      9  F   LIG    1       23.724 -25.484   6.520  0.00  0.00    -0.166 F 
ATOM     10  F   LIG    1       25.790 -25.792   7.117  0.00  0.00    -0.166 F 
ENDBRANCH   3   7
BRANCH   1  11
ATOM     11  C   LIG    1       22.921 -20.357   6.464  0.00  0.00    +0.053 C 
BRANCH  11  12
ATOM     12  C   LIG    1       22.670 -20.276   4.938  0.00  0.00    +0.055 C 
ATOM     13  C   LIG    1       22.298 -18.849   4.506  0.00  0.00    +0.024 C 
BRANCH  12  14
ATOM     14  N   LIG    1       23.863 -20.666   4.152  0.00  0.00    -0.314 NA
ATOM     15  H   LIG    1       24.428 -21.312   4.708  0.00  0.00    +0.122 HD
BRANCH  14  17
ATOM     16  C   LIG    1       26.090 -19.652   4.360  0.00  0.00    +0.020 C 
ATOM     17  C   LIG    1       24.699 -19.533   3.754  0.00  0.00    +0.077 C 
ENDBRANCH  14  17
ENDBRANCH  12  14
ENDBRANCH  11  12
ENDBRANCH   1  11
TORSDOF 5
ENDMDL
MODEL 9
REMARK VINA RESULT:      -7.3      1.085      1.564
REMARK  Name = *****
REMARK                            x       y       z     vdW  Elec       q    Type
REMARK                         _______ _______ _______ _____ _____    ______ ____
ROOT
ATOM      1  C   LIG    1       25.167 -22.041   6.538  0.00  0.00    -0.045 A 
ATOM      2  C   LIG    1       25.579 -23.373   6.435  0.00  0.00    +0.016 A 
ATOM      3  C   LIG    1       24.659 -24.431   6.507  0.00  0.00    +0.055 A 
ATOM      4  C   LIG    1       23.302 -24.133   6.697  0.00  0.00    +0.012 A 
ATOM      5  C   LIG    1       22.880 -22.808   6.805  0.00  0.00    +0.001 A 
ATOM      6  C   LIG    1       23.807 -21.768   6.729  0.00  0.00    +0.003 A 
ENDROOT
BRANCH   3   7
ATOM      7  C   LIG    1       25.151 -25.856   6.371  0.00  0.00    +0.417 C 
ATOM      8  F   LIG    1       25.827 -26.069   5.209  0.00  0.00    -0.166 F 
ATOM      9  F   LIG    1       24.126 -26.751   6.380  0.00  0.00    -0.166 F 
ATOM     10  F   LIG    1       25.991 -26.237   7.370  0.00  0.00    -0.166 F 
ENDBRANCH   3   7
BRANCH   1  11
ATOM     11  C   LIG    1       26.171 -20.914   6.431  0.00  0.00    +0.053 C 
BRANCH  11  12
ATOM     12  C   LIG    1       26.822 -20.488   7.770  0.00  0.00    +0.055 C 
ATOM     13  C   LIG    1       25.829 -20.604   8.937  0.00  0.00    +0.024 C 
BRANCH  12  14
ATOM     14  N   LIG    1       27.993 -21.326   8.115  0.00  0.00    -0.314 NA
ATOM     15  H   LIG    1       28.110 -21.329   9.130  0.00  0.00    +0.122 HD
BRANCH  14  17
ATOM     16  C   LIG    1       29.529 -19.424   7.877  0.00  0.00    +0.020 C 
ATOM     17  C   LIG    1       29.240 -20.870   7.499  0.00  0.00    +0.077 C 
ENDBRANCH  14  17
ENDBRANCH  12  14
ENDBRANCH  11  12
ENDBRANCH   1  11
TORSDOF 5
ENDMDL
