MODEL 1
REMARK VINA RESULT:      -5.5      0.000      0.000
REMARK  Name = *****
REMARK                            x       y       z     vdW  Elec       q    Type
REMARK                         _______ _______ _______ _____ _____    ______ ____
ROOT
ATOM      1  C   LIG    1       31.321 -16.965   9.216  0.00  0.00    +0.176 C 
ENDROOT
BRANCH   1   2
ATOM      2  O   LIG    1       32.674 -16.919   8.728  0.00  0.00    -0.387 OA
ATOM      3  H   LIG    1       33.242 -16.938   9.521  0.00  0.00    +0.210 HD
ENDBRANCH   1   2
BRANCH   1   4
ATOM      4  C   LIG    1       30.558 -18.082   8.478  0.00  0.00    +0.171 C 
BRANCH   4   5
ATOM      5  O   LIG    1       29.538 -18.655   9.307  0.00  0.00    -0.387 OA
ATOM      6  H   LIG    1       28.878 -19.008   8.674  0.00  0.00    +0.210 HD
ENDBRANCH   4   5
BRANCH   4   7
ATOM      7  C   LIG    1       31.451 -19.206   7.946  0.00  0.00    +0.190 C 
BRANCH   7   8
ATOM      8  O   LIG    1       32.084 -19.843   9.062  0.00  0.00    -0.392 OA
ATOM      9  H   LIG    1       31.514 -19.664   9.832  0.00  0.00    +0.209 HD
ENDBRANCH   7   8
ENDBRANCH   4   7
ENDBRANCH   1   4
BRANCH   1  10
ATOM     10  C   LIG    1       31.362 -17.058  10.755  0.00  0.00    +0.176 C 
BRANCH  10  11
ATOM     11  O   LIG    1       30.213 -16.375  11.300  0.00  0.00    -0.387 OA
ATOM     12  H   LIG    1       30.421 -16.273  12.255  0.00  0.00    +0.210 HD
ENDBRANCH  10  11
BRANCH  10  13
ATOM     13  C   LIG    1       32.640 -16.529  11.427  0.00  0.00    +0.171 C 
BRANCH  13  14
ATOM     14  O   LIG    1       32.870 -15.196  10.917  0.00  0.00    -0.387 OA
ATOM     15  H   LIG    1       31.977 -14.798  10.868  0.00  0.00    +0.210 HD
ENDBRANCH  13  14
BRANCH  13  16
ATOM     16  C   LIG    1       32.535 -16.468  12.952  0.00  0.00    +0.190 C 
BRANCH  16  17
ATOM     17  O   LIG    1       31.815 -15.288  13.327  0.00  0.00    -0.392 OA
ATOM     18  H   LIG    1       31.163 -15.563  13.986  0.00  0.00    +0.209 HD
ENDBRANCH  16  17
ENDBRANCH  13  16
ENDBRANCH  10  13
ENDBRANCH   1  10
TORSDOF 11
ENDMDL
MODEL 2
REMARK VINA RESULT:      -5.5      2.324      5.534
REMARK  Name = *****
REMARK                            x       y       z     vdW  Elec       q    Type
REMARK                         _______ _______ _______ _____ _____    ______ ____
ROOT
ATOM      1  C   LIG    1       30.872 -19.134   8.714  0.00  0.00    +0.176 C 
ENDROOT
BRANCH   1   2
ATOM      2  O   LIG    1       32.067 -19.795   9.169  0.00  0.00    -0.387 OA
ATOM      3  H   LIG    1       32.364 -20.346   8.421  0.00  0.00    +0.210 HD
ENDBRANCH   1   2
BRANCH   1   4
ATOM      4  C   LIG    1       31.014 -17.618   8.952  0.00  0.00    +0.171 C 
BRANCH   4   5
ATOM      5  O   LIG    1       32.267 -17.126   8.459  0.00  0.00    -0.387 OA
ATOM      6  H   LIG    1       32.081 -16.865   7.532  0.00  0.00    +0.210 HD
ENDBRANCH   4   5
BRANCH   4   7
ATOM      7  C   LIG    1       30.860 -17.196  10.415  0.00  0.00    +0.190 C 
BRANCH   7   8
ATOM      8  O   LIG    1       30.642 -18.373  11.202  0.00  0.00    -0.392 OA
ATOM      9  H   LIG    1       30.716 -19.125  10.586  0.00  0.00    +0.209 HD
ENDBRANCH   7   8
ENDBRANCH   4   7
ENDBRANCH   1   4
BRANCH   1  10
ATOM     10  C   LIG    1       30.590 -19.582   7.265  0.00  0.00    +0.176 C 
BRANCH  10  11
ATOM     11  O   LIG    1       30.273 -18.422   6.466  0.00  0.00    -0.387 OA
ATOM     12  H   LIG    1       31.069 -18.289   5.906  0.00  0.00    +0.210 HD
ENDBRANCH  10  11
BRANCH  10  13
ATOM     13  C   LIG    1       29.490 -20.641   7.091  0.00  0.00    +0.171 C 
BRANCH  13  14
ATOM     14  O   LIG    1       29.316 -21.290   8.371  0.00  0.00    -0.387 OA
ATOM     15  H   LIG    1       29.820 -22.125   8.289  0.00  0.00    +0.210 HD
ENDBRANCH  13  14
BRANCH  13  16
ATOM     16  C   LIG    1       28.150 -20.049   6.647  0.00  0.00    +0.190 C 
BRANCH  16  17
ATOM     17  O   LIG    1       28.079 -20.068   5.217  0.00  0.00    -0.392 OA
ATOM     18  H   LIG    1       28.176 -20.992   4.950  0.00  0.00    +0.209 HD
ENDBRANCH  16  17
ENDBRANCH  13  16
ENDBRANCH  10  13
ENDBRANCH   1  10
TORSDOF 11
ENDMDL
MODEL 3
REMARK VINA RESULT:      -5.4      1.710      4.843
REMARK  Name = *****
REMARK                            x       y       z     vdW  Elec       q    Type
REMARK                         _______ _______ _______ _____ _____    ______ ____
ROOT
ATOM      1  C   LIG    1       30.624 -18.123   9.494  0.00  0.00    +0.176 C 
ENDROOT
BRANCH   1   2
ATOM      2  O   LIG    1       30.766 -18.798  10.757  0.00  0.00    -0.387 OA
ATOM      3  H   LIG    1       30.057 -19.468  10.779  0.00  0.00    +0.210 HD
ENDBRANCH   1   2
BRANCH   1   4
ATOM      4  C   LIG    1       31.384 -16.784   9.551  0.00  0.00    +0.171 C 
BRANCH   4   5
ATOM      5  O   LIG    1       32.463 -16.753   8.608  0.00  0.00    -0.387 OA
ATOM      6  H   LIG    1       32.023 -16.729   7.732  0.00  0.00    +0.210 HD
ENDBRANCH   4   5
BRANCH   4   7
ATOM      7  C   LIG    1       31.930 -16.432  10.937  0.00  0.00    +0.190 C 
BRANCH   7   8
ATOM      8  O   LIG    1       30.820 -16.165  11.803  0.00  0.00    -0.392 OA
ATOM      9  H   LIG    1       30.741 -15.195  11.846  0.00  0.00    +0.209 HD
ENDBRANCH   7   8
ENDBRANCH   4   7
ENDBRANCH   1   4
BRANCH   1  10
ATOM     10  C   LIG    1       31.031 -19.100   8.372  0.00  0.00    +0.176 C 
BRANCH  10  11
ATOM     11  O   LIG    1       30.925 -18.428   7.098  0.00  0.00    -0.387 OA
ATOM     12  H   LIG    1       29.971 -18.206   7.021  0.00  0.00    +0.210 HD
ENDBRANCH  10  11
BRANCH  10  13
ATOM     13  C   LIG    1       30.254 -20.425   8.319  0.00  0.00    +0.171 C 
BRANCH  13  14
ATOM     14  O   LIG    1       29.927 -20.674   6.933  0.00  0.00    -0.387 OA
ATOM     15  H   LIG    1       29.632 -21.607   6.918  0.00  0.00    +0.210 HD
ENDBRANCH  13  14
BRANCH  13  16
ATOM     16  C   LIG    1       31.051 -21.612   8.864  0.00  0.00    +0.190 C 
BRANCH  16  17
ATOM     17  O   LIG    1       32.284 -21.137   9.415  0.00  0.00    -0.392 OA
ATOM     18  H   LIG    1       32.275 -21.374  10.352  0.00  0.00    +0.209 HD
ENDBRANCH  16  17
ENDBRANCH  13  16
ENDBRANCH  10  13
ENDBRANCH   1  10
TORSDOF 11
ENDMDL
MODEL 4
REMARK VINA RESULT:      -5.4      2.580      4.255
REMARK  Name = *****
REMARK                            x       y       z     vdW  Elec       q    Type
REMARK                         _______ _______ _______ _____ _____    ______ ____
ROOT
ATOM      1  C   LIG    1       29.670 -18.783   6.676  0.00  0.00    +0.176 C 
ENDROOT
BRANCH   1   2
ATOM      2  O   LIG    1       29.984 -18.153   5.421  0.00  0.00    -0.387 OA
ATOM      3  H   LIG    1       30.005 -18.873   4.763  0.00  0.00    +0.210 HD
ENDBRANCH   1   2
BRANCH   1   4
ATOM      4  C   LIG    1       28.924 -20.104   6.403  0.00  0.00    +0.171 C 
BRANCH   4   5
ATOM      5  O   LIG    1       28.121 -20.017   5.219  0.00  0.00    -0.387 OA
ATOM      6  H   LIG    1       28.671 -20.426   4.519  0.00  0.00    +0.210 HD
ENDBRANCH   4   5
BRANCH   4   7
ATOM      7  C   LIG    1       28.045 -20.578   7.563  0.00  0.00    +0.190 C 
BRANCH   7   8
ATOM      8  O   LIG    1       28.832 -21.433   8.402  0.00  0.00    -0.392 OA
ATOM      9  H   LIG    1       28.235 -22.147   8.692  0.00  0.00    +0.209 HD
ENDBRANCH   7   8
ENDBRANCH   4   7
ENDBRANCH   1   4
BRANCH   1  10
ATOM     10  C   LIG    1       30.964 -18.880   7.509  0.00  0.00    +0.176 C 
BRANCH  10  11
ATOM     11  O   LIG    1       31.529 -20.200   7.351  0.00  0.00    -0.387 OA
ATOM     12  H   LIG    1       30.839 -20.802   7.708  0.00  0.00    +0.210 HD
ENDBRANCH  10  11
BRANCH  10  13
ATOM     13  C   LIG    1       30.827 -18.556   9.005  0.00  0.00    +0.171 C 
BRANCH  13  14
ATOM     14  O   LIG    1       30.925 -19.806   9.724  0.00  0.00    -0.387 OA
ATOM     15  H   LIG    1       31.888 -19.953   9.823  0.00  0.00    +0.210 HD
ENDBRANCH  13  14
BRANCH  13  16
ATOM     16  C   LIG    1       31.909 -17.602   9.515  0.00  0.00    +0.190 C 
BRANCH  16  17
ATOM     17  O   LIG    1       32.446 -16.866   8.410  0.00  0.00    -0.392 OA
ATOM     18  H   LIG    1       32.531 -15.950   8.706  0.00  0.00    +0.209 HD
ENDBRANCH  16  17
ENDBRANCH  13  16
ENDBRANCH  10  13
ENDBRANCH   1  10
TORSDOF 11
ENDMDL
MODEL 5
REMARK VINA RESULT:      -5.4      1.987      3.321
REMARK  Name = *****
REMARK                            x       y       z     vdW  Elec       q    Type
REMARK                         _______ _______ _______ _____ _____    ______ ____
ROOT
ATOM      1  C   LIG    1       31.150 -18.764   7.467  0.00  0.00    +0.176 C 
ENDROOT
BRANCH   1   2
ATOM      2  O   LIG    1       31.769 -19.875   6.793  0.00  0.00    -0.387 OA
ATOM      3  H   LIG    1       32.257 -20.363   7.482  0.00  0.00    +0.210 HD
ENDBRANCH   1   2
BRANCH   1   4
ATOM      4  C   LIG    1       29.620 -18.954   7.448  0.00  0.00    +0.171 C 
BRANCH   4   5
ATOM      5  O   LIG    1       29.226 -20.106   8.204  0.00  0.00    -0.387 OA
ATOM      6  H   LIG    1       30.071 -20.535   8.457  0.00  0.00    +0.210 HD
ENDBRANCH   4   5
BRANCH   4   7
ATOM      7  C   LIG    1       29.018 -19.055   6.044  0.00  0.00    +0.190 C 
BRANCH   7   8
ATOM      8  O   LIG    1       29.724 -18.148   5.187  0.00  0.00    -0.392 OA
ATOM      9  H   LIG    1       29.208 -18.105   4.361  0.00  0.00    +0.209 HD
ENDBRANCH   7   8
ENDBRANCH   4   7
ENDBRANCH   1   4
BRANCH   1  10
ATOM     10  C   LIG    1       31.809 -18.608   8.853  0.00  0.00    +0.176 C 
BRANCH  10  11
ATOM     11  O   LIG    1       31.923 -19.909   9.470  0.00  0.00    -0.387 OA
ATOM     12  H   LIG    1       32.840 -20.195   9.264  0.00  0.00    +0.210 HD
ENDBRANCH  10  11
BRANCH  10  13
ATOM     13  C   LIG    1       31.114 -17.639   9.822  0.00  0.00    +0.171 C 
BRANCH  13  14
ATOM     14  O   LIG    1       30.852 -18.369  11.042  0.00  0.00    -0.387 OA
ATOM     15  H   LIG    1       29.949 -18.094  11.299  0.00  0.00    +0.210 HD
ENDBRANCH  13  14
BRANCH  13  16
ATOM     16  C   LIG    1       31.961 -16.407  10.151  0.00  0.00    +0.190 C 
BRANCH  16  17
ATOM     17  O   LIG    1       32.578 -15.927   8.951  0.00  0.00    -0.392 OA
ATOM     18  H   LIG    1       31.886 -15.907   8.276  0.00  0.00    +0.209 HD
ENDBRANCH  16  17
ENDBRANCH  13  16
ENDBRANCH  10  13
ENDBRANCH   1  10
TORSDOF 11
ENDMDL
MODEL 6
REMARK VINA RESULT:      -5.3      2.412      5.537
REMARK  Name = *****
REMARK                            x       y       z     vdW  Elec       q    Type
REMARK                         _______ _______ _______ _____ _____    ______ ____
ROOT
ATOM      1  C   LIG    1       30.359 -18.296   7.923  0.00  0.00    +0.176 C 
ENDROOT
BRANCH   1   2
ATOM      2  O   LIG    1       29.405 -18.637   8.944  0.00  0.00    -0.387 OA
ATOM      3  H   LIG    1       28.527 -18.503   8.540  0.00  0.00    +0.210 HD
ENDBRANCH   1   2
BRANCH   1   4
ATOM      4  C   LIG    1       31.783 -18.455   8.491  0.00  0.00    +0.171 C 
BRANCH   4   5
ATOM      5  O   LIG    1       31.953 -19.727   9.128  0.00  0.00    -0.387 OA
ATOM      6  H   LIG    1       31.040 -20.064   9.251  0.00  0.00    +0.210 HD
ENDBRANCH   4   5
BRANCH   4   7
ATOM      7  C   LIG    1       32.193 -17.353   9.472  0.00  0.00    +0.190 C 
BRANCH   7   8
ATOM      8  O   LIG    1       32.604 -16.208   8.714  0.00  0.00    -0.392 OA
ATOM      9  H   LIG    1       33.076 -16.556   7.936  0.00  0.00    +0.209 HD
ENDBRANCH   7   8
ENDBRANCH   4   7
ENDBRANCH   1   4
BRANCH   1  10
ATOM     10  C   LIG    1       30.027 -19.109   6.655  0.00  0.00    +0.176 C 
BRANCH  10  11
ATOM     11  O   LIG    1       30.000 -18.220   5.517  0.00  0.00    -0.387 OA
ATOM     12  H   LIG    1       30.801 -18.460   5.003  0.00  0.00    +0.210 HD
ENDBRANCH  10  11
BRANCH  10  13
ATOM     13  C   LIG    1       28.725 -19.924   6.701  0.00  0.00    +0.171 C 
BRANCH  13  14
ATOM     14  O   LIG    1       28.168 -19.916   5.367  0.00  0.00    -0.387 OA
ATOM     15  H   LIG    1       28.894 -20.249   4.800  0.00  0.00    +0.210 HD
ENDBRANCH  13  14
BRANCH  13  16
ATOM     16  C   LIG    1       28.938 -21.374   7.143  0.00  0.00    +0.190 C 
BRANCH  16  17
ATOM     17  O   LIG    1       29.385 -21.390   8.503  0.00  0.00    -0.392 OA
ATOM     18  H   LIG    1       30.317 -21.134   8.489  0.00  0.00    +0.209 HD
ENDBRANCH  16  17
ENDBRANCH  13  16
ENDBRANCH  10  13
ENDBRANCH   1  10
TORSDOF 11
ENDMDL
MODEL 7
REMARK VINA RESULT:      -5.3      2.059      3.260
REMARK  Name = *****
REMARK                            x       y       z     vdW  Elec       q    Type
REMARK                         _______ _______ _______ _____ _____    ______ ____
ROOT
ATOM      1  C   LIG    1       30.357 -18.689   7.765  0.00  0.00    +0.176 C 
ENDROOT
BRANCH   1   2
ATOM      2  O   LIG    1       30.565 -18.515   6.352  0.00  0.00    -0.387 OA
ATOM      3  H   LIG    1       29.980 -17.780   6.088  0.00  0.00    +0.210 HD
ENDBRANCH   1   2
BRANCH   1   4
ATOM      4  C   LIG    1       29.642 -20.033   8.007  0.00  0.00    +0.171 C 
BRANCH   4   5
ATOM      5  O   LIG    1       30.452 -21.139   7.589  0.00  0.00    -0.387 OA
ATOM      6  H   LIG    1       30.832 -20.855   6.731  0.00  0.00    +0.210 HD
ENDBRANCH   4   5
BRANCH   4   7
ATOM      7  C   LIG    1       28.271 -20.144   7.336  0.00  0.00    +0.190 C 
BRANCH   7   8
ATOM      8  O   LIG    1       28.466 -20.587   5.987  0.00  0.00    -0.392 OA
ATOM      9  H   LIG    1       28.465 -19.783   5.437  0.00  0.00    +0.209 HD
ENDBRANCH   7   8
ENDBRANCH   4   7
ENDBRANCH   1   4
BRANCH   1  10
ATOM     10  C   LIG    1       31.707 -18.486   8.484  0.00  0.00    +0.176 C 
BRANCH  10  11
ATOM     11  O   LIG    1       32.031 -19.682   9.226  0.00  0.00    -0.387 OA
ATOM     12  H   LIG    1       32.808 -20.056   8.755  0.00  0.00    +0.210 HD
ENDBRANCH  10  11
BRANCH  10  13
ATOM     13  C   LIG    1       31.796 -17.265   9.413  0.00  0.00    +0.171 C 
BRANCH  13  14
ATOM     14  O   LIG    1       32.550 -16.250   8.713  0.00  0.00    -0.387 OA
ATOM     15  H   LIG    1       32.763 -16.659   7.850  0.00  0.00    +0.210 HD
ENDBRANCH  13  14
BRANCH  13  16
ATOM     16  C   LIG    1       30.427 -16.697   9.793  0.00  0.00    +0.190 C 
BRANCH  16  17
ATOM     17  O   LIG    1       30.398 -16.443  11.202  0.00  0.00    -0.392 OA
ATOM     18  H   LIG    1       30.514 -17.298  11.637  0.00  0.00    +0.209 HD
ENDBRANCH  16  17
ENDBRANCH  13  16
ENDBRANCH  10  13
ENDBRANCH   1  10
TORSDOF 11
ENDMDL
MODEL 8
REMARK VINA RESULT:      -5.2      2.796      4.658
REMARK  Name = *****
REMARK                            x       y       z     vdW  Elec       q    Type
REMARK                         _______ _______ _______ _____ _____    ______ ____
ROOT
ATOM      1  C   LIG    1       29.429 -20.526   7.544  0.00  0.00    +0.176 C 
ENDROOT
BRANCH   1   2
ATOM      2  O   LIG    1       29.630 -21.436   8.640  0.00  0.00    -0.387 OA
ATOM      3  H   LIG    1       29.117 -21.069   9.385  0.00  0.00    +0.210 HD
ENDBRANCH   1   2
BRANCH   1   4
ATOM      4  C   LIG    1       27.955 -20.075   7.528  0.00  0.00    +0.171 C 
BRANCH   4   5
ATOM      5  O   LIG    1       27.253 -20.541   8.688  0.00  0.00    -0.387 OA
ATOM      6  H   LIG    1       26.330 -20.665   8.383  0.00  0.00    +0.210 HD
ENDBRANCH   4   5
BRANCH   4   7
ATOM      7  C   LIG    1       27.182 -20.504   6.278  0.00  0.00    +0.190 C 
BRANCH   7   8
ATOM      8  O   LIG    1       27.904 -20.051   5.126  0.00  0.00    -0.392 OA
ATOM      9  H   LIG    1       28.034 -19.093   5.250  0.00  0.00    +0.209 HD
ENDBRANCH   7   8
ENDBRANCH   4   7
ENDBRANCH   1   4
BRANCH   1  10
ATOM     10  C   LIG    1       30.490 -19.411   7.636  0.00  0.00    +0.176 C 
BRANCH  10  11
ATOM     11  O   LIG    1       31.635 -19.781   6.837  0.00  0.00    -0.387 OA
ATOM     12  H   LIG    1       32.103 -18.933   6.676  0.00  0.00    +0.210 HD
ENDBRANCH  10  11
BRANCH  10  13
ATOM     13  C   LIG    1       30.953 -19.038   9.054  0.00  0.00    +0.171 C 
BRANCH  13  14
ATOM     14  O   LIG    1       32.121 -19.838   9.345  0.00  0.00    -0.387 OA
ATOM     15  H   LIG    1       32.871 -19.295   9.027  0.00  0.00    +0.210 HD
ENDBRANCH  13  14
BRANCH  13  16
ATOM     16  C   LIG    1       31.313 -17.558   9.199  0.00  0.00    +0.190 C 
BRANCH  16  17
ATOM     17  O   LIG    1       32.374 -17.241   8.291  0.00  0.00    -0.392 OA
ATOM     18  H   LIG    1       32.568 -18.052   7.802  0.00  0.00    +0.209 HD
ENDBRANCH  16  17
ENDBRANCH  13  16
ENDBRANCH  10  13
ENDBRANCH   1  10
TORSDOF 11
ENDMDL
MODEL 9
REMARK VINA RESULT:      -5.2      1.024      4.568
REMARK  Name = *****
REMARK                            x       y       z     vdW  Elec       q    Type
REMARK                         _______ _______ _______ _____ _____    ______ ____
ROOT
ATOM      1  C   LIG    1       31.982 -17.345   9.689  0.00  0.00    +0.176 C 
ENDROOT
BRANCH   1   2
ATOM      2  O   LIG    1       32.391 -16.178   8.954  0.00  0.00    -0.387 OA
ATOM      3  H   LIG    1       33.366 -16.207   8.935  0.00  0.00    +0.210 HD
ENDBRANCH   1   2
BRANCH   1   4
ATOM      4  C   LIG    1       31.579 -16.925  11.116  0.00  0.00    +0.171 C 
BRANCH   4   5
ATOM      5  O   LIG    1       30.361 -16.169  11.115  0.00  0.00    -0.387 OA
ATOM      6  H   LIG    1       30.082 -16.154  10.175  0.00  0.00    +0.210 HD
ENDBRANCH   4   5
BRANCH   4   7
ATOM      7  C   LIG    1       32.653 -16.129  11.862  0.00  0.00    +0.190 C 
BRANCH   7   8
ATOM      8  O   LIG    1       32.025 -15.433  12.946  0.00  0.00    -0.392 OA
ATOM      9  H   LIG    1       31.066 -15.565  12.830  0.00  0.00    +0.209 HD
ENDBRANCH   7   8
ENDBRANCH   4   7
ENDBRANCH   1   4
BRANCH   1  10
ATOM     10  C   LIG    1       30.914 -18.091   8.862  0.00  0.00    +0.176 C 
BRANCH  10  11
ATOM     11  O   LIG    1       29.787 -18.396   9.712  0.00  0.00    -0.387 OA
ATOM     12  H   LIG    1       30.069 -19.194  10.211  0.00  0.00    +0.210 HD
ENDBRANCH  10  11
BRANCH  10  13
ATOM     13  C   LIG    1       31.386 -19.372   8.155  0.00  0.00    +0.171 C 
BRANCH  13  14
ATOM     14  O   LIG    1       32.130 -20.144   9.123  0.00  0.00    -0.387 OA
ATOM     15  H   LIG    1       31.858 -21.069   8.955  0.00  0.00    +0.210 HD
ENDBRANCH  13  14
BRANCH  13  16
ATOM     16  C   LIG    1       30.231 -20.222   7.620  0.00  0.00    +0.190 C 
BRANCH  16  17
ATOM     17  O   LIG    1       29.842 -21.169   8.622  0.00  0.00    -0.392 OA
ATOM     18  H   LIG    1       30.657 -21.567   8.955  0.00  0.00    +0.209 HD
ENDBRANCH  16  17
ENDBRANCH  13  16
ENDBRANCH  10  13
ENDBRANCH   1  10
TORSDOF 11
ENDMDL
