MODEL 1
REMARK VINA RESULT:      -8.8      0.000      0.000
REMARK  Name = *****
REMARK                            x       y       z     vdW  Elec       q    Type
REMARK                         _______ _______ _______ _____ _____    ______ ____
ROOT
ATOM      1  C   LIG    1       28.434 -20.716   6.532  0.00  0.00    +0.105 C 
ATOM      2  N   LIG    1       27.120 -20.772   7.131  0.00  0.00    -0.304 NA
ATOM      3  C   LIG    1       26.080 -20.898   6.128  0.00  0.00    +0.093 C 
ATOM      4  C   LIG    1       24.881 -21.064   7.060  0.00  0.00    +0.045 C 
ATOM      5  C   LIG    1       25.340 -22.282   7.895  0.00  0.00    +0.045 C 
ATOM      6  C   LIG    1       25.160 -23.614   7.176  0.00  0.00    -0.000 A 
ATOM      7  C   LIG    1       24.016 -23.902   6.413  0.00  0.00    +0.132 A 
ATOM      8  O   LIG    1       22.833 -23.203   6.531  0.00  0.00    -0.456 OA
ATOM      9  C   LIG    1       22.759 -21.961   5.964  0.00  0.00    +0.132 A 
ATOM     10  C   LIG    1       21.654 -21.702   5.133  0.00  0.00    +0.048 A 
ATOM     11  C   LIG    1       21.447 -20.441   4.581  0.00  0.00    +0.023 A 
ATOM     12  C   LIG    1       22.314 -19.400   4.884  0.00  0.00    +0.042 A 
ATOM     13  C   LIG    1       23.380 -19.648   5.734  0.00  0.00    +0.027 A 
ATOM     14 CL   LIG    1       22.107 -17.836   4.210  0.00  0.00    -0.084 Cl
ATOM     15  C   LIG    1       23.952 -25.061   5.627  0.00  0.00    +0.046 A 
ATOM     16  C   LIG    1       25.013 -25.964   5.607  0.00  0.00    +0.004 A 
ATOM     17  C   LIG    1       26.099 -25.755   6.445  0.00  0.00    +0.001 A 
ATOM     18  C   LIG    1       26.154 -24.611   7.243  0.00  0.00    +0.007 A 
ATOM     19  C   LIG    1       23.629 -20.936   6.259  0.00  0.00    +0.001 A 
ATOM     20  C   LIG    1       26.846 -21.837   8.116  0.00  0.00    +0.093 C 
ENDROOT
TORSDOF 0
ENDMDL
MODEL 2
REMARK VINA RESULT:      -7.1      3.260      5.798
REMARK  Name = *****
REMARK                            x       y       z     vdW  Elec       q    Type
REMARK                         _______ _______ _______ _____ _____    ______ ____
ROOT
ATOM      1  C   LIG    1       25.175 -25.495   6.484  0.00  0.00    +0.105 C 
ATOM      2  N   LIG    1       25.301 -24.245   7.199  0.00  0.00    -0.304 NA
ATOM      3  C   LIG    1       26.467 -23.499   6.768  0.00  0.00    +0.093 C 
ATOM      4  C   LIG    1       26.239 -22.226   7.582  0.00  0.00    +0.045 C 
ATOM      5  C   LIG    1       24.820 -21.839   7.105  0.00  0.00    +0.045 C 
ATOM      6  C   LIG    1       24.802 -21.154   5.744  0.00  0.00    -0.000 A 
ATOM      7  C   LIG    1       25.759 -20.193   5.380  0.00  0.00    +0.132 A 
ATOM      8  O   LIG    1       26.547 -19.526   6.294  0.00  0.00    -0.456 OA
ATOM      9  C   LIG    1       27.601 -20.199   6.848  0.00  0.00    +0.132 A 
ATOM     10  C   LIG    1       28.853 -19.558   6.822  0.00  0.00    +0.048 A 
ATOM     11  C   LIG    1       29.966 -20.125   7.437  0.00  0.00    +0.023 A 
ATOM     12  C   LIG    1       29.841 -21.322   8.130  0.00  0.00    +0.042 A 
ATOM     13  C   LIG    1       28.598 -21.931   8.186  0.00  0.00    +0.027 A 
ATOM     14 CL   LIG    1       31.190 -22.066   8.885  0.00  0.00    -0.084 Cl
ATOM     15  C   LIG    1       25.822 -19.705   4.066  0.00  0.00    +0.046 A 
ATOM     16  C   LIG    1       24.917 -20.148   3.102  0.00  0.00    +0.004 A 
ATOM     17  C   LIG    1       23.893 -21.006   3.474  0.00  0.00    +0.001 A 
ATOM     18  C   LIG    1       23.819 -21.476   4.786  0.00  0.00    +0.007 A 
ATOM     19  C   LIG    1       27.473 -21.391   7.523  0.00  0.00    +0.001 A 
ATOM     20  C   LIG    1       24.178 -23.289   7.136  0.00  0.00    +0.093 C 
ENDROOT
TORSDOF 0
ENDMDL
MODEL 3
REMARK VINA RESULT:      -6.9      2.748      5.292
REMARK  Name = *****
REMARK                            x       y       z     vdW  Elec       q    Type
REMARK                         _______ _______ _______ _____ _____    ______ ____
ROOT
ATOM      1  C   LIG    1       25.039 -25.721   4.607  0.00  0.00    +0.105 C 
ATOM      2  N   LIG    1       24.983 -25.072   5.897  0.00  0.00    -0.304 NA
ATOM      3  C   LIG    1       25.682 -23.801   5.886  0.00  0.00    +0.093 C 
ATOM      4  C   LIG    1       25.328 -23.332   7.297  0.00  0.00    +0.045 C 
ATOM      5  C   LIG    1       23.784 -23.398   7.235  0.00  0.00    +0.045 C 
ATOM      6  C   LIG    1       23.154 -22.210   6.518  0.00  0.00    -0.000 A 
ATOM      7  C   LIG    1       23.617 -20.897   6.699  0.00  0.00    +0.132 A 
ATOM      8  O   LIG    1       24.397 -20.512   7.769  0.00  0.00    -0.456 OA
ATOM      9  C   LIG    1       25.720 -20.854   7.757  0.00  0.00    +0.132 A 
ATOM     10  C   LIG    1       26.650 -19.828   8.009  0.00  0.00    +0.048 A 
ATOM     11  C   LIG    1       28.013 -20.097   8.103  0.00  0.00    +0.023 A 
ATOM     12  C   LIG    1       28.472 -21.402   7.993  0.00  0.00    +0.042 A 
ATOM     13  C   LIG    1       27.551 -22.416   7.782  0.00  0.00    +0.027 A 
ATOM     14 CL   LIG    1       30.143 -21.775   8.082  0.00  0.00    -0.084 Cl
ATOM     15  C   LIG    1       23.133 -19.850   5.902  0.00  0.00    +0.046 A 
ATOM     16  C   LIG    1       22.164 -20.088   4.929  0.00  0.00    +0.004 A 
ATOM     17  C   LIG    1       21.611 -21.356   4.818  0.00  0.00    +0.001 A 
ATOM     18  C   LIG    1       22.078 -22.393   5.625  0.00  0.00    +0.007 A 
ATOM     19  C   LIG    1       26.171 -22.149   7.634  0.00  0.00    +0.001 A 
ATOM     20  C   LIG    1       23.657 -24.785   6.478  0.00  0.00    +0.093 C 
ENDROOT
TORSDOF 0
ENDMDL
MODEL 4
REMARK VINA RESULT:      -6.3      2.880      5.339
REMARK  Name = *****
REMARK                            x       y       z     vdW  Elec       q    Type
REMARK                         _______ _______ _______ _____ _____    ______ ____
ROOT
ATOM      1  C   LIG    1       23.773 -20.676   3.204  0.00  0.00    +0.105 C 
ATOM      2  N   LIG    1       23.579 -21.321   4.483  0.00  0.00    -0.304 NA
ATOM      3  C   LIG    1       24.439 -22.479   4.633  0.00  0.00    +0.093 C 
ATOM      4  C   LIG    1       24.101 -22.828   6.082  0.00  0.00    +0.045 C 
ATOM      5  C   LIG    1       24.433 -21.489   6.779  0.00  0.00    +0.045 C 
ATOM      6  C   LIG    1       25.924 -21.281   7.016  0.00  0.00    -0.000 A 
ATOM      7  C   LIG    1       26.764 -22.321   7.450  0.00  0.00    +0.132 A 
ATOM      8  O   LIG    1       26.293 -23.477   8.036  0.00  0.00    -0.456 OA
ATOM      9  C   LIG    1       25.727 -24.424   7.230  0.00  0.00    +0.132 A 
ATOM     10  C   LIG    1       26.192 -25.744   7.370  0.00  0.00    +0.048 A 
ATOM     11  C   LIG    1       25.617 -26.791   6.655  0.00  0.00    +0.023 A 
ATOM     12  C   LIG    1       24.535 -26.548   5.819  0.00  0.00    +0.042 A 
ATOM     13  C   LIG    1       24.055 -25.253   5.712  0.00  0.00    +0.027 A 
ATOM     14 CL   LIG    1       23.810 -27.805   4.904  0.00  0.00    -0.084 Cl
ATOM     15  C   LIG    1       28.154 -22.147   7.496  0.00  0.00    +0.046 A 
ATOM     16  C   LIG    1       28.730 -20.929   7.136  0.00  0.00    +0.004 A 
ATOM     17  C   LIG    1       27.908 -19.857   6.821  0.00  0.00    +0.001 A 
ATOM     18  C   LIG    1       26.523 -20.024   6.794  0.00  0.00    +0.007 A 
ATOM     19  C   LIG    1       24.663 -24.175   6.393  0.00  0.00    +0.001 A 
ATOM     20  C   LIG    1       23.783 -20.520   5.705  0.00  0.00    +0.093 C 
ENDROOT
TORSDOF 0
ENDMDL
MODEL 5
REMARK VINA RESULT:      -6.3      5.463      7.859
REMARK  Name = *****
REMARK                            x       y       z     vdW  Elec       q    Type
REMARK                         _______ _______ _______ _____ _____    ______ ____
ROOT
ATOM      1  C   LIG    1       27.208 -29.845  11.000  0.00  0.00    +0.105 C 
ATOM      2  N   LIG    1       26.069 -29.546  10.163  0.00  0.00    -0.304 NA
ATOM      3  C   LIG    1       26.475 -28.973   8.894  0.00  0.00    +0.093 C 
ATOM      4  C   LIG    1       25.104 -28.908   8.223  0.00  0.00    +0.045 C 
ATOM      5  C   LIG    1       24.669 -30.387   8.329  0.00  0.00    +0.045 C 
ATOM      6  C   LIG    1       25.310 -31.287   7.279  0.00  0.00    -0.000 A 
ATOM      7  C   LIG    1       25.467 -30.880   5.943  0.00  0.00    +0.132 A 
ATOM      8  O   LIG    1       24.760 -29.837   5.383  0.00  0.00    -0.456 OA
ATOM      9  C   LIG    1       25.139 -28.561   5.696  0.00  0.00    +0.132 A 
ATOM     10  C   LIG    1       25.336 -27.671   4.624  0.00  0.00    +0.048 A 
ATOM     11  C   LIG    1       25.637 -26.331   4.846  0.00  0.00    +0.023 A 
ATOM     12  C   LIG    1       25.704 -25.840   6.143  0.00  0.00    +0.042 A 
ATOM     13  C   LIG    1       25.472 -26.710   7.196  0.00  0.00    +0.027 A 
ATOM     14 CL   LIG    1       26.092 -24.200   6.462  0.00  0.00    -0.084 Cl
ATOM     15  C   LIG    1       26.210 -31.655   5.041  0.00  0.00    +0.046 A 
ATOM     16  C   LIG    1       26.787 -32.857   5.446  0.00  0.00    +0.004 A 
ATOM     17  C   LIG    1       26.542 -33.331   6.727  0.00  0.00    +0.001 A 
ATOM     18  C   LIG    1       25.786 -32.569   7.619  0.00  0.00    +0.007 A 
ATOM     19  C   LIG    1       25.215 -28.084   6.984  0.00  0.00    +0.001 A 
ATOM     20  C   LIG    1       25.148 -30.647   9.819  0.00  0.00    +0.093 C 
ENDROOT
TORSDOF 0
ENDMDL
MODEL 6
REMARK VINA RESULT:      -6.1      6.835      9.879
REMARK  Name = *****
REMARK                            x       y       z     vdW  Elec       q    Type
REMARK                         _______ _______ _______ _____ _____    ______ ____
ROOT
ATOM      1  C   LIG    1       25.608 -26.727   5.056  0.00  0.00    +0.105 C 
ATOM      2  N   LIG    1       24.957 -28.000   5.266  0.00  0.00    -0.304 NA
ATOM      3  C   LIG    1       25.905 -29.096   5.236  0.00  0.00    +0.093 C 
ATOM      4  C   LIG    1       24.954 -30.232   5.612  0.00  0.00    +0.045 C 
ATOM      5  C   LIG    1       24.392 -29.696   6.949  0.00  0.00    +0.045 C 
ATOM      6  C   LIG    1       25.338 -29.892   8.128  0.00  0.00    -0.000 A 
ATOM      7  C   LIG    1       26.075 -31.075   8.305  0.00  0.00    +0.132 A 
ATOM      8  O   LIG    1       25.760 -32.262   7.679  0.00  0.00    -0.456 OA
ATOM      9  C   LIG    1       26.078 -32.398   6.357  0.00  0.00    +0.132 A 
ATOM     10  C   LIG    1       26.782 -33.558   5.983  0.00  0.00    +0.048 A 
ATOM     11  C   LIG    1       27.073 -33.825   4.648  0.00  0.00    +0.023 A 
ATOM     12  C   LIG    1       26.629 -32.963   3.655  0.00  0.00    +0.042 A 
ATOM     13  C   LIG    1       25.903 -31.841   4.022  0.00  0.00    +0.027 A 
ATOM     14 CL   LIG    1       26.983 -33.244   2.000  0.00  0.00    -0.084 Cl
ATOM     15  C   LIG    1       27.061 -31.163   9.298  0.00  0.00    +0.046 A 
ATOM     16  C   LIG    1       27.311 -30.085  10.147  0.00  0.00    +0.004 A 
ATOM     17  C   LIG    1       26.511 -28.955  10.064  0.00  0.00    +0.001 A 
ATOM     18  C   LIG    1       25.517 -28.875   9.087  0.00  0.00    +0.007 A 
ATOM     19  C   LIG    1       25.645 -31.533   5.377  0.00  0.00    +0.001 A 
ATOM     20  C   LIG    1       24.177 -28.189   6.504  0.00  0.00    +0.093 C 
ENDROOT
TORSDOF 0
ENDMDL
