MODEL 1
REMARK VINA RESULT:      -5.4      0.000      0.000
REMARK  Name = *****
REMARK                            x       y       z     vdW  Elec       q    Type
REMARK                         _______ _______ _______ _____ _____    ______ ____
ROOT
ATOM      1  C   LIG    1       23.491 -18.580   4.072  0.00  0.00    -0.000 C 
ENDROOT
BRANCH   1   2
ATOM      2  C   LIG    1       22.187 -17.878   4.486  0.00  0.00    -0.000 C 
BRANCH   2   3
ATOM      3  C   LIG    1       22.369 -16.397   4.841  0.00  0.00    -0.000 C 
BRANCH   3   4
ATOM      4  C   LIG    1       23.618 -15.736   4.228  0.00  0.00    -0.000 C 
BRANCH   4   5
ATOM      5  C   LIG    1       23.680 -14.197   4.333  0.00  0.00    -0.000 C 
BRANCH   5   6
ATOM      6  C   LIG    1       25.135 -13.683   4.381  0.00  0.00    -0.000 C 
BRANCH   6   7
ATOM      7  C   LIG    1       25.824 -13.504   3.008  0.00  0.00    -0.000 C 
BRANCH   7   9
ATOM      8  C   LIG    1       28.297 -13.398   3.728  0.00  0.00    +0.004 C 
ATOM      9  C   LIG    1       27.222 -14.130   2.926  0.00  0.00    -0.003 C 
ENDBRANCH   7   9
ENDBRANCH   6   7
ENDBRANCH   5   6
ENDBRANCH   4   5
ENDBRANCH   3   4
ENDBRANCH   2   3
ENDBRANCH   1   2
BRANCH   1  10
ATOM     10  C   LIG    1       23.431 -20.096   4.242  0.00  0.00    -0.000 C 
BRANCH  10  11
ATOM     11  C   LIG    1       22.551 -20.505   5.430  0.00  0.00    -0.000 C 
BRANCH  11  12
ATOM     12  C   LIG    1       23.357 -20.561   6.723  0.00  0.00    -0.000 C 
BRANCH  12  13
ATOM     13  C   LIG    1       24.628 -21.402   6.746  0.00  0.00    +0.000 C 
BRANCH  13  14
ATOM     14  C   LIG    1       25.924 -20.613   7.026  0.00  0.00    +0.002 C 
BRANCH  14  15
ATOM     15  C   LIG    1       26.778 -20.202   5.811  0.00  0.00    +0.028 C 
BRANCH  15  16
ATOM     16  C   LIG    1       28.282 -19.985   6.066  0.00  0.00    +0.156 C 
BRANCH  16  17
ATOM     17  O   LIG    1       29.016 -21.174   6.329  0.00  0.00    -0.395 OA
ATOM     18  H   LIG    1       29.017 -21.318   7.266  0.00  0.00    +0.209 HD
ENDBRANCH  16  17
ENDBRANCH  15  16
ENDBRANCH  14  15
ENDBRANCH  13  14
ENDBRANCH  12  13
ENDBRANCH  11  12
ENDBRANCH  10  11
ENDBRANCH   1  10
TORSDOF 15
ENDMDL
MODEL 2
REMARK VINA RESULT:      -5.3      1.070      2.181
REMARK  Name = *****
REMARK                            x       y       z     vdW  Elec       q    Type
REMARK                         _______ _______ _______ _____ _____    ______ ____
ROOT
ATOM      1  C   LIG    1       22.376 -16.351   4.968  0.00  0.00    -0.000 C 
ENDROOT
BRANCH   1   2
ATOM      2  C   LIG    1       23.254 -15.493   4.042  0.00  0.00    -0.000 C 
BRANCH   2   3
ATOM      3  C   LIG    1       23.861 -14.266   4.731  0.00  0.00    -0.000 C 
BRANCH   3   4
ATOM      4  C   LIG    1       23.894 -12.991   3.867  0.00  0.00    -0.000 C 
BRANCH   4   5
ATOM      5  C   LIG    1       24.528 -13.146   2.468  0.00  0.00    -0.000 C 
BRANCH   5   6
ATOM      6  C   LIG    1       26.060 -12.958   2.508  0.00  0.00    -0.000 C 
BRANCH   6   7
ATOM      7  C   LIG    1       26.889 -14.262   2.560  0.00  0.00    -0.000 C 
BRANCH   7   9
ATOM      8  C   LIG    1       27.417 -13.432   4.942  0.00  0.00    +0.004 C 
ATOM      9  C   LIG    1       27.438 -14.596   3.953  0.00  0.00    -0.003 C 
ENDBRANCH   7   9
ENDBRANCH   6   7
ENDBRANCH   5   6
ENDBRANCH   4   5
ENDBRANCH   3   4
ENDBRANCH   2   3
ENDBRANCH   1   2
BRANCH   1  10
ATOM     10  C   LIG    1       21.982 -17.689   4.346  0.00  0.00    -0.000 C 
BRANCH  10  11
ATOM     11  C   LIG    1       23.127 -18.709   4.410  0.00  0.00    -0.000 C 
BRANCH  11  12
ATOM     12  C   LIG    1       22.651 -20.039   4.984  0.00  0.00    -0.000 C 
BRANCH  12  13
ATOM     13  C   LIG    1       23.126 -20.435   6.377  0.00  0.00    +0.000 C 
BRANCH  13  14
ATOM     14  C   LIG    1       24.438 -21.245   6.411  0.00  0.00    +0.002 C 
BRANCH  14  15
ATOM     15  C   LIG    1       25.679 -20.555   7.012  0.00  0.00    +0.028 C 
BRANCH  15  16
ATOM     16  C   LIG    1       26.922 -20.462   6.107  0.00  0.00    +0.156 C 
BRANCH  16  17
ATOM     17  O   LIG    1       26.648 -20.110   4.757  0.00  0.00    -0.395 OA
ATOM     18  H   LIG    1       27.462 -19.842   4.351  0.00  0.00    +0.209 HD
ENDBRANCH  16  17
ENDBRANCH  15  16
ENDBRANCH  14  15
ENDBRANCH  13  14
ENDBRANCH  12  13
ENDBRANCH  11  12
ENDBRANCH  10  11
ENDBRANCH   1  10
TORSDOF 15
ENDMDL
MODEL 3
REMARK VINA RESULT:      -5.2      2.284      6.807
REMARK  Name = *****
REMARK                            x       y       z     vdW  Elec       q    Type
REMARK                         _______ _______ _______ _____ _____    ______ ____
ROOT
ATOM      1  C   LIG    1       23.372 -15.473   4.057  0.00  0.00    -0.000 C 
ENDROOT
BRANCH   1   2
ATOM      2  C   LIG    1       22.381 -16.248   4.942  0.00  0.00    -0.000 C 
BRANCH   2   3
ATOM      3  C   LIG    1       22.107 -17.676   4.457  0.00  0.00    -0.000 C 
BRANCH   3   4
ATOM      4  C   LIG    1       23.366 -18.538   4.244  0.00  0.00    -0.000 C 
BRANCH   4   5
ATOM      5  C   LIG    1       23.179 -20.057   4.445  0.00  0.00    -0.000 C 
BRANCH   5   6
ATOM      6  C   LIG    1       22.861 -20.408   5.913  0.00  0.00    -0.000 C 
BRANCH   6   7
ATOM      7  C   LIG    1       24.084 -20.739   6.800  0.00  0.00    -0.000 C 
BRANCH   7   9
ATOM      8  C   LIG    1       26.619 -20.440   6.441  0.00  0.00    +0.004 C 
ATOM      9  C   LIG    1       25.334 -21.145   6.009  0.00  0.00    -0.003 C 
ENDBRANCH   7   9
ENDBRANCH   6   7
ENDBRANCH   5   6
ENDBRANCH   4   5
ENDBRANCH   3   4
ENDBRANCH   2   3
ENDBRANCH   1   2
BRANCH   1  10
ATOM     10  C   LIG    1       23.932 -14.228   4.739  0.00  0.00    -0.000 C 
BRANCH  10  11
ATOM     11  C   LIG    1       23.832 -12.988   3.840  0.00  0.00    -0.000 C 
BRANCH  11  12
ATOM     12  C   LIG    1       24.441 -13.250   2.467  0.00  0.00    -0.000 C 
BRANCH  12  13
ATOM     13  C   LIG    1       25.947 -13.081   2.300  0.00  0.00    +0.000 C 
BRANCH  13  14
ATOM     14  C   LIG    1       26.778 -14.349   2.582  0.00  0.00    +0.002 C 
BRANCH  14  15
ATOM     15  C   LIG    1       27.601 -14.379   3.886  0.00  0.00    +0.028 C 
BRANCH  15  16
ATOM     16  C   LIG    1       28.482 -13.149   4.174  0.00  0.00    +0.156 C 
BRANCH  16  17
ATOM     17  O   LIG    1       29.475 -12.887   3.191  0.00  0.00    -0.395 OA
ATOM     18  H   LIG    1       29.468 -11.958   3.005  0.00  0.00    +0.209 HD
ENDBRANCH  16  17
ENDBRANCH  15  16
ENDBRANCH  14  15
ENDBRANCH  13  14
ENDBRANCH  12  13
ENDBRANCH  11  12
ENDBRANCH  10  11
ENDBRANCH   1  10
TORSDOF 15
ENDMDL
MODEL 4
REMARK VINA RESULT:      -5.1      1.688      2.442
REMARK  Name = *****
REMARK                            x       y       z     vdW  Elec       q    Type
REMARK                         _______ _______ _______ _____ _____    ______ ____
ROOT
ATOM      1  C   LIG    1       24.619 -20.012   4.271  0.00  0.00    -0.000 C 
ENDROOT
BRANCH   1   2
ATOM      2  C   LIG    1       24.450 -18.627   3.623  0.00  0.00    -0.000 C 
BRANCH   2   3
ATOM      3  C   LIG    1       25.749 -17.816   3.555  0.00  0.00    -0.000 C 
BRANCH   3   4
ATOM      4  C   LIG    1       25.557 -16.308   3.306  0.00  0.00    -0.000 C 
BRANCH   4   5
ATOM      5  C   LIG    1       26.844 -15.456   3.323  0.00  0.00    -0.000 C 
BRANCH   5   6
ATOM      6  C   LIG    1       26.545 -13.969   3.609  0.00  0.00    -0.000 C 
BRANCH   6   7
ATOM      7  C   LIG    1       25.293 -13.696   4.475  0.00  0.00    -0.000 C 
BRANCH   7   9
ATOM      8  C   LIG    1       24.450 -12.704   2.250  0.00  0.00    +0.004 C 
ATOM      9  C   LIG    1       24.147 -13.015   3.714  0.00  0.00    -0.003 C 
ENDBRANCH   7   9
ENDBRANCH   6   7
ENDBRANCH   5   6
ENDBRANCH   4   5
ENDBRANCH   3   4
ENDBRANCH   2   3
ENDBRANCH   1   2
BRANCH   1  10
ATOM     10  C   LIG    1       23.326 -20.544   4.883  0.00  0.00    -0.000 C 
BRANCH  10  11
ATOM     11  C   LIG    1       23.554 -21.136   6.281  0.00  0.00    -0.000 C 
BRANCH  11  12
ATOM     12  C   LIG    1       24.811 -20.563   6.926  0.00  0.00    -0.000 C 
BRANCH  12  13
ATOM     13  C   LIG    1       26.083 -21.402   6.900  0.00  0.00    +0.000 C 
BRANCH  13  14
ATOM     14  C   LIG    1       27.392 -20.602   7.061  0.00  0.00    +0.002 C 
BRANCH  14  15
ATOM     15  C   LIG    1       28.072 -20.091   5.776  0.00  0.00    +0.028 C 
BRANCH  15  16
ATOM     16  C   LIG    1       29.004 -18.874   5.925  0.00  0.00    +0.156 C 
BRANCH  16  17
ATOM     17  O   LIG    1       29.047 -18.018   4.790  0.00  0.00    -0.395 OA
ATOM     18  H   LIG    1       29.609 -17.283   4.997  0.00  0.00    +0.209 HD
ENDBRANCH  16  17
ENDBRANCH  15  16
ENDBRANCH  14  15
ENDBRANCH  13  14
ENDBRANCH  12  13
ENDBRANCH  11  12
ENDBRANCH  10  11
ENDBRANCH   1  10
TORSDOF 15
ENDMDL
MODEL 5
REMARK VINA RESULT:      -5.1      2.477      4.029
REMARK  Name = *****
REMARK                            x       y       z     vdW  Elec       q    Type
REMARK                         _______ _______ _______ _____ _____    ______ ____
ROOT
ATOM      1  C   LIG    1       25.342 -18.541   3.573  0.00  0.00    -0.000 C 
ENDROOT
BRANCH   1   2
ATOM      2  C   LIG    1       26.579 -17.629   3.498  0.00  0.00    -0.000 C 
BRANCH   2   3
ATOM      3  C   LIG    1       26.243 -16.155   3.243  0.00  0.00    -0.000 C 
BRANCH   3   4
ATOM      4  C   LIG    1       27.294 -15.155   3.763  0.00  0.00    -0.000 C 
BRANCH   4   5
ATOM      5  C   LIG    1       27.082 -13.684   3.345  0.00  0.00    -0.000 C 
BRANCH   5   6
ATOM      6  C   LIG    1       25.938 -13.537   2.319  0.00  0.00    -0.000 C 
BRANCH   6   7
ATOM      7  C   LIG    1       24.731 -12.689   2.785  0.00  0.00    -0.000 C 
BRANCH   7   9
ATOM      8  C   LIG    1       23.619 -14.423   4.335  0.00  0.00    +0.004 C 
ATOM      9  C   LIG    1       24.236 -13.033   4.196  0.00  0.00    -0.003 C 
ENDBRANCH   7   9
ENDBRANCH   6   7
ENDBRANCH   5   6
ENDBRANCH   4   5
ENDBRANCH   3   4
ENDBRANCH   2   3
ENDBRANCH   1   2
BRANCH   1  10
ATOM     10  C   LIG    1       25.683 -19.976   3.965  0.00  0.00    -0.000 C 
BRANCH  10  11
ATOM     11  C   LIG    1       26.542 -20.034   5.236  0.00  0.00    -0.000 C 
BRANCH  11  12
ATOM     12  C   LIG    1       25.747 -20.578   6.417  0.00  0.00    -0.000 C 
BRANCH  12  13
ATOM     13  C   LIG    1       24.556 -21.486   6.130  0.00  0.00    +0.000 C 
BRANCH  13  14
ATOM     14  C   LIG    1       23.176 -20.850   6.394  0.00  0.00    +0.002 C 
BRANCH  14  15
ATOM     15  C   LIG    1       22.368 -20.378   5.168  0.00  0.00    +0.028 C 
BRANCH  15  16
ATOM     16  C   LIG    1       22.260 -18.856   4.957  0.00  0.00    +0.156 C 
BRANCH  16  17
ATOM     17  O   LIG    1       21.383 -18.464   3.910  0.00  0.00    -0.395 OA
ATOM     18  H   LIG    1       21.415 -19.129   3.234  0.00  0.00    +0.209 HD
ENDBRANCH  16  17
ENDBRANCH  15  16
ENDBRANCH  14  15
ENDBRANCH  13  14
ENDBRANCH  12  13
ENDBRANCH  11  12
ENDBRANCH  10  11
ENDBRANCH   1  10
TORSDOF 15
ENDMDL
MODEL 6
REMARK VINA RESULT:      -5.0      2.634      7.035
REMARK  Name = *****
REMARK                            x       y       z     vdW  Elec       q    Type
REMARK                         _______ _______ _______ _____ _____    ______ ____
ROOT
ATOM      1  C   LIG    1       25.744 -16.924   3.259  0.00  0.00    -0.000 C 
ENDROOT
BRANCH   1   2
ATOM      2  C   LIG    1       25.474 -18.438   3.293  0.00  0.00    -0.000 C 
BRANCH   2   3
ATOM      3  C   LIG    1       24.069 -18.803   3.786  0.00  0.00    -0.000 C 
BRANCH   3   4
ATOM      4  C   LIG    1       24.000 -20.072   4.657  0.00  0.00    -0.000 C 
BRANCH   4   5
ATOM      5  C   LIG    1       25.355 -20.740   4.974  0.00  0.00    -0.000 C 
BRANCH   5   6
ATOM      6  C   LIG    1       25.674 -20.704   6.484  0.00  0.00    -0.000 C 
BRANCH   6   7
ATOM      7  C   LIG    1       27.121 -20.299   6.850  0.00  0.00    -0.000 C 
BRANCH   7   9
ATOM      8  C   LIG    1       29.139 -18.966   5.959  0.00  0.00    +0.004 C 
ATOM      9  C   LIG    1       27.984 -19.914   5.642  0.00  0.00    -0.003 C 
ENDBRANCH   7   9
ENDBRANCH   6   7
ENDBRANCH   5   6
ENDBRANCH   4   5
ENDBRANCH   3   4
ENDBRANCH   2   3
ENDBRANCH   1   2
BRANCH   1  10
ATOM     10  C   LIG    1       27.167 -16.563   3.676  0.00  0.00    -0.000 C 
BRANCH  10  11
ATOM     11  C   LIG    1       27.347 -15.049   3.852  0.00  0.00    -0.000 C 
BRANCH  11  12
ATOM     12  C   LIG    1       27.045 -14.302   2.558  0.00  0.00    -0.000 C 
BRANCH  12  13
ATOM     13  C   LIG    1       26.484 -12.887   2.654  0.00  0.00    +0.000 C 
BRANCH  13  14
ATOM     14  C   LIG    1       25.057 -12.715   2.096  0.00  0.00    +0.002 C 
BRANCH  14  15
ATOM     15  C   LIG    1       23.922 -12.485   3.113  0.00  0.00    +0.028 C 
BRANCH  15  16
ATOM     16  C   LIG    1       24.070 -13.180   4.480  0.00  0.00    +0.156 C 
BRANCH  16  17
ATOM     17  O   LIG    1       23.601 -14.522   4.516  0.00  0.00    -0.395 OA
ATOM     18  H   LIG    1       22.736 -14.521   4.907  0.00  0.00    +0.209 HD
ENDBRANCH  16  17
ENDBRANCH  15  16
ENDBRANCH  14  15
ENDBRANCH  13  14
ENDBRANCH  12  13
ENDBRANCH  11  12
ENDBRANCH  10  11
ENDBRANCH   1  10
TORSDOF 15
ENDMDL
MODEL 7
REMARK VINA RESULT:      -4.8      1.811      6.302
REMARK  Name = *****
REMARK                            x       y       z     vdW  Elec       q    Type
REMARK                         _______ _______ _______ _____ _____    ______ ____
ROOT
ATOM      1  C   LIG    1       23.296 -14.864   4.675  0.00  0.00    -0.000 C 
ENDROOT
BRANCH   1   2
ATOM      2  C   LIG    1       23.236 -16.295   4.114  0.00  0.00    -0.000 C 
BRANCH   2   3
ATOM      3  C   LIG    1       22.166 -17.172   4.774  0.00  0.00    -0.000 C 
BRANCH   3   4
ATOM      4  C   LIG    1       22.228 -18.663   4.392  0.00  0.00    -0.000 C 
BRANCH   4   5
ATOM      5  C   LIG    1       22.668 -19.624   5.516  0.00  0.00    -0.000 C 
BRANCH   5   6
ATOM      6  C   LIG    1       22.943 -21.046   4.982  0.00  0.00    -0.000 C 
BRANCH   6   7
ATOM      7  C   LIG    1       24.383 -21.300   4.476  0.00  0.00    -0.000 C 
BRANCH   7   9
ATOM      8  C   LIG    1       26.057 -20.872   6.388  0.00  0.00    +0.004 C 
ATOM      9  C   LIG    1       25.433 -20.365   5.089  0.00  0.00    -0.003 C 
ENDBRANCH   7   9
ENDBRANCH   6   7
ENDBRANCH   5   6
ENDBRANCH   4   5
ENDBRANCH   3   4
ENDBRANCH   2   3
ENDBRANCH   1   2
BRANCH   1  10
ATOM     10  C   LIG    1       23.727 -13.834   3.636  0.00  0.00    -0.000 C 
BRANCH  10  11
ATOM     11  C   LIG    1       24.726 -12.821   4.212  0.00  0.00    -0.000 C 
BRANCH  11  12
ATOM     12  C   LIG    1       25.646 -13.474   5.238  0.00  0.00    -0.000 C 
BRANCH  12  13
ATOM     13  C   LIG    1       27.149 -13.444   4.982  0.00  0.00    +0.000 C 
BRANCH  13  14
ATOM     14  C   LIG    1       27.591 -14.050   3.634  0.00  0.00    +0.002 C 
BRANCH  14  15
ATOM     15  C   LIG    1       26.742 -15.205   3.066  0.00  0.00    +0.028 C 
BRANCH  15  16
ATOM     16  C   LIG    1       27.011 -16.608   3.642  0.00  0.00    +0.156 C 
BRANCH  16  17
ATOM     17  O   LIG    1       26.236 -17.647   3.058  0.00  0.00    -0.395 OA
ATOM     18  H   LIG    1       25.563 -17.895   3.677  0.00  0.00    +0.209 HD
ENDBRANCH  16  17
ENDBRANCH  15  16
ENDBRANCH  14  15
ENDBRANCH  13  14
ENDBRANCH  12  13
ENDBRANCH  11  12
ENDBRANCH  10  11
ENDBRANCH   1  10
TORSDOF 15
ENDMDL
MODEL 8
REMARK VINA RESULT:      -4.8      2.713      6.490
REMARK  Name = *****
REMARK                            x       y       z     vdW  Elec       q    Type
REMARK                         _______ _______ _______ _____ _____    ______ ____
ROOT
ATOM      1  C   LIG    1       23.490 -14.037   5.160  0.00  0.00    -0.000 C 
ENDROOT
BRANCH   1   2
ATOM      2  C   LIG    1       23.345 -15.338   4.353  0.00  0.00    -0.000 C 
BRANCH   2   3
ATOM      3  C   LIG    1       22.379 -16.350   4.982  0.00  0.00    -0.000 C 
BRANCH   3   4
ATOM      4  C   LIG    1       22.311 -17.710   4.264  0.00  0.00    -0.000 C 
BRANCH   4   5
ATOM      5  C   LIG    1       22.287 -18.952   5.181  0.00  0.00    -0.000 C 
BRANCH   5   6
ATOM      6  C   LIG    1       23.188 -20.083   4.642  0.00  0.00    -0.000 C 
BRANCH   6   7
ATOM      7  C   LIG    1       24.058 -19.715   3.417  0.00  0.00    -0.000 C 
BRANCH   7   9
ATOM      8  C   LIG    1       25.862 -17.876   3.325  0.00  0.00    +0.004 C 
ATOM      9  C   LIG    1       25.488 -19.287   3.775  0.00  0.00    -0.003 C 
ENDBRANCH   7   9
ENDBRANCH   6   7
ENDBRANCH   5   6
ENDBRANCH   4   5
ENDBRANCH   3   4
ENDBRANCH   2   3
ENDBRANCH   1   2
BRANCH   1  10
ATOM     10  C   LIG    1       24.319 -12.978   4.438  0.00  0.00    -0.000 C 
BRANCH  10  11
ATOM     11  C   LIG    1       23.733 -12.630   3.063  0.00  0.00    -0.000 C 
BRANCH  11  12
ATOM     12  C   LIG    1       24.725 -12.933   1.946  0.00  0.00    -0.000 C 
BRANCH  12  13
ATOM     13  C   LIG    1       26.209 -12.980   2.291  0.00  0.00    +0.000 C 
BRANCH  13  14
ATOM     14  C   LIG    1       26.757 -14.385   2.612  0.00  0.00    +0.002 C 
BRANCH  14  15
ATOM     15  C   LIG    1       27.636 -14.531   3.870  0.00  0.00    +0.028 C 
BRANCH  15  16
ATOM     16  C   LIG    1       28.185 -13.229   4.483  0.00  0.00    +0.156 C 
BRANCH  16  17
ATOM     17  O   LIG    1       27.566 -12.841   5.703  0.00  0.00    -0.395 OA
ATOM     18  H   LIG    1       27.720 -11.914   5.830  0.00  0.00    +0.209 HD
ENDBRANCH  16  17
ENDBRANCH  15  16
ENDBRANCH  14  15
ENDBRANCH  13  14
ENDBRANCH  12  13
ENDBRANCH  11  12
ENDBRANCH  10  11
ENDBRANCH   1  10
TORSDOF 15
ENDMDL
MODEL 9
REMARK VINA RESULT:      -4.7      1.464      3.269
REMARK  Name = *****
REMARK                            x       y       z     vdW  Elec       q    Type
REMARK                         _______ _______ _______ _____ _____    ______ ____
ROOT
ATOM      1  C   LIG    1       23.477 -15.123   4.835  0.00  0.00    -0.000 C 
ENDROOT
BRANCH   1   2
ATOM      2  C   LIG    1       23.515 -14.131   3.662  0.00  0.00    -0.000 C 
BRANCH   2   3
ATOM      3  C   LIG    1       24.467 -12.950   3.883  0.00  0.00    -0.000 C 
BRANCH   3   4
ATOM      4  C   LIG    1       25.296 -13.023   5.180  0.00  0.00    -0.000 C 
BRANCH   4   5
ATOM      5  C   LIG    1       26.785 -13.390   5.003  0.00  0.00    -0.000 C 
BRANCH   5   6
ATOM      6  C   LIG    1       27.201 -13.402   3.517  0.00  0.00    -0.000 C 
BRANCH   6   7
ATOM      7  C   LIG    1       26.963 -14.735   2.769  0.00  0.00    -0.000 C 
BRANCH   7   9
ATOM      8  C   LIG    1       26.148 -17.132   3.254  0.00  0.00    +0.004 C 
ATOM      9  C   LIG    1       27.060 -15.977   3.664  0.00  0.00    -0.003 C 
ENDBRANCH   7   9
ENDBRANCH   6   7
ENDBRANCH   5   6
ENDBRANCH   4   5
ENDBRANCH   3   4
ENDBRANCH   2   3
ENDBRANCH   1   2
BRANCH   1  10
ATOM     10  C   LIG    1       22.346 -16.142   4.718  0.00  0.00    -0.000 C 
BRANCH  10  11
ATOM     11  C   LIG    1       22.796 -17.417   3.993  0.00  0.00    -0.000 C 
BRANCH  11  12
ATOM     12  C   LIG    1       22.008 -18.632   4.469  0.00  0.00    -0.000 C 
BRANCH  12  13
ATOM     13  C   LIG    1       22.667 -19.573   5.472  0.00  0.00    +0.000 C 
BRANCH  13  14
ATOM     14  C   LIG    1       23.146 -20.917   4.884  0.00  0.00    +0.002 C 
BRANCH  14  15
ATOM     15  C   LIG    1       24.616 -21.006   4.429  0.00  0.00    +0.028 C 
BRANCH  15  16
ATOM     16  C   LIG    1       25.682 -20.553   5.445  0.00  0.00    +0.156 C 
BRANCH  16  17
ATOM     17  O   LIG    1       26.906 -20.121   4.866  0.00  0.00    -0.395 OA
ATOM     18  H   LIG    1       27.556 -20.797   5.011  0.00  0.00    +0.209 HD
ENDBRANCH  16  17
ENDBRANCH  15  16
ENDBRANCH  14  15
ENDBRANCH  13  14
ENDBRANCH  12  13
ENDBRANCH  11  12
ENDBRANCH  10  11
ENDBRANCH   1  10
TORSDOF 15
ENDMDL
