MODEL 1
REMARK VINA RESULT:      -8.0      0.000      0.000
REMARK  Name = *****
REMARK                            x       y       z     vdW  Elec       q    Type
REMARK                         _______ _______ _______ _____ _____    ______ ____
ROOT
ATOM      1  C   LIG    1       25.422 -21.718   7.305  0.00  0.00    +0.095 C 
ATOM      2  C   LIG    1       25.089 -23.021   6.469  0.00  0.00    +0.039 C 
ATOM      3  C   LIG    1       23.576 -23.333   6.528  0.00  0.00    +0.008 C 
ATOM      4  C   LIG    1       22.689 -22.143   6.189  0.00  0.00    +0.000 C 
ATOM      5  C   LIG    1       22.976 -20.961   7.091  0.00  0.00    +0.003 C 
ATOM      6  C   LIG    1       24.442 -20.561   6.990  0.00  0.00    +0.040 C 
ENDROOT
BRANCH   1   9
ATOM      7  C   LIG    1       29.181 -20.988   7.789  0.00  0.00    +0.120 A 
ATOM      8  C   LIG    1       27.887 -21.484   7.976  0.00  0.00    +0.052 A 
ATOM      9  C   LIG    1       26.837 -21.152   7.104  0.00  0.00    -0.012 A 
ATOM     10  C   LIG    1       27.149 -20.347   5.991  0.00  0.00    +0.007 A 
ATOM     11  C   LIG    1       28.442 -19.865   5.783  0.00  0.00    +0.004 A 
ATOM     12  C   LIG    1       29.457 -20.178   6.686  0.00  0.00    +0.045 A 
BRANCH   7  14
ATOM     13  C   LIG    1       31.209 -20.194   8.727  0.00  0.00    +0.277 C 
ATOM     14  O   LIG    1       30.247 -21.236   8.612  0.00  0.00    -0.495 OA
ENDBRANCH   7  14
ENDBRANCH   1   9
BRANCH   1  15
ATOM     15  O   LIG    1       25.288 -22.042   8.699  0.00  0.00    -0.384 OA
ATOM     16  H   LIG    1       25.955 -22.704   8.931  0.00  0.00    +0.211 HD
ENDBRANCH   1  15
BRANCH   2  17
ATOM     17  C   LIG    1       25.952 -24.226   6.971  0.00  0.00    +0.090 C 
BRANCH  17  18
ATOM     18  N   LIG    1       26.172 -25.390   6.075  0.00  0.00    -0.308 NA
ATOM     19  C   LIG    1       25.308 -25.431   4.898  0.00  0.00    +0.104 C 
ATOM     20  C   LIG    1       25.966 -26.627   6.846  0.00  0.00    +0.104 C 
ENDBRANCH  17  18
ENDBRANCH   2  17
TORSDOF 5
ENDMDL
MODEL 2
REMARK VINA RESULT:      -8.0      2.734      4.989
REMARK  Name = *****
REMARK                            x       y       z     vdW  Elec       q    Type
REMARK                         _______ _______ _______ _____ _____    ______ ____
ROOT
ATOM      1  C   LIG    1       24.273 -21.901   6.490  0.00  0.00    +0.095 C 
ATOM      2  C   LIG    1       25.786 -22.367   6.501  0.00  0.00    +0.039 C 
ATOM      3  C   LIG    1       25.924 -23.749   7.182  0.00  0.00    +0.008 C 
ATOM      4  C   LIG    1       24.963 -24.799   6.642  0.00  0.00    +0.000 C 
ATOM      5  C   LIG    1       23.522 -24.345   6.756  0.00  0.00    +0.003 C 
ATOM      6  C   LIG    1       23.322 -23.028   6.015  0.00  0.00    +0.040 C 
ENDROOT
BRANCH   1   9
ATOM      7  C   LIG    1       24.636 -19.090   3.870  0.00  0.00    +0.120 A 
ATOM      8  C   LIG    1       24.912 -20.189   4.690  0.00  0.00    +0.052 A 
ATOM      9  C   LIG    1       23.969 -20.680   5.606  0.00  0.00    -0.012 A 
ATOM     10  C   LIG    1       22.702 -20.064   5.626  0.00  0.00    +0.007 A 
ATOM     11  C   LIG    1       22.409 -18.981   4.795  0.00  0.00    +0.004 A 
ATOM     12  C   LIG    1       23.378 -18.489   3.923  0.00  0.00    +0.045 A 
BRANCH   7  14
ATOM     13  C   LIG    1       25.974 -17.221   3.289  0.00  0.00    +0.277 C 
ATOM     14  O   LIG    1       25.513 -18.530   2.979  0.00  0.00    -0.495 OA
ENDBRANCH   7  14
ENDBRANCH   1   9
BRANCH   1  15
ATOM     15  O   LIG    1       23.907 -21.554   7.835  0.00  0.00    -0.384 OA
ATOM     16  H   LIG    1       22.976 -21.291   7.847  0.00  0.00    +0.211 HD
ENDBRANCH   1  15
BRANCH   2  17
ATOM     17  C   LIG    1       26.685 -21.287   7.190  0.00  0.00    +0.090 C 
BRANCH  17  18
ATOM     18  N   LIG    1       28.107 -21.153   6.786  0.00  0.00    -0.308 NA
ATOM     19  C   LIG    1       29.065 -21.195   7.888  0.00  0.00    +0.104 C 
ATOM     20  C   LIG    1       28.278 -19.878   6.069  0.00  0.00    +0.104 C 
ENDBRANCH  17  18
ENDBRANCH   2  17
TORSDOF 5
ENDMDL
MODEL 3
REMARK VINA RESULT:      -7.9      2.189      3.529
REMARK  Name = *****
REMARK                            x       y       z     vdW  Elec       q    Type
REMARK                         _______ _______ _______ _____ _____    ______ ____
ROOT
ATOM      1  C   LIG    1       25.280 -22.073   6.055  0.00  0.00    +0.095 C 
ATOM      2  C   LIG    1       23.962 -21.429   6.649  0.00  0.00    +0.039 C 
ATOM      3  C   LIG    1       22.758 -22.378   6.455  0.00  0.00    +0.008 C 
ATOM      4  C   LIG    1       23.013 -23.802   6.931  0.00  0.00    +0.000 C 
ATOM      5  C   LIG    1       24.223 -24.407   6.249  0.00  0.00    +0.003 C 
ATOM      6  C   LIG    1       25.456 -23.547   6.496  0.00  0.00    +0.040 C 
ENDROOT
BRANCH   1   9
ATOM      7  C   LIG    1       28.602 -21.176   7.804  0.00  0.00    +0.120 A 
ATOM      8  C   LIG    1       27.403 -21.813   7.473  0.00  0.00    +0.052 A 
ATOM      9  C   LIG    1       26.588 -21.354   6.425  0.00  0.00    -0.012 A 
ATOM     10  C   LIG    1       27.056 -20.259   5.672  0.00  0.00    +0.007 A 
ATOM     11  C   LIG    1       28.263 -19.630   5.981  0.00  0.00    +0.004 A 
ATOM     12  C   LIG    1       29.033 -20.082   7.051  0.00  0.00    +0.045 A 
BRANCH   7  14
ATOM     13  C   LIG    1       30.801 -21.181   8.691  0.00  0.00    +0.277 C 
ATOM     14  O   LIG    1       29.432 -21.540   8.831  0.00  0.00    -0.495 OA
ENDBRANCH   7  14
ENDBRANCH   1   9
BRANCH   1  15
ATOM     15  O   LIG    1       25.175 -22.051   4.622  0.00  0.00    -0.384 OA
ATOM     16  H   LIG    1       24.825 -22.902   4.322  0.00  0.00    +0.211 HD
ENDBRANCH   1  15
BRANCH   2  17
ATOM     17  C   LIG    1       23.705 -20.024   6.010  0.00  0.00    +0.090 C 
BRANCH  17  18
ATOM     18  N   LIG    1       23.253 -19.935   4.598  0.00  0.00    -0.308 NA
ATOM     19  C   LIG    1       24.156 -19.207   3.710  0.00  0.00    +0.104 C 
ATOM     20  C   LIG    1       21.936 -19.277   4.562  0.00  0.00    +0.104 C 
ENDBRANCH  17  18
ENDBRANCH   2  17
TORSDOF 5
ENDMDL
MODEL 4
REMARK VINA RESULT:      -7.7      2.209      5.306
REMARK  Name = *****
REMARK                            x       y       z     vdW  Elec       q    Type
REMARK                         _______ _______ _______ _____ _____    ______ ____
ROOT
ATOM      1  C   LIG    1       24.993 -22.923   6.226  0.00  0.00    +0.095 C 
ATOM      2  C   LIG    1       25.779 -22.232   7.414  0.00  0.00    +0.039 C 
ATOM      3  C   LIG    1       25.197 -20.831   7.708  0.00  0.00    +0.008 C 
ATOM      4  C   LIG    1       23.684 -20.817   7.884  0.00  0.00    +0.000 C 
ATOM      5  C   LIG    1       22.980 -21.390   6.672  0.00  0.00    +0.003 C 
ATOM      6  C   LIG    1       23.459 -22.811   6.403  0.00  0.00    +0.040 C 
ENDROOT
BRANCH   1   9
ATOM      7  C   LIG    1       25.887 -26.613   6.920  0.00  0.00    +0.120 A 
ATOM      8  C   LIG    1       25.629 -25.250   7.098  0.00  0.00    +0.052 A 
ATOM      9  C   LIG    1       25.295 -24.416   6.018  0.00  0.00    -0.012 A 
ATOM     10  C   LIG    1       25.166 -25.017   4.751  0.00  0.00    +0.007 A 
ATOM     11  C   LIG    1       25.400 -26.381   4.567  0.00  0.00    +0.004 A 
ATOM     12  C   LIG    1       25.768 -27.177   5.649  0.00  0.00    +0.045 A 
BRANCH   7  14
ATOM     13  C   LIG    1       25.536 -28.711   7.969  0.00  0.00    +0.277 C 
ATOM     14  O   LIG    1       26.252 -27.483   7.913  0.00  0.00    -0.495 OA
ENDBRANCH   7  14
ENDBRANCH   1   9
BRANCH   1  15
ATOM     15  O   LIG    1       25.347 -22.245   5.009  0.00  0.00    -0.384 OA
ATOM     16  H   LIG    1       24.589 -21.724   4.710  0.00  0.00    +0.211 HD
ENDBRANCH   1  15
BRANCH   2  17
ATOM     17  C   LIG    1       27.310 -22.171   7.093  0.00  0.00    +0.090 C 
BRANCH  17  18
ATOM     18  N   LIG    1       28.039 -20.887   7.253  0.00  0.00    -0.308 NA
ATOM     19  C   LIG    1       28.288 -20.164   6.008  0.00  0.00    +0.104 C 
ATOM     20  C   LIG    1       29.334 -21.155   7.901  0.00  0.00    +0.104 C 
ENDBRANCH  17  18
ENDBRANCH   2  17
TORSDOF 5
ENDMDL
MODEL 5
REMARK VINA RESULT:      -7.6      2.469      5.618
REMARK  Name = *****
REMARK                            x       y       z     vdW  Elec       q    Type
REMARK                         _______ _______ _______ _____ _____    ______ ____
ROOT
ATOM      1  C   LIG    1       25.750 -21.610   6.593  0.00  0.00    +0.095 C 
ATOM      2  C   LIG    1       26.135 -20.972   5.196  0.00  0.00    +0.039 C 
ATOM      3  C   LIG    1       26.966 -19.684   5.398  0.00  0.00    +0.008 C 
ATOM      4  C   LIG    1       28.149 -19.855   6.341  0.00  0.00    +0.000 C 
ATOM      5  C   LIG    1       27.707 -20.365   7.698  0.00  0.00    +0.003 C 
ATOM      6  C   LIG    1       26.964 -21.687   7.551  0.00  0.00    +0.040 C 
ENDROOT
BRANCH   1   9
ATOM      7  C   LIG    1       25.465 -25.455   6.410  0.00  0.00    +0.120 A 
ATOM      8  C   LIG    1       25.991 -24.160   6.451  0.00  0.00    +0.052 A 
ATOM      9  C   LIG    1       25.162 -23.029   6.528  0.00  0.00    -0.012 A 
ATOM     10  C   LIG    1       23.774 -23.249   6.627  0.00  0.00    +0.007 A 
ATOM     11  C   LIG    1       23.240 -24.539   6.610  0.00  0.00    +0.004 A 
ATOM     12  C   LIG    1       24.085 -25.641   6.493  0.00  0.00    +0.045 A 
BRANCH   7  14
ATOM     13  C   LIG    1       26.284 -27.177   5.001  0.00  0.00    +0.277 C 
ATOM     14  O   LIG    1       26.203 -26.603   6.300  0.00  0.00    -0.495 OA
ENDBRANCH   7  14
ENDBRANCH   1   9
BRANCH   1  15
ATOM     15  O   LIG    1       24.759 -20.768   7.204  0.00  0.00    -0.384 OA
ATOM     16  H   LIG    1       24.794 -19.893   6.791  0.00  0.00    +0.211 HD
ENDBRANCH   1  15
BRANCH   2  17
ATOM     17  C   LIG    1       24.850 -20.709   4.343  0.00  0.00    +0.090 C 
BRANCH  17  18
ATOM     18  N   LIG    1       23.889 -19.662   4.773  0.00  0.00    -0.308 NA
ATOM     19  C   LIG    1       22.524 -20.135   4.989  0.00  0.00    +0.104 C 
ATOM     20  C   LIG    1       23.856 -18.601   3.753  0.00  0.00    +0.104 C 
ENDBRANCH  17  18
ENDBRANCH   2  17
TORSDOF 5
ENDMDL
MODEL 6
REMARK VINA RESULT:      -7.5      2.401      3.878
REMARK  Name = *****
REMARK                            x       y       z     vdW  Elec       q    Type
REMARK                         _______ _______ _______ _____ _____    ______ ____
ROOT
ATOM      1  C   LIG    1       25.056 -22.203   6.155  0.00  0.00    +0.095 C 
ATOM      2  C   LIG    1       23.736 -21.489   6.657  0.00  0.00    +0.039 C 
ATOM      3  C   LIG    1       22.500 -22.379   6.387  0.00  0.00    +0.008 C 
ATOM      4  C   LIG    1       22.651 -23.809   6.886  0.00  0.00    +0.000 C 
ATOM      5  C   LIG    1       23.871 -24.480   6.289  0.00  0.00    +0.003 C 
ATOM      6  C   LIG    1       25.127 -23.681   6.614  0.00  0.00    +0.040 C 
ENDROOT
BRANCH   1   9
ATOM      7  C   LIG    1       28.159 -19.910   6.273  0.00  0.00    +0.120 A 
ATOM      8  C   LIG    1       26.973 -20.524   5.858  0.00  0.00    +0.052 A 
ATOM      9  C   LIG    1       26.371 -21.548   6.608  0.00  0.00    -0.012 A 
ATOM     10  C   LIG    1       26.973 -21.892   7.834  0.00  0.00    +0.007 A 
ATOM     11  C   LIG    1       28.144 -21.269   8.268  0.00  0.00    +0.004 A 
ATOM     12  C   LIG    1       28.742 -20.284   7.484  0.00  0.00    +0.045 A 
BRANCH   7  14
ATOM     13  C   LIG    1       30.106 -18.570   6.083  0.00  0.00    +0.277 C 
ATOM     14  O   LIG    1       28.825 -18.933   5.582  0.00  0.00    -0.495 OA
ENDBRANCH   7  14
ENDBRANCH   1   9
BRANCH   1  15
ATOM     15  O   LIG    1       25.048 -22.188   4.719  0.00  0.00    -0.384 OA
ATOM     16  H   LIG    1       25.611 -21.464   4.411  0.00  0.00    +0.211 HD
ENDBRANCH   1  15
BRANCH   2  17
ATOM     17  C   LIG    1       23.593 -20.078   5.995  0.00  0.00    +0.090 C 
BRANCH  17  18
ATOM     18  N   LIG    1       23.212 -19.978   4.563  0.00  0.00    -0.308 NA
ATOM     19  C   LIG    1       24.224 -19.375   3.700  0.00  0.00    +0.104 C 
ATOM     20  C   LIG    1       21.977 -19.183   4.456  0.00  0.00    +0.104 C 
ENDBRANCH  17  18
ENDBRANCH   2  17
TORSDOF 5
ENDMDL
MODEL 7
REMARK VINA RESULT:      -7.3      2.821      5.332
REMARK  Name = *****
REMARK                            x       y       z     vdW  Elec       q    Type
REMARK                         _______ _______ _______ _____ _____    ______ ____
ROOT
ATOM      1  C   LIG    1       24.350 -22.016   6.362  0.00  0.00    +0.095 C 
ATOM      2  C   LIG    1       25.842 -22.516   6.532  0.00  0.00    +0.039 C 
ATOM      3  C   LIG    1       25.883 -23.852   7.309  0.00  0.00    +0.008 C 
ATOM      4  C   LIG    1       24.940 -24.913   6.759  0.00  0.00    +0.000 C 
ATOM      5  C   LIG    1       23.509 -24.418   6.720  0.00  0.00    +0.003 C 
ATOM      6  C   LIG    1       23.410 -23.149   5.882  0.00  0.00    +0.040 C 
ENDROOT
BRANCH   1   9
ATOM      7  C   LIG    1       22.882 -18.908   4.606  0.00  0.00    +0.120 A 
ATOM      8  C   LIG    1       23.056 -19.982   5.485  0.00  0.00    +0.052 A 
ATOM      9  C   LIG    1       24.156 -20.849   5.380  0.00  0.00    -0.012 A 
ATOM     10  C   LIG    1       25.117 -20.560   4.392  0.00  0.00    +0.007 A 
ATOM     11  C   LIG    1       24.964 -19.477   3.525  0.00  0.00    +0.004 A 
ATOM     12  C   LIG    1       23.843 -18.656   3.627  0.00  0.00    +0.045 A 
BRANCH   7  14
ATOM     13  C   LIG    1       22.141 -16.657   4.694  0.00  0.00    +0.277 C 
ATOM     14  O   LIG    1       21.821 -18.041   4.621  0.00  0.00    -0.495 OA
ENDBRANCH   7  14
ENDBRANCH   1   9
BRANCH   1  15
ATOM     15  O   LIG    1       23.884 -21.571   7.646  0.00  0.00    -0.384 OA
ATOM     16  H   LIG    1       24.474 -21.918   8.330  0.00  0.00    +0.211 HD
ENDBRANCH   1  15
BRANCH   2  17
ATOM     17  C   LIG    1       26.712 -21.413   7.224  0.00  0.00    +0.090 C 
BRANCH  17  18
ATOM     18  N   LIG    1       28.123 -21.224   6.803  0.00  0.00    -0.308 NA
ATOM     19  C   LIG    1       29.094 -21.225   7.894  0.00  0.00    +0.104 C 
ATOM     20  C   LIG    1       28.235 -19.945   6.082  0.00  0.00    +0.104 C 
ENDBRANCH  17  18
ENDBRANCH   2  17
TORSDOF 5
ENDMDL
MODEL 8
REMARK VINA RESULT:      -7.1      1.212      1.814
REMARK  Name = *****
REMARK                            x       y       z     vdW  Elec       q    Type
REMARK                         _______ _______ _______ _____ _____    ______ ____
ROOT
ATOM      1  C   LIG    1       25.351 -21.916   7.422  0.00  0.00    +0.095 C 
ATOM      2  C   LIG    1       24.976 -23.223   6.611  0.00  0.00    +0.039 C 
ATOM      3  C   LIG    1       23.459 -23.509   6.711  0.00  0.00    +0.008 C 
ATOM      4  C   LIG    1       22.584 -22.308   6.378  0.00  0.00    +0.000 C 
ATOM      5  C   LIG    1       22.913 -21.120   7.257  0.00  0.00    +0.003 C 
ATOM      6  C   LIG    1       24.383 -20.746   7.115  0.00  0.00    +0.040 C 
ENDROOT
BRANCH   1   9
ATOM      7  C   LIG    1       28.303 -19.873   6.005  0.00  0.00    +0.120 A 
ATOM      8  C   LIG    1       27.018 -20.382   6.219  0.00  0.00    +0.052 A 
ATOM      9  C   LIG    1       26.770 -21.377   7.179  0.00  0.00    -0.012 A 
ATOM     10  C   LIG    1       27.856 -21.802   7.968  0.00  0.00    +0.007 A 
ATOM     11  C   LIG    1       29.139 -21.284   7.777  0.00  0.00    +0.004 A 
ATOM     12  C   LIG    1       29.364 -20.326   6.791  0.00  0.00    +0.045 A 
BRANCH   7  14
ATOM     13  C   LIG    1       29.659 -18.016   5.428  0.00  0.00    +0.277 C 
ATOM     14  O   LIG    1       28.632 -18.931   5.067  0.00  0.00    -0.495 OA
ENDBRANCH   7  14
ENDBRANCH   1   9
BRANCH   1  15
ATOM     15  O   LIG    1       25.246 -22.220   8.822  0.00  0.00    -0.384 OA
ATOM     16  H   LIG    1       26.042 -22.696   9.099  0.00  0.00    +0.211 HD
ENDBRANCH   1  15
BRANCH   2  17
ATOM     17  C   LIG    1       25.830 -24.437   7.108  0.00  0.00    +0.090 C 
BRANCH  17  18
ATOM     18  N   LIG    1       26.144 -25.543   6.167  0.00  0.00    -0.308 NA
ATOM     19  C   LIG    1       25.323 -25.573   4.959  0.00  0.00    +0.104 C 
ATOM     20  C   LIG    1       25.980 -26.825   6.872  0.00  0.00    +0.104 C 
ENDBRANCH  17  18
ENDBRANCH   2  17
TORSDOF 5
ENDMDL
MODEL 9
REMARK VINA RESULT:      -6.7      1.952      2.414
REMARK  Name = *****
REMARK                            x       y       z     vdW  Elec       q    Type
REMARK                         _______ _______ _______ _____ _____    ______ ____
ROOT
ATOM      1  C   LIG    1       25.516 -20.665   5.630  0.00  0.00    +0.095 C 
ATOM      2  C   LIG    1       25.040 -22.016   4.957  0.00  0.00    +0.039 C 
ATOM      3  C   LIG    1       23.827 -21.764   4.032  0.00  0.00    +0.008 C 
ATOM      4  C   LIG    1       24.034 -20.626   3.042  0.00  0.00    +0.000 C 
ATOM      5  C   LIG    1       24.382 -19.332   3.749  0.00  0.00    +0.003 C 
ATOM      6  C   LIG    1       25.632 -19.513   4.601  0.00  0.00    +0.040 C 
ENDROOT
BRANCH   1   9
ATOM      7  C   LIG    1       29.191 -19.994   6.602  0.00  0.00    +0.120 A 
ATOM      8  C   LIG    1       27.961 -19.951   5.938  0.00  0.00    +0.052 A 
ATOM      9  C   LIG    1       26.871 -20.734   6.353  0.00  0.00    -0.012 A 
ATOM     10  C   LIG    1       27.042 -21.521   7.509  0.00  0.00    +0.007 A 
ATOM     11  C   LIG    1       28.259 -21.554   8.192  0.00  0.00    +0.004 A 
ATOM     12  C   LIG    1       29.336 -20.797   7.735  0.00  0.00    +0.045 A 
BRANCH   7  14
ATOM     13  C   LIG    1       31.329 -19.177   7.223  0.00  0.00    +0.277 C 
ATOM     14  O   LIG    1       30.309 -19.291   6.238  0.00  0.00    -0.495 OA
ENDBRANCH   7  14
ENDBRANCH   1   9
BRANCH   1  15
ATOM     15  O   LIG    1       24.533 -20.288   6.607  0.00  0.00    -0.384 OA
ATOM     16  H   LIG    1       24.889 -20.457   7.490  0.00  0.00    +0.211 HD
ENDBRANCH   1  15
BRANCH   2  17
ATOM     17  C   LIG    1       24.724 -23.090   6.051  0.00  0.00    +0.090 C 
BRANCH  17  18
ATOM     18  N   LIG    1       24.951 -24.527   5.752  0.00  0.00    -0.308 NA
ATOM     19  C   LIG    1       23.832 -25.406   6.080  0.00  0.00    +0.104 C 
ATOM     20  C   LIG    1       26.135 -24.984   6.499  0.00  0.00    +0.104 C 
ENDBRANCH  17  18
ENDBRANCH   2  17
TORSDOF 5
ENDMDL
