MODEL 1
REMARK VINA RESULT:      -5.7      0.000      0.000
REMARK  Name = *****
REMARK                            x       y       z     vdW  Elec       q    Type
REMARK                         _______ _______ _______ _____ _____    ______ ____
ROOT
ATOM      1  C   LIG    1       24.702 -31.531   8.495  0.00  0.00    +0.179 C 
ATOM      2  C   LIG    1       24.776 -30.100   9.153  0.00  0.00    +0.025 C 
ATOM      3  C   LIG    1       26.131 -30.147   9.936  0.00  0.00    +0.003 C 
ATOM      4  C   LIG    1       26.053 -30.492  11.445  0.00  0.00    -0.003 C 
ATOM      5  C   LIG    1       24.905 -29.772  12.170  0.00  0.00    -0.000 C 
ATOM      6  C   LIG    1       23.587 -30.155  11.483  0.00  0.00    +0.005 C 
ATOM      7  C   LIG    1       25.123 -28.237  12.283  0.00  0.00    +0.019 C 
ATOM      8  C   LIG    1       26.533 -27.834  12.686  0.00  0.00    -0.064 C 
ATOM      9  C   LIG    1       26.784 -26.668  13.311  0.00  0.00    +0.026 C 
ATOM     10  C   LIG    1       25.696 -25.686  13.598  0.00  0.00    +0.080 C 
ATOM     11  N   LIG    1       25.867 -24.451  13.965  0.00  0.00    -0.092 NA
ATOM     12  C   LIG    1       24.263 -26.129  13.388  0.00  0.00    +0.059 C 
ATOM     13  C   LIG    1       27.691 -28.708  12.270  0.00  0.00    +0.031 C 
ATOM     14  C   LIG    1       24.120 -27.637  13.288  0.00  0.00    +0.014 C 
ATOM     15  C   LIG    1       27.364 -30.197  12.196  0.00  0.00    +0.008 C 
ATOM     16  C   LIG    1       27.006 -31.170   9.166  0.00  0.00    +0.009 C 
ATOM     17  C   LIG    1       23.533 -29.743  10.014  0.00  0.00    +0.012 C 
ATOM     18  C   LIG    1       26.144 -31.756   8.039  0.00  0.00    +0.062 C 
ENDROOT
BRANCH   1  20
ATOM     19  C   LIG    1       24.013 -33.516  10.158  0.00  0.00    +0.008 C 
ATOM     20  C   LIG    1       24.285 -32.595   9.444  0.00  0.00    -0.058 C 
ENDBRANCH   1  20
BRANCH   2  21
ATOM     21  C   LIG    1       24.938 -28.943   8.073  0.00  0.00    +0.009 C 
ATOM     22  C   LIG    1       26.091 -27.953   8.220  0.00  0.00    +0.004 C 
ENDBRANCH   2  21
BRANCH  11  23
ATOM     23  O   LIG    1       27.218 -24.105  14.062  0.00  0.00    -0.409 OA
ATOM     24  H   LIG    1       27.474 -24.516  14.909  0.00  0.00    +0.328 HD
ENDBRANCH  11  23
BRANCH   1  25
ATOM     25  O   LIG    1       23.751 -31.467   7.424  0.00  0.00    -0.445 OA
BRANCH  25  26
ATOM     26  C   LIG    1       24.070 -31.861   6.169  0.00  0.00    +0.305 C 
ATOM     27  O   LIG    1       24.795 -31.281   5.377  0.00  0.00    -0.251 OA
ATOM     28  C   LIG    1       23.403 -33.181   5.918  0.00  0.00    +0.136 C 
ENDBRANCH  25  26
ENDBRANCH   1  25
TORSDOF 5
ENDMDL
MODEL 2
REMARK VINA RESULT:      -5.6      1.186      1.361
REMARK  Name = *****
REMARK                            x       y       z     vdW  Elec       q    Type
REMARK                         _______ _______ _______ _____ _____    ______ ____
ROOT
ATOM      1  C   LIG    1       24.892 -31.767   8.242  0.00  0.00    +0.179 C 
ATOM      2  C   LIG    1       24.770 -30.406   9.028  0.00  0.00    +0.025 C 
ATOM      3  C   LIG    1       25.781 -30.594  10.208  0.00  0.00    +0.003 C 
ATOM      4  C   LIG    1       25.194 -31.066  11.563  0.00  0.00    -0.003 C 
ATOM      5  C   LIG    1       23.884 -30.353  11.933  0.00  0.00    -0.000 C 
ATOM      6  C   LIG    1       22.866 -30.603  10.812  0.00  0.00    +0.005 C 
ATOM      7  C   LIG    1       24.083 -28.847  12.266  0.00  0.00    +0.019 C 
ATOM      8  C   LIG    1       25.283 -28.557  13.153  0.00  0.00    -0.064 C 
ATOM      9  C   LIG    1       25.333 -27.465  13.941  0.00  0.00    +0.026 C 
ATOM     10  C   LIG    1       24.233 -26.456  13.947  0.00  0.00    +0.080 C 
ATOM     11  N   LIG    1       24.295 -25.269  14.472  0.00  0.00    -0.092 NA
ATOM     12  C   LIG    1       22.945 -26.803  13.229  0.00  0.00    +0.059 C 
ATOM     13  C   LIG    1       26.496 -29.451  13.060  0.00  0.00    +0.031 C 
ATOM     14  C   LIG    1       22.813 -28.286  12.936  0.00  0.00    +0.014 C 
ATOM     15  C   LIG    1       26.182 -30.908  12.732  0.00  0.00    +0.008 C 
ATOM     16  C   LIG    1       26.843 -31.590   9.673  0.00  0.00    +0.009 C 
ATOM     17  C   LIG    1       23.318 -30.061   9.458  0.00  0.00    +0.012 C 
ATOM     18  C   LIG    1       26.398 -32.028   8.271  0.00  0.00    +0.062 C 
ENDROOT
BRANCH   1  20
ATOM     19  C   LIG    1       23.657 -33.815   9.451  0.00  0.00    +0.008 C 
ATOM     20  C   LIG    1       24.159 -32.887   8.886  0.00  0.00    -0.058 C 
ENDBRANCH   1  20
BRANCH   2  21
ATOM     21  C   LIG    1       25.308 -29.168   8.186  0.00  0.00    +0.009 C 
ATOM     22  C   LIG    1       26.364 -28.257   8.807  0.00  0.00    +0.004 C 
ENDBRANCH   2  21
BRANCH  11  23
ATOM     23  O   LIG    1       25.542 -25.005  15.047  0.00  0.00    -0.409 OA
ATOM     24  H   LIG    1       26.135 -25.038  14.273  0.00  0.00    +0.328 HD
ENDBRANCH  11  23
BRANCH   1  25
ATOM     25  O   LIG    1       24.357 -31.559   6.928  0.00  0.00    -0.445 OA
BRANCH  25  26
ATOM     26  C   LIG    1       24.890 -32.168   5.842  0.00  0.00    +0.305 C 
ATOM     27  O   LIG    1       24.755 -33.335   5.512  0.00  0.00    -0.251 OA
ATOM     28  C   LIG    1       25.661 -31.139   5.070  0.00  0.00    +0.136 C 
ENDBRANCH  25  26
ENDBRANCH   1  25
TORSDOF 5
ENDMDL
MODEL 3
REMARK VINA RESULT:      -5.5      3.658      7.679
REMARK  Name = *****
REMARK                            x       y       z     vdW  Elec       q    Type
REMARK                         _______ _______ _______ _____ _____    ______ ____
ROOT
ATOM      1  C   LIG    1       25.018 -30.622  10.979  0.00  0.00    +0.179 C 
ATOM      2  C   LIG    1       25.561 -30.728   9.503  0.00  0.00    +0.025 C 
ATOM      3  C   LIG    1       24.308 -31.225   8.706  0.00  0.00    +0.003 C 
ATOM      4  C   LIG    1       24.206 -32.749   8.444  0.00  0.00    -0.003 C 
ATOM      5  C   LIG    1       25.542 -33.378   8.018  0.00  0.00    -0.000 C 
ATOM      6  C   LIG    1       26.574 -33.111   9.122  0.00  0.00    +0.005 C 
ATOM      7  C   LIG    1       26.009 -32.921   6.608  0.00  0.00    +0.019 C 
ATOM      8  C   LIG    1       24.908 -32.903   5.560  0.00  0.00    -0.064 C 
ATOM      9  C   LIG    1       25.178 -33.039   4.247  0.00  0.00    +0.026 C 
ATOM     10  C   LIG    1       26.580 -33.164   3.747  0.00  0.00    +0.080 C 
ATOM     11  N   LIG    1       26.957 -33.051   2.509  0.00  0.00    -0.092 NA
ATOM     12  C   LIG    1       27.682 -33.378   4.765  0.00  0.00    +0.059 C 
ATOM     13  C   LIG    1       23.492 -32.609   5.991  0.00  0.00    +0.031 C 
ATOM     14  C   LIG    1       27.158 -33.824   6.117  0.00  0.00    +0.014 C 
ATOM     15  C   LIG    1       23.142 -33.107   7.391  0.00  0.00    +0.008 C 
ATOM     16  C   LIG    1       23.088 -30.705   9.510  0.00  0.00    +0.009 C 
ATOM     17  C   LIG    1       26.823 -31.624   9.365  0.00  0.00    +0.012 C 
ATOM     18  C   LIG    1       23.627 -30.019  10.772  0.00  0.00    +0.062 C 
ENDROOT
BRANCH   1  20
ATOM     19  C   LIG    1       24.767 -32.948  12.284  0.00  0.00    +0.008 C 
ATOM     20  C   LIG    1       24.917 -31.934  11.666  0.00  0.00    -0.058 C 
ENDBRANCH   1  20
BRANCH   2  21
ATOM     21  C   LIG    1       25.933 -29.309   8.888  0.00  0.00    +0.009 C 
ATOM     22  C   LIG    1       25.366 -28.923   7.524  0.00  0.00    +0.004 C 
ENDBRANCH   2  21
BRANCH  11  23
ATOM     23  O   LIG    1       25.887 -32.781   1.649  0.00  0.00    -0.409 OA
ATOM     24  H   LIG    1       25.162 -32.599   2.276  0.00  0.00    +0.328 HD
ENDBRANCH  11  23
BRANCH   1  25
ATOM     25  O   LIG    1       25.918 -29.782  11.713  0.00  0.00    -0.445 OA
BRANCH  25  26
ATOM     26  C   LIG    1       25.508 -29.081  12.797  0.00  0.00    +0.305 C 
ATOM     27  O   LIG    1       25.019 -29.528  13.821  0.00  0.00    -0.251 OA
ATOM     28  C   LIG    1       25.797 -27.631  12.542  0.00  0.00    +0.136 C 
ENDBRANCH  25  26
ENDBRANCH   1  25
TORSDOF 5
ENDMDL
MODEL 4
REMARK VINA RESULT:      -5.5      3.780      5.090
REMARK  Name = *****
REMARK                            x       y       z     vdW  Elec       q    Type
REMARK                         _______ _______ _______ _____ _____    ______ ____
ROOT
ATOM      1  C   LIG    1       24.748 -31.384  11.509  0.00  0.00    +0.179 C 
ATOM      2  C   LIG    1       23.308 -30.790  11.746  0.00  0.00    +0.025 C 
ATOM      3  C   LIG    1       23.596 -29.272  12.001  0.00  0.00    +0.003 C 
ATOM      4  C   LIG    1       23.685 -28.816  13.479  0.00  0.00    -0.003 C 
ATOM      5  C   LIG    1       22.591 -29.430  14.366  0.00  0.00    -0.000 C 
ATOM      6  C   LIG    1       22.709 -30.958  14.288  0.00  0.00    +0.005 C 
ATOM      7  C   LIG    1       21.168 -28.899  14.035  0.00  0.00    +0.019 C 
ATOM      8  C   LIG    1       21.097 -27.396  13.819  0.00  0.00    -0.064 C 
ATOM      9  C   LIG    1       19.960 -26.704  14.028  0.00  0.00    +0.026 C 
ATOM     10  C   LIG    1       18.695 -27.386  14.436  0.00  0.00    +0.080 C 
ATOM     11  N   LIG    1       17.509 -26.856  14.421  0.00  0.00    -0.092 NA
ATOM     12  C   LIG    1       18.772 -28.843  14.844  0.00  0.00    +0.059 C 
ATOM     13  C   LIG    1       22.296 -26.681  13.245  0.00  0.00    +0.031 C 
ATOM     14  C   LIG    1       20.186 -29.295  15.155  0.00  0.00    +0.014 C 
ATOM     15  C   LIG    1       23.640 -27.286  13.639  0.00  0.00    +0.008 C 
ATOM     16  C   LIG    1       24.914 -28.979  11.237  0.00  0.00    +0.009 C 
ATOM     17  C   LIG    1       22.515 -31.504  12.875  0.00  0.00    +0.012 C 
ATOM     18  C   LIG    1       25.409 -30.307  10.648  0.00  0.00    +0.062 C 
ENDROOT
BRANCH   1  20
ATOM     19  C   LIG    1       26.161 -31.655  13.769  0.00  0.00    +0.008 C 
ATOM     20  C   LIG    1       25.516 -31.589  12.764  0.00  0.00    -0.058 C 
ENDBRANCH   1  20
BRANCH   2  21
ATOM     21  C   LIG    1       22.403 -30.848  10.439  0.00  0.00    +0.009 C 
ATOM     22  C   LIG    1       20.884 -30.813  10.590  0.00  0.00    +0.004 C 
ENDBRANCH   2  21
BRANCH  11  23
ATOM     23  O   LIG    1       17.521 -25.535  13.961  0.00  0.00    -0.409 OA
ATOM     24  H   LIG    1       18.455 -25.283  14.087  0.00  0.00    +0.328 HD
ENDBRANCH  11  23
BRANCH   1  25
ATOM     25  O   LIG    1       24.593 -32.648  10.850  0.00  0.00    -0.445 OA
BRANCH  25  26
ATOM     26  C   LIG    1       25.455 -33.057   9.889  0.00  0.00    +0.305 C 
ATOM     27  O   LIG    1       26.634 -33.339  10.029  0.00  0.00    -0.251 OA
ATOM     28  C   LIG    1       24.695 -33.146   8.599  0.00  0.00    +0.136 C 
ENDBRANCH  25  26
ENDBRANCH   1  25
TORSDOF 5
ENDMDL
MODEL 5
REMARK VINA RESULT:      -5.3      2.516      6.943
REMARK  Name = *****
REMARK                            x       y       z     vdW  Elec       q    Type
REMARK                         _______ _______ _______ _____ _____    ______ ____
ROOT
ATOM      1  C   LIG    1       25.405 -28.505  14.770  0.00  0.00    +0.179 C 
ATOM      2  C   LIG    1       24.947 -28.256  13.282  0.00  0.00    +0.025 C 
ATOM      3  C   LIG    1       24.704 -29.708  12.746  0.00  0.00    +0.003 C 
ATOM      4  C   LIG    1       25.861 -30.361  11.949  0.00  0.00    -0.003 C 
ATOM      5  C   LIG    1       26.524 -29.399  10.951  0.00  0.00    -0.000 C 
ATOM      6  C   LIG    1       27.051 -28.186  11.728  0.00  0.00    +0.005 C 
ATOM      7  C   LIG    1       25.597 -29.020   9.763  0.00  0.00    +0.019 C 
ATOM      8  C   LIG    1       24.834 -30.192   9.166  0.00  0.00    -0.064 C 
ATOM      9  C   LIG    1       24.410 -30.183   7.887  0.00  0.00    +0.026 C 
ATOM     10  C   LIG    1       24.624 -29.000   7.002  0.00  0.00    +0.080 C 
ATOM     11  N   LIG    1       24.048 -28.796   5.855  0.00  0.00    -0.092 NA
ATOM     12  C   LIG    1       25.539 -27.898   7.496  0.00  0.00    +0.059 C 
ATOM     13  C   LIG    1       24.442 -31.342  10.061  0.00  0.00    +0.031 C 
ATOM     14  C   LIG    1       26.418 -28.335   8.653  0.00  0.00    +0.014 C 
ATOM     15  C   LIG    1       25.427 -31.627  11.191  0.00  0.00    +0.008 C 
ATOM     16  C   LIG    1       24.337 -30.543  14.000  0.00  0.00    +0.009 C 
ATOM     17  C   LIG    1       25.952 -27.412  12.452  0.00  0.00    +0.012 C 
ATOM     18  C   LIG    1       24.461 -29.620  15.221  0.00  0.00    +0.062 C 
ENDROOT
BRANCH   1  20
ATOM     19  C   LIG    1       27.925 -29.393  14.970  0.00  0.00    +0.008 C 
ATOM     20  C   LIG    1       26.819 -28.943  14.887  0.00  0.00    -0.058 C 
ENDBRANCH   1  20
BRANCH   2  21
ATOM     21  C   LIG    1       23.541 -27.519  13.194  0.00  0.00    +0.009 C 
ATOM     22  C   LIG    1       22.361 -28.251  12.559  0.00  0.00    +0.004 C 
ENDBRANCH   2  21
BRANCH  11  23
ATOM     23  O   LIG    1       23.165 -29.825   5.513  0.00  0.00    -0.409 OA
ATOM     24  H   LIG    1       22.301 -29.442   5.756  0.00  0.00    +0.328 HD
ENDBRANCH  11  23
BRANCH   1  25
ATOM     25  O   LIG    1       25.241 -27.273  15.485  0.00  0.00    -0.445 OA
BRANCH  25  26
ATOM     26  C   LIG    1       26.106 -26.243  15.329  0.00  0.00    +0.305 C 
ATOM     27  O   LIG    1       27.325 -26.290  15.382  0.00  0.00    -0.251 OA
ATOM     28  C   LIG    1       25.304 -25.010  15.034  0.00  0.00    +0.136 C 
ENDBRANCH  25  26
ENDBRANCH   1  25
TORSDOF 5
ENDMDL
MODEL 6
REMARK VINA RESULT:      -5.1      2.582      3.540
REMARK  Name = *****
REMARK                            x       y       z     vdW  Elec       q    Type
REMARK                         _______ _______ _______ _____ _____    ______ ____
ROOT
ATOM      1  C   LIG    1       22.604 -31.624  11.215  0.00  0.00    +0.179 C 
ATOM      2  C   LIG    1       23.090 -30.351  12.008  0.00  0.00    +0.025 C 
ATOM      3  C   LIG    1       24.203 -29.765  11.076  0.00  0.00    +0.003 C 
ATOM      4  C   LIG    1       25.667 -30.146  11.412  0.00  0.00    -0.003 C 
ATOM      5  C   LIG    1       25.976 -30.084  12.916  0.00  0.00    -0.000 C 
ATOM      6  C   LIG    1       25.014 -31.032  13.645  0.00  0.00    +0.005 C 
ATOM      7  C   LIG    1       25.967 -28.636  13.481  0.00  0.00    +0.019 C 
ATOM      8  C   LIG    1       26.678 -27.618  12.604  0.00  0.00    -0.064 C 
ATOM      9  C   LIG    1       27.210 -26.491  13.116  0.00  0.00    +0.026 C 
ATOM     10  C   LIG    1       27.086 -26.158  14.567  0.00  0.00    +0.080 C 
ATOM     11  N   LIG    1       27.340 -25.003  15.105  0.00  0.00    -0.092 NA
ATOM     12  C   LIG    1       26.557 -27.229  15.500  0.00  0.00    +0.059 C 
ATOM     13  C   LIG    1       26.686 -27.819  11.108  0.00  0.00    +0.031 C 
ATOM     14  C   LIG    1       26.596 -28.617  14.889  0.00  0.00    +0.014 C 
ATOM     15  C   LIG    1       26.698 -29.280  10.667  0.00  0.00    +0.008 C 
ATOM     16  C   LIG    1       23.813 -30.223   9.646  0.00  0.00    +0.009 C 
ATOM     17  C   LIG    1       23.546 -30.656  13.461  0.00  0.00    +0.012 C 
ATOM     18  C   LIG    1       22.573 -31.119   9.772  0.00  0.00    +0.062 C 
ENDROOT
BRANCH   1  20
ATOM     19  C   LIG    1       24.274 -33.716  11.337  0.00  0.00    +0.008 C 
ATOM     20  C   LIG    1       23.524 -32.783  11.340  0.00  0.00    -0.058 C 
ENDBRANCH   1  20
BRANCH   2  21
ATOM     21  C   LIG    1       21.966 -29.229  12.103  0.00  0.00    +0.009 C 
ATOM     22  C   LIG    1       22.276 -27.937  12.855  0.00  0.00    +0.004 C 
ENDBRANCH   2  21
BRANCH  11  23
ATOM     23  O   LIG    1       27.751 -24.056  14.162  0.00  0.00    -0.409 OA
ATOM     24  H   LIG    1       27.382 -24.417  13.335  0.00  0.00    +0.328 HD
ENDBRANCH  11  23
BRANCH   1  25
ATOM     25  O   LIG    1       21.320 -31.994  11.734  0.00  0.00    -0.445 OA
BRANCH  25  26
ATOM     26  C   LIG    1       20.345 -32.484  10.931  0.00  0.00    +0.305 C 
ATOM     27  O   LIG    1       20.326 -33.570  10.375  0.00  0.00    -0.251 OA
ATOM     28  C   LIG    1       19.248 -31.464  10.868  0.00  0.00    +0.136 C 
ENDBRANCH  25  26
ENDBRANCH   1  25
TORSDOF 5
ENDMDL
MODEL 7
REMARK VINA RESULT:      -5.0      1.186      1.358
REMARK  Name = *****
REMARK                            x       y       z     vdW  Elec       q    Type
REMARK                         _______ _______ _______ _____ _____    ______ ____
ROOT
ATOM      1  C   LIG    1       23.898 -31.963   9.399  0.00  0.00    +0.179 C 
ATOM      2  C   LIG    1       24.381 -30.532   9.848  0.00  0.00    +0.025 C 
ATOM      3  C   LIG    1       25.576 -30.853  10.808  0.00  0.00    +0.003 C 
ATOM      4  C   LIG    1       25.265 -30.880  12.326  0.00  0.00    -0.003 C 
ATOM      5  C   LIG    1       24.360 -29.722  12.776  0.00  0.00    -0.000 C 
ATOM      6  C   LIG    1       23.051 -29.796  11.978  0.00  0.00    +0.005 C 
ATOM      7  C   LIG    1       25.058 -28.336  12.696  0.00  0.00    +0.019 C 
ATOM      8  C   LIG    1       26.484 -28.322  13.225  0.00  0.00    -0.064 C 
ATOM      9  C   LIG    1       27.050 -27.199  13.705  0.00  0.00    +0.026 C 
ATOM     10  C   LIG    1       26.324 -25.894  13.697  0.00  0.00    +0.080 C 
ATOM     11  N   LIG    1       26.858 -24.727  13.902  0.00  0.00    -0.092 NA
ATOM     12  C   LIG    1       24.847 -25.903  13.358  0.00  0.00    +0.059 C 
ATOM     13  C   LIG    1       27.322 -29.571  13.101  0.00  0.00    +0.031 C 
ATOM     14  C   LIG    1       24.227 -27.285  13.458  0.00  0.00    +0.014 C 
ATOM     15  C   LIG    1       26.533 -30.874  13.198  0.00  0.00    +0.008 C 
ATOM     16  C   LIG    1       26.129 -32.218  10.319  0.00  0.00    +0.009 C 
ATOM     17  C   LIG    1       23.258 -29.659  10.471  0.00  0.00    +0.012 C 
ATOM     18  C   LIG    1       25.220 -32.701   9.181  0.00  0.00    +0.062 C 
ENDROOT
BRANCH   1  20
ATOM     19  C   LIG    1       22.372 -33.127  11.269  0.00  0.00    +0.008 C 
ATOM     20  C   LIG    1       23.079 -32.658  10.425  0.00  0.00    -0.058 C 
ENDBRANCH   1  20
BRANCH   2  21
ATOM     21  C   LIG    1       25.002 -29.695   8.646  0.00  0.00    +0.009 C 
ATOM     22  C   LIG    1       26.095 -28.672   8.945  0.00  0.00    +0.004 C 
ENDBRANCH   2  21
BRANCH  11  23
ATOM     23  O   LIG    1       28.235 -24.804  14.132  0.00  0.00    -0.409 OA
ATOM     24  H   LIG    1       28.586 -24.158  13.490  0.00  0.00    +0.328 HD
ENDBRANCH  11  23
BRANCH   1  25
ATOM     25  O   LIG    1       23.113 -31.803   8.211  0.00  0.00    -0.445 OA
BRANCH  25  26
ATOM     26  C   LIG    1       23.169 -32.700   7.198  0.00  0.00    +0.305 C 
ATOM     27  O   LIG    1       22.694 -33.825   7.184  0.00  0.00    -0.251 OA
ATOM     28  C   LIG    1       23.892 -32.057   6.053  0.00  0.00    +0.136 C 
ENDBRANCH  25  26
ENDBRANCH   1  25
TORSDOF 5
ENDMDL
MODEL 8
REMARK VINA RESULT:      -4.9      3.777      7.525
REMARK  Name = *****
REMARK                            x       y       z     vdW  Elec       q    Type
REMARK                         _______ _______ _______ _____ _____    ______ ____
ROOT
ATOM      1  C   LIG    1       25.529 -30.320  11.122  0.00  0.00    +0.179 C 
ATOM      2  C   LIG    1       25.771 -31.138   9.796  0.00  0.00    +0.025 C 
ATOM      3  C   LIG    1       25.788 -30.022   8.697  0.00  0.00    +0.003 C 
ATOM      4  C   LIG    1       24.464 -29.777   7.931  0.00  0.00    -0.003 C 
ATOM      5  C   LIG    1       23.749 -31.077   7.530  0.00  0.00    -0.000 C 
ATOM      6  C   LIG    1       23.468 -31.884   8.805  0.00  0.00    +0.005 C 
ATOM      7  C   LIG    1       24.513 -31.881   6.442  0.00  0.00    +0.019 C 
ATOM      8  C   LIG    1       25.057 -31.033   5.304  0.00  0.00    -0.064 C 
ATOM      9  C   LIG    1       25.276 -31.548   4.079  0.00  0.00    +0.026 C 
ATOM     10  C   LIG    1       25.042 -32.994   3.786  0.00  0.00    +0.080 C 
ATOM     11  N   LIG    1       25.449 -33.630   2.729  0.00  0.00    -0.092 NA
ATOM     12  C   LIG    1       24.324 -33.824   4.831  0.00  0.00    +0.059 C 
ATOM     13  C   LIG    1       25.472 -29.609   5.586  0.00  0.00    +0.031 C 
ATOM     14  C   LIG    1       23.598 -32.978   5.861  0.00  0.00    +0.014 C 
ATOM     15  C   LIG    1       24.651 -28.915   6.670  0.00  0.00    +0.008 C 
ATOM     16  C   LIG    1       26.264 -28.741   9.431  0.00  0.00    +0.009 C 
ATOM     17  C   LIG    1       24.735 -32.271   9.563  0.00  0.00    +0.012 C 
ATOM     18  C   LIG    1       26.420 -29.094  10.917  0.00  0.00    +0.062 C 
ENDROOT
BRANCH   1  20
ATOM     19  C   LIG    1       23.010 -29.484  11.494  0.00  0.00    +0.008 C 
ATOM     20  C   LIG    1       24.114 -29.907  11.310  0.00  0.00    -0.058 C 
ENDBRANCH   1  20
BRANCH   2  21
ATOM     21  C   LIG    1       27.211 -31.812   9.754  0.00  0.00    +0.009 C 
ATOM     22  C   LIG    1       27.488 -32.897   8.715  0.00  0.00    +0.004 C 
ENDBRANCH   2  21
BRANCH  11  23
ATOM     23  O   LIG    1       26.166 -32.806   1.855  0.00  0.00    -0.409 OA
ATOM     24  H   LIG    1       26.490 -32.107   2.453  0.00  0.00    +0.328 HD
ENDBRANCH  11  23
BRANCH   1  25
ATOM     25  O   LIG    1       25.919 -31.151  12.222  0.00  0.00    -0.445 OA
BRANCH  25  26
ATOM     26  C   LIG    1       26.579 -30.647  13.292  0.00  0.00    +0.305 C 
ATOM     27  O   LIG    1       27.782 -30.470  13.398  0.00  0.00    -0.251 OA
ATOM     28  C   LIG    1       25.561 -30.297  14.336  0.00  0.00    +0.136 C 
ENDBRANCH  25  26
ENDBRANCH   1  25
TORSDOF 5
ENDMDL
MODEL 9
REMARK VINA RESULT:      -4.9      4.238      6.288
REMARK  Name = *****
REMARK                            x       y       z     vdW  Elec       q    Type
REMARK                         _______ _______ _______ _____ _____    ______ ____
ROOT
ATOM      1  C   LIG    1       26.013 -29.328  12.833  0.00  0.00    +0.179 C 
ATOM      2  C   LIG    1       24.455 -29.535  12.712  0.00  0.00    +0.025 C 
ATOM      3  C   LIG    1       23.883 -28.162  13.201  0.00  0.00    +0.003 C 
ATOM      4  C   LIG    1       23.440 -28.077  14.684  0.00  0.00    -0.003 C 
ATOM      5  C   LIG    1       22.656 -29.314  15.151  0.00  0.00    -0.000 C 
ATOM      6  C   LIG    1       23.541 -30.551  14.944  0.00  0.00    +0.005 C 
ATOM      7  C   LIG    1       21.256 -29.435  14.487  0.00  0.00    +0.019 C 
ATOM      8  C   LIG    1       20.480 -28.129  14.423  0.00  0.00    -0.064 C 
ATOM      9  C   LIG    1       19.134 -28.107  14.373  0.00  0.00    +0.026 C 
ATOM     10  C   LIG    1       18.334 -29.367  14.327  0.00  0.00    +0.080 C 
ATOM     11  N   LIG    1       17.072 -29.454  14.032  0.00  0.00    -0.092 NA
ATOM     12  C   LIG    1       19.054 -30.677  14.580  0.00  0.00    +0.059 C 
ATOM     13  C   LIG    1       21.240 -26.831  14.296  0.00  0.00    +0.031 C 
ATOM     14  C   LIG    1       20.411 -30.488  15.231  0.00  0.00    +0.014 C 
ATOM     15  C   LIG    1       22.600 -26.825  14.989  0.00  0.00    +0.008 C 
ATOM     16  C   LIG    1       24.992 -27.126  12.881  0.00  0.00    +0.009 C 
ATOM     17  C   LIG    1       23.928 -30.776  13.484  0.00  0.00    +0.012 C 
ATOM     18  C   LIG    1       26.193 -27.899  12.318  0.00  0.00    +0.062 C 
ENDROOT
BRANCH   1  20
ATOM     19  C   LIG    1       27.017 -29.509  15.310  0.00  0.00    +0.008 C 
ATOM     20  C   LIG    1       26.518 -29.445  14.224  0.00  0.00    -0.058 C 
ENDBRANCH   1  20
BRANCH   2  21
ATOM     21  C   LIG    1       23.977 -29.693  11.203  0.00  0.00    +0.009 C 
ATOM     22  C   LIG    1       22.546 -30.147  10.925  0.00  0.00    +0.004 C 
ENDBRANCH   2  21
BRANCH  11  23
ATOM     23  O   LIG    1       16.506 -28.209  13.741  0.00  0.00    -0.409 OA
ATOM     24  H   LIG    1       16.819 -27.663  14.486  0.00  0.00    +0.328 HD
ENDBRANCH  11  23
BRANCH   1  25
ATOM     25  O   LIG    1       26.647 -30.327  12.024  0.00  0.00    -0.445 OA
BRANCH  25  26
ATOM     26  C   LIG    1       27.618 -30.008  11.135  0.00  0.00    +0.305 C 
ATOM     27  O   LIG    1       28.753 -29.638  11.387  0.00  0.00    -0.251 OA
ATOM     28  C   LIG    1       27.069 -30.226   9.757  0.00  0.00    +0.136 C 
ENDBRANCH  25  26
ENDBRANCH   1  25
TORSDOF 5
ENDMDL
