MODEL 1
REMARK VINA RESULT:      -6.5      0.000      0.000
REMARK  Name = *****
REMARK                            x       y       z     vdW  Elec       q    Type
REMARK                         _______ _______ _______ _____ _____    ______ ____
ROOT
ATOM      1  C   LIG    1       24.667 -31.772   8.350  0.00  0.00    -0.032 C 
ATOM      2  C   LIG    1       24.449 -30.477   8.723  0.00  0.00    -0.007 C 
ENDROOT
BRANCH   1   3
ATOM      3  C   LIG    1       25.358 -32.149   7.083  0.00  0.00    -0.021 A 
ATOM      4  C   LIG    1       26.751 -32.300   7.060  0.00  0.00    +0.008 A 
ATOM      5  C   LIG    1       27.409 -32.699   5.890  0.00  0.00    +0.001 A 
ATOM      6  C   LIG    1       26.678 -32.952   4.732  0.00  0.00    +0.000 A 
ATOM      7  C   LIG    1       25.290 -32.808   4.744  0.00  0.00    +0.001 A 
ATOM      8  C   LIG    1       24.634 -32.406   5.912  0.00  0.00    +0.008 A 
ENDBRANCH   1   3
BRANCH   2   9
ATOM      9  C   LIG    1       24.806 -29.367   7.799  0.00  0.00    -0.017 A 
ATOM     10  C   LIG    1       24.098 -29.144   6.614  0.00  0.00    +0.012 A 
ATOM     11  C   LIG    1       24.437 -28.073   5.776  0.00  0.00    +0.046 A 
ATOM     12  C   LIG    1       25.488 -27.218   6.118  0.00  0.00    +0.121 A 
ATOM     13  C   LIG    1       26.231 -27.474   7.271  0.00  0.00    +0.046 A 
ATOM     14  C   LIG    1       25.887 -28.532   8.114  0.00  0.00    +0.012 A 
BRANCH  12  15
ATOM     15  O   LIG    1       25.884 -26.120   5.404  0.00  0.00    -0.491 OA
BRANCH  15  16
ATOM     16  C   LIG    1       24.949 -25.034   5.362  0.00  0.00    +0.244 C 
BRANCH  16  17
ATOM     17  C   LIG    1       25.309 -24.031   6.476  0.00  0.00    +0.124 C 
BRANCH  17  18
ATOM     18  N   LIG    1       24.450 -22.829   6.535  0.00  0.00    -0.305 NA
ATOM     19  C   LIG    1       23.042 -23.156   6.760  0.00  0.00    +0.104 C 
ATOM     20  C   LIG    1       24.574 -22.059   5.293  0.00  0.00    +0.104 C 
ENDBRANCH  17  18
ENDBRANCH  16  17
ENDBRANCH  15  16
ENDBRANCH  12  15
ENDBRANCH   2   9
BRANCH   2  21
ATOM     21  C   LIG    1       23.819 -30.156  10.037  0.00  0.00    -0.017 A 
ATOM     22  C   LIG    1       24.598 -29.655  11.092  0.00  0.00    +0.008 A 
ATOM     23  C   LIG    1       24.012 -29.314  12.317  0.00  0.00    +0.001 A 
ATOM     24  C   LIG    1       22.635 -29.463  12.495  0.00  0.00    +0.000 A 
ATOM     25  C   LIG    1       21.851 -29.942  11.455  0.00  0.00    +0.001 A 
ATOM     26  C   LIG    1       22.437 -30.288  10.230  0.00  0.00    +0.008 A 
ENDBRANCH   2  21
BRANCH   1  28
ATOM     27  C   LIG    1       25.173 -33.590  10.081  0.00  0.00    +0.009 C 
ATOM     28  C   LIG    1       24.164 -32.988   9.115  0.00  0.00    +0.033 C 
ENDBRANCH   1  28
TORSDOF 8
ENDMDL
MODEL 2
REMARK VINA RESULT:      -6.3      6.098     10.702
REMARK  Name = *****
REMARK                            x       y       z     vdW  Elec       q    Type
REMARK                         _______ _______ _______ _____ _____    ______ ____
ROOT
ATOM      1  C   LIG    1       24.275 -20.811   4.532  0.00  0.00    -0.032 C 
ATOM      2  C   LIG    1       24.972 -21.562   5.434  0.00  0.00    -0.007 C 
ENDROOT
BRANCH   1   3
ATOM      3  C   LIG    1       24.627 -19.400   4.202  0.00  0.00    -0.021 A 
ATOM      4  C   LIG    1       25.898 -19.092   3.698  0.00  0.00    +0.008 A 
ATOM      5  C   LIG    1       26.227 -17.779   3.340  0.00  0.00    +0.001 A 
ATOM      6  C   LIG    1       25.286 -16.762   3.481  0.00  0.00    +0.000 A 
ATOM      7  C   LIG    1       24.017 -17.057   3.980  0.00  0.00    +0.001 A 
ATOM      8  C   LIG    1       23.689 -18.369   4.341  0.00  0.00    +0.008 A 
ENDBRANCH   1   3
BRANCH   2   9
ATOM      9  C   LIG    1       26.072 -20.945   6.223  0.00  0.00    -0.017 A 
ATOM     10  C   LIG    1       27.290 -20.594   5.631  0.00  0.00    +0.012 A 
ATOM     11  C   LIG    1       28.299 -19.987   6.391  0.00  0.00    +0.046 A 
ATOM     12  C   LIG    1       28.097 -19.728   7.748  0.00  0.00    +0.121 A 
ATOM     13  C   LIG    1       26.905 -20.130   8.353  0.00  0.00    +0.046 A 
ATOM     14  C   LIG    1       25.893 -20.722   7.595  0.00  0.00    +0.012 A 
BRANCH  12  15
ATOM     15  O   LIG    1       28.988 -19.106   8.581  0.00  0.00    -0.491 OA
BRANCH  15  16
ATOM     16  C   LIG    1       30.262 -18.789   8.005  0.00  0.00    +0.244 C 
BRANCH  16  17
ATOM     17  C   LIG    1       31.369 -19.238   8.979  0.00  0.00    +0.124 C 
BRANCH  17  18
ATOM     18  N   LIG    1       31.860 -18.185   9.894  0.00  0.00    -0.305 NA
ATOM     19  C   LIG    1       30.881 -17.837  10.925  0.00  0.00    +0.104 C 
ATOM     20  C   LIG    1       32.210 -16.980   9.135  0.00  0.00    +0.104 C 
ENDBRANCH  17  18
ENDBRANCH  16  17
ENDBRANCH  15  16
ENDBRANCH  12  15
ENDBRANCH   2   9
BRANCH   2  21
ATOM     21  C   LIG    1       24.621 -22.993   5.672  0.00  0.00    -0.017 A 
ATOM     22  C   LIG    1       23.604 -23.330   6.580  0.00  0.00    +0.008 A 
ATOM     23  C   LIG    1       23.240 -24.667   6.783  0.00  0.00    +0.001 A 
ATOM     24  C   LIG    1       23.883 -25.680   6.070  0.00  0.00    +0.000 A 
ATOM     25  C   LIG    1       24.878 -25.358   5.157  0.00  0.00    +0.001 A 
ATOM     26  C   LIG    1       25.248 -24.022   4.956  0.00  0.00    +0.008 A 
ENDBRANCH   2  21
BRANCH   1  28
ATOM     27  C   LIG    1       21.731 -21.090   4.625  0.00  0.00    +0.009 C 
ATOM     28  C   LIG    1       23.010 -21.270   3.821  0.00  0.00    +0.033 C 
ENDBRANCH   1  28
TORSDOF 8
ENDMDL
MODEL 3
REMARK VINA RESULT:      -6.2      1.437      4.724
REMARK  Name = *****
REMARK                            x       y       z     vdW  Elec       q    Type
REMARK                         _______ _______ _______ _____ _____    ______ ____
ROOT
ATOM      1  C   LIG    1       25.585 -31.062   8.467  0.00  0.00    -0.032 C 
ATOM      2  C   LIG    1       25.254 -30.630   7.215  0.00  0.00    -0.007 C 
ENDROOT
BRANCH   1   3
ATOM      3  C   LIG    1       25.772 -30.139   9.624  0.00  0.00    -0.021 A 
ATOM      4  C   LIG    1       24.690 -29.830  10.459  0.00  0.00    +0.008 A 
ATOM      5  C   LIG    1       24.862 -29.003  11.576  0.00  0.00    +0.001 A 
ATOM      6  C   LIG    1       26.118 -28.479  11.868  0.00  0.00    +0.000 A 
ATOM      7  C   LIG    1       27.203 -28.781  11.045  0.00  0.00    +0.001 A 
ATOM      8  C   LIG    1       27.031 -29.605   9.927  0.00  0.00    +0.008 A 
ENDBRANCH   1   3
BRANCH   2   9
ATOM      9  C   LIG    1       25.174 -29.172   6.929  0.00  0.00    -0.017 A 
ATOM     10  C   LIG    1       26.064 -28.262   7.508  0.00  0.00    +0.012 A 
ATOM     11  C   LIG    1       25.985 -26.898   7.198  0.00  0.00    +0.046 A 
ATOM     12  C   LIG    1       25.015 -26.434   6.307  0.00  0.00    +0.121 A 
ATOM     13  C   LIG    1       24.090 -27.333   5.773  0.00  0.00    +0.046 A 
ATOM     14  C   LIG    1       24.175 -28.694   6.070  0.00  0.00    +0.012 A 
BRANCH  12  15
ATOM     15  O   LIG    1       24.865 -25.136   5.897  0.00  0.00    -0.491 OA
BRANCH  15  16
ATOM     16  C   LIG    1       23.823 -24.395   6.545  0.00  0.00    +0.244 C 
BRANCH  16  17
ATOM     17  C   LIG    1       24.332 -22.966   6.819  0.00  0.00    +0.124 C 
BRANCH  17  18
ATOM     18  N   LIG    1       23.756 -21.920   5.948  0.00  0.00    -0.305 NA
ATOM     19  C   LIG    1       24.691 -21.473   4.915  0.00  0.00    +0.104 C 
ATOM     20  C   LIG    1       23.338 -20.768   6.753  0.00  0.00    +0.104 C 
ENDBRANCH  17  18
ENDBRANCH  16  17
ENDBRANCH  15  16
ENDBRANCH  12  15
ENDBRANCH   2   9
BRANCH   2  21
ATOM     21  C   LIG    1       25.007 -31.603   6.111  0.00  0.00    -0.017 A 
ATOM     22  C   LIG    1       25.987 -31.824   5.130  0.00  0.00    +0.008 A 
ATOM     23  C   LIG    1       25.781 -32.762   4.111  0.00  0.00    +0.001 A 
ATOM     24  C   LIG    1       24.596 -33.497   4.070  0.00  0.00    +0.000 A 
ATOM     25  C   LIG    1       23.625 -33.300   5.044  0.00  0.00    +0.001 A 
ATOM     26  C   LIG    1       23.827 -32.358   6.061  0.00  0.00    +0.008 A 
ENDBRANCH   2  21
BRANCH   1  28
ATOM     27  C   LIG    1       27.305 -32.959   8.484  0.00  0.00    +0.009 C 
ATOM     28  C   LIG    1       25.893 -32.507   8.828  0.00  0.00    +0.033 C 
ENDBRANCH   1  28
TORSDOF 8
ENDMDL
MODEL 4
REMARK VINA RESULT:      -6.1      1.437      2.068
REMARK  Name = *****
REMARK                            x       y       z     vdW  Elec       q    Type
REMARK                         _______ _______ _______ _____ _____    ______ ____
ROOT
ATOM      1  C   LIG    1       25.754 -31.329   8.738  0.00  0.00    -0.032 C 
ATOM      2  C   LIG    1       25.777 -29.996   9.033  0.00  0.00    -0.007 C 
ENDROOT
BRANCH   1   3
ATOM      3  C   LIG    1       25.507 -31.854   7.364  0.00  0.00    -0.021 A 
ATOM      4  C   LIG    1       24.222 -32.266   6.989  0.00  0.00    +0.008 A 
ATOM      5  C   LIG    1       23.965 -32.718   5.688  0.00  0.00    +0.001 A 
ATOM      6  C   LIG    1       24.994 -32.760   4.751  0.00  0.00    +0.000 A 
ATOM      7  C   LIG    1       26.278 -32.351   5.112  0.00  0.00    +0.001 A 
ATOM      8  C   LIG    1       26.535 -31.903   6.413  0.00  0.00    +0.008 A 
ENDBRANCH   1   3
BRANCH   2   9
ATOM      9  C   LIG    1       25.437 -28.997   7.985  0.00  0.00    -0.017 A 
ATOM     10  C   LIG    1       24.340 -29.171   7.134  0.00  0.00    +0.012 A 
ATOM     11  C   LIG    1       24.025 -28.199   6.175  0.00  0.00    +0.046 A 
ATOM     12  C   LIG    1       24.806 -27.047   6.059  0.00  0.00    +0.121 A 
ATOM     13  C   LIG    1       25.934 -26.899   6.867  0.00  0.00    +0.046 A 
ATOM     14  C   LIG    1       26.242 -27.859   7.833  0.00  0.00    +0.012 A 
BRANCH  12  15
ATOM     15  O   LIG    1       24.575 -26.013   5.191  0.00  0.00    -0.491 OA
BRANCH  15  16
ATOM     16  C   LIG    1       25.063 -24.731   5.607  0.00  0.00    +0.244 C 
BRANCH  16  17
ATOM     17  C   LIG    1       23.938 -23.998   6.365  0.00  0.00    +0.124 C 
BRANCH  17  18
ATOM     18  N   LIG    1       24.389 -22.893   7.235  0.00  0.00    -0.305 NA
ATOM     19  C   LIG    1       23.439 -21.780   7.267  0.00  0.00    +0.104 C 
ATOM     20  C   LIG    1       25.696 -22.400   6.788  0.00  0.00    +0.104 C 
ENDBRANCH  17  18
ENDBRANCH  16  17
ENDBRANCH  15  16
ENDBRANCH  12  15
ENDBRANCH   2   9
BRANCH   2  21
ATOM     21  C   LIG    1       26.102 -29.524  10.411  0.00  0.00    -0.017 A 
ATOM     22  C   LIG    1       27.440 -29.412  10.822  0.00  0.00    +0.008 A 
ATOM     23  C   LIG    1       27.759 -28.934  12.099  0.00  0.00    +0.001 A 
ATOM     24  C   LIG    1       26.741 -28.553  12.975  0.00  0.00    +0.000 A 
ATOM     25  C   LIG    1       25.415 -28.644  12.574  0.00  0.00    +0.001 A 
ATOM     26  C   LIG    1       25.093 -29.126  11.299  0.00  0.00    +0.008 A 
ENDBRANCH   2  21
BRANCH   1  28
ATOM     27  C   LIG    1       24.595 -32.779  10.501  0.00  0.00    +0.009 C 
ATOM     28  C   LIG    1       25.884 -32.443   9.765  0.00  0.00    +0.033 C 
ENDBRANCH   1  28
TORSDOF 8
ENDMDL
MODEL 5
REMARK VINA RESULT:      -6.1      5.427     10.003
REMARK  Name = *****
REMARK                            x       y       z     vdW  Elec       q    Type
REMARK                         _______ _______ _______ _____ _____    ______ ____
ROOT
ATOM      1  C   LIG    1       23.870 -21.831   5.398  0.00  0.00    -0.032 C 
ATOM      2  C   LIG    1       25.077 -22.289   5.842  0.00  0.00    -0.007 C 
ENDROOT
BRANCH   1   3
ATOM      3  C   LIG    1       23.617 -20.400   5.060  0.00  0.00    -0.021 A 
ATOM      4  C   LIG    1       24.334 -19.785   4.025  0.00  0.00    +0.008 A 
ATOM      5  C   LIG    1       24.074 -18.456   3.666  0.00  0.00    +0.001 A 
ATOM      6  C   LIG    1       23.093 -17.732   4.338  0.00  0.00    +0.000 A 
ATOM      7  C   LIG    1       22.371 -18.335   5.368  0.00  0.00    +0.001 A 
ATOM      8  C   LIG    1       22.633 -19.662   5.730  0.00  0.00    +0.008 A 
ENDBRANCH   1   3
BRANCH   2   9
ATOM      9  C   LIG    1       26.181 -21.331   6.116  0.00  0.00    -0.017 A 
ATOM     10  C   LIG    1       26.616 -21.067   7.419  0.00  0.00    +0.012 A 
ATOM     11  C   LIG    1       27.678 -20.182   7.647  0.00  0.00    +0.046 A 
ATOM     12  C   LIG    1       28.312 -19.554   6.573  0.00  0.00    +0.121 A 
ATOM     13  C   LIG    1       27.843 -19.772   5.277  0.00  0.00    +0.046 A 
ATOM     14  C   LIG    1       26.793 -20.664   5.046  0.00  0.00    +0.012 A 
BRANCH  12  15
ATOM     15  O   LIG    1       29.382 -18.704   6.666  0.00  0.00    -0.491 OA
BRANCH  15  16
ATOM     16  C   LIG    1       30.672 -19.329   6.701  0.00  0.00    +0.244 C 
BRANCH  16  17
ATOM     17  C   LIG    1       31.546 -18.596   7.738  0.00  0.00    +0.124 C 
BRANCH  17  18
ATOM     18  N   LIG    1       31.748 -19.323   9.009  0.00  0.00    -0.305 NA
ATOM     19  C   LIG    1       31.212 -20.684   8.969  0.00  0.00    +0.104 C 
ATOM     20  C   LIG    1       31.120 -18.590  10.114  0.00  0.00    +0.104 C 
ENDBRANCH  17  18
ENDBRANCH  16  17
ENDBRANCH  15  16
ENDBRANCH  12  15
ENDBRANCH   2   9
BRANCH   2  21
ATOM     21  C   LIG    1       25.296 -23.744   6.095  0.00  0.00    -0.017 A 
ATOM     22  C   LIG    1       25.168 -24.670   5.048  0.00  0.00    +0.008 A 
ATOM     23  C   LIG    1       25.407 -26.033   5.264  0.00  0.00    +0.001 A 
ATOM     24  C   LIG    1       25.789 -26.481   6.530  0.00  0.00    +0.000 A 
ATOM     25  C   LIG    1       25.935 -25.572   7.570  0.00  0.00    +0.001 A 
ATOM     26  C   LIG    1       25.690 -24.209   7.357  0.00  0.00    +0.008 A 
ENDBRANCH   2  21
BRANCH   1  28
ATOM     27  C   LIG    1       22.097 -23.236   6.596  0.00  0.00    +0.009 C 
ATOM     28  C   LIG    1       22.614 -22.681   5.277  0.00  0.00    +0.033 C 
ENDBRANCH   1  28
TORSDOF 8
ENDMDL
MODEL 6
REMARK VINA RESULT:      -6.0      1.451      4.576
REMARK  Name = *****
REMARK                            x       y       z     vdW  Elec       q    Type
REMARK                         _______ _______ _______ _____ _____    ______ ____
ROOT
ATOM      1  C   LIG    1       25.602 -31.120   8.432  0.00  0.00    -0.032 C 
ATOM      2  C   LIG    1       25.275 -30.673   7.184  0.00  0.00    -0.007 C 
ENDROOT
BRANCH   1   3
ATOM      3  C   LIG    1       25.774 -30.213   9.603  0.00  0.00    -0.021 A 
ATOM      4  C   LIG    1       27.035 -29.677   9.899  0.00  0.00    +0.008 A 
ATOM      5  C   LIG    1       27.202 -28.787  10.967  0.00  0.00    +0.001 A 
ATOM      6  C   LIG    1       26.108 -28.424  11.748  0.00  0.00    +0.000 A 
ATOM      7  C   LIG    1       24.847 -28.948  11.462  0.00  0.00    +0.001 A 
ATOM      8  C   LIG    1       24.681 -29.841  10.397  0.00  0.00    +0.008 A 
ENDBRANCH   1   3
BRANCH   2   9
ATOM      9  C   LIG    1       25.185 -29.212   6.918  0.00  0.00    -0.017 A 
ATOM     10  C   LIG    1       24.168 -28.673   6.123  0.00  0.00    +0.012 A 
ATOM     11  C   LIG    1       24.089 -27.290   5.912  0.00  0.00    +0.046 A 
ATOM     12  C   LIG    1       25.028 -26.436   6.495  0.00  0.00    +0.121 A 
ATOM     13  C   LIG    1       26.077 -26.977   7.240  0.00  0.00    +0.046 A 
ATOM     14  C   LIG    1       26.149 -28.353   7.463  0.00  0.00    +0.012 A 
BRANCH  12  15
ATOM     15  O   LIG    1       25.032 -25.070   6.395  0.00  0.00    -0.491 OA
BRANCH  15  16
ATOM     16  C   LIG    1       23.760 -24.431   6.562  0.00  0.00    +0.244 C 
BRANCH  16  17
ATOM     17  C   LIG    1       23.996 -22.961   6.963  0.00  0.00    +0.124 C 
BRANCH  17  18
ATOM     18  N   LIG    1       23.562 -21.964   5.963  0.00  0.00    -0.305 NA
ATOM     19  C   LIG    1       24.541 -21.782   4.890  0.00  0.00    +0.104 C 
ATOM     20  C   LIG    1       23.314 -20.673   6.612  0.00  0.00    +0.104 C 
ENDBRANCH  17  18
ENDBRANCH  16  17
ENDBRANCH  15  16
ENDBRANCH  12  15
ENDBRANCH   2   9
BRANCH   2  21
ATOM     21  C   LIG    1       25.042 -31.632   6.065  0.00  0.00    -0.017 A 
ATOM     22  C   LIG    1       26.032 -31.833   5.089  0.00  0.00    +0.008 A 
ATOM     23  C   LIG    1       25.841 -32.759   4.056  0.00  0.00    +0.001 A 
ATOM     24  C   LIG    1       24.660 -33.500   3.995  0.00  0.00    +0.000 A 
ATOM     25  C   LIG    1       23.680 -33.322   4.963  0.00  0.00    +0.001 A 
ATOM     26  C   LIG    1       23.867 -32.393   5.995  0.00  0.00    +0.008 A 
ENDBRANCH   2  21
BRANCH   1  28
ATOM     27  C   LIG    1       27.344 -32.996   8.455  0.00  0.00    +0.009 C 
ATOM     28  C   LIG    1       25.920 -32.568   8.775  0.00  0.00    +0.033 C 
ENDBRANCH   1  28
TORSDOF 8
ENDMDL
MODEL 7
REMARK VINA RESULT:      -5.9      0.876      4.883
REMARK  Name = *****
REMARK                            x       y       z     vdW  Elec       q    Type
REMARK                         _______ _______ _______ _____ _____    ______ ____
ROOT
ATOM      1  C   LIG    1       24.959 -31.506   9.022  0.00  0.00    -0.032 C 
ATOM      2  C   LIG    1       25.297 -31.055   7.778  0.00  0.00    -0.007 C 
ENDROOT
BRANCH   1   3
ATOM      3  C   LIG    1       24.478 -30.608  10.111  0.00  0.00    -0.021 A 
ATOM      4  C   LIG    1       23.106 -30.388  10.287  0.00  0.00    +0.008 A 
ATOM      5  C   LIG    1       22.638 -29.585  11.334  0.00  0.00    +0.001 A 
ATOM      6  C   LIG    1       23.540 -28.995  12.216  0.00  0.00    +0.000 A 
ATOM      7  C   LIG    1       24.908 -29.209  12.052  0.00  0.00    +0.001 A 
ATOM      8  C   LIG    1       25.376 -30.009  11.003  0.00  0.00    +0.008 A 
ENDBRANCH   1   3
BRANCH   2   9
ATOM      9  C   LIG    1       25.302 -29.595   7.493  0.00  0.00    -0.017 A 
ATOM     10  C   LIG    1       26.216 -28.732   8.105  0.00  0.00    +0.012 A 
ATOM     11  C   LIG    1       26.218 -27.365   7.796  0.00  0.00    +0.046 A 
ATOM     12  C   LIG    1       25.304 -26.852   6.874  0.00  0.00    +0.121 A 
ATOM     13  C   LIG    1       24.353 -27.702   6.306  0.00  0.00    +0.046 A 
ATOM     14  C   LIG    1       24.358 -29.066   6.602  0.00  0.00    +0.012 A 
BRANCH  12  15
ATOM     15  O   LIG    1       25.235 -25.548   6.462  0.00  0.00    -0.491 OA
BRANCH  15  16
ATOM     16  C   LIG    1       23.923 -25.064   6.144  0.00  0.00    +0.244 C 
BRANCH  16  17
ATOM     17  C   LIG    1       23.783 -23.628   6.688  0.00  0.00    +0.124 C 
BRANCH  17  18
ATOM     18  N   LIG    1       24.950 -22.753   6.449  0.00  0.00    -0.305 NA
ATOM     19  C   LIG    1       25.373 -22.040   7.654  0.00  0.00    +0.104 C 
ATOM     20  C   LIG    1       24.644 -21.781   5.395  0.00  0.00    +0.104 C 
ENDBRANCH  17  18
ENDBRANCH  16  17
ENDBRANCH  15  16
ENDBRANCH  12  15
ENDBRANCH   2   9
BRANCH   2  21
ATOM     21  C   LIG    1       25.701 -32.008   6.703  0.00  0.00    -0.017 A 
ATOM     22  C   LIG    1       24.749 -32.492   5.792  0.00  0.00    +0.008 A 
ATOM     23  C   LIG    1       25.123 -33.356   4.756  0.00  0.00    +0.001 A 
ATOM     24  C   LIG    1       26.458 -33.738   4.615  0.00  0.00    +0.000 A 
ATOM     25  C   LIG    1       27.413 -33.253   5.500  0.00  0.00    +0.001 A 
ATOM     26  C   LIG    1       27.039 -32.392   6.540  0.00  0.00    +0.008 A 
ENDBRANCH   2  21
BRANCH   1  28
ATOM     27  C   LIG    1       23.893 -33.823   9.241  0.00  0.00    +0.009 C 
ATOM     28  C   LIG    1       25.111 -32.946   9.489  0.00  0.00    +0.033 C 
ENDBRANCH   1  28
TORSDOF 8
ENDMDL
MODEL 8
REMARK VINA RESULT:      -5.7      6.042     10.317
REMARK  Name = *****
REMARK                            x       y       z     vdW  Elec       q    Type
REMARK                         _______ _______ _______ _____ _____    ______ ____
ROOT
ATOM      1  C   LIG    1       24.185 -21.878   5.182  0.00  0.00    -0.032 C 
ATOM      2  C   LIG    1       24.708 -20.644   5.443  0.00  0.00    -0.007 C 
ENDROOT
BRANCH   1   3
ATOM      3  C   LIG    1       24.793 -23.143   5.685  0.00  0.00    -0.021 A 
ATOM      4  C   LIG    1       25.156 -23.262   7.033  0.00  0.00    +0.008 A 
ATOM      5  C   LIG    1       25.684 -24.461   7.529  0.00  0.00    +0.001 A 
ATOM      6  C   LIG    1       25.852 -25.552   6.681  0.00  0.00    +0.000 A 
ATOM      7  C   LIG    1       25.493 -25.446   5.337  0.00  0.00    +0.001 A 
ATOM      8  C   LIG    1       24.968 -24.247   4.840  0.00  0.00    +0.008 A 
ENDBRANCH   1   3
BRANCH   2   9
ATOM      9  C   LIG    1       26.003 -20.524   6.167  0.00  0.00    -0.017 A 
ATOM     10  C   LIG    1       27.222 -20.468   5.484  0.00  0.00    +0.012 A 
ATOM     11  C   LIG    1       28.424 -20.325   6.189  0.00  0.00    +0.046 A 
ATOM     12  C   LIG    1       28.415 -20.239   7.583  0.00  0.00    +0.121 A 
ATOM     13  C   LIG    1       27.206 -20.353   8.269  0.00  0.00    +0.046 A 
ATOM     14  C   LIG    1       26.005 -20.482   7.568  0.00  0.00    +0.012 A 
BRANCH  12  15
ATOM     15  O   LIG    1       29.517 -20.058   8.376  0.00  0.00    -0.491 OA
BRANCH  15  16
ATOM     16  C   LIG    1       30.004 -18.713   8.469  0.00  0.00    +0.244 C 
BRANCH  16  17
ATOM     17  C   LIG    1       31.500 -18.755   8.837  0.00  0.00    +0.124 C 
BRANCH  17  18
ATOM     18  N   LIG    1       31.854 -18.053  10.088  0.00  0.00    -0.305 NA
ATOM     19  C   LIG    1       30.682 -17.729  10.902  0.00  0.00    +0.104 C 
ATOM     20  C   LIG    1       32.586 -16.819   9.784  0.00  0.00    +0.104 C 
ENDBRANCH  17  18
ENDBRANCH  16  17
ENDBRANCH  15  16
ENDBRANCH  12  15
ENDBRANCH   2   9
BRANCH   2  21
ATOM     21  C   LIG    1       24.018 -19.406   4.977  0.00  0.00    -0.017 A 
ATOM     22  C   LIG    1       24.646 -18.549   4.060  0.00  0.00    +0.008 A 
ATOM     23  C   LIG    1       23.992 -17.405   3.586  0.00  0.00    +0.001 A 
ATOM     24  C   LIG    1       22.698 -17.112   4.018  0.00  0.00    +0.000 A 
ATOM     25  C   LIG    1       22.060 -17.961   4.913  0.00  0.00    +0.001 A 
ATOM     26  C   LIG    1       22.714 -19.103   5.392  0.00  0.00    +0.008 A 
ENDBRANCH   2  21
BRANCH   1  28
ATOM     27  C   LIG    1       21.635 -21.980   4.970  0.00  0.00    +0.009 C 
ATOM     28  C   LIG    1       22.984 -22.134   4.283  0.00  0.00    +0.033 C 
ENDBRANCH   1  28
TORSDOF 8
ENDMDL
MODEL 9
REMARK VINA RESULT:      -5.7      6.086     10.385
REMARK  Name = *****
REMARK                            x       y       z     vdW  Elec       q    Type
REMARK                         _______ _______ _______ _____ _____    ______ ____
ROOT
ATOM      1  C   LIG    1       24.126 -21.854   5.159  0.00  0.00    -0.032 C 
ATOM      2  C   LIG    1       24.667 -20.625   5.399  0.00  0.00    -0.007 C 
ENDROOT
BRANCH   1   3
ATOM      3  C   LIG    1       24.703 -23.119   5.700  0.00  0.00    -0.021 A 
ATOM      4  C   LIG    1       24.911 -24.216   4.854  0.00  0.00    +0.008 A 
ATOM      5  C   LIG    1       25.495 -25.393   5.338  0.00  0.00    +0.001 A 
ATOM      6  C   LIG    1       25.878 -25.482   6.674  0.00  0.00    +0.000 A 
ATOM      7  C   LIG    1       25.678 -24.395   7.526  0.00  0.00    +0.001 A 
ATOM      8  C   LIG    1       25.091 -23.220   7.042  0.00  0.00    +0.008 A 
ENDBRANCH   1   3
BRANCH   2   9
ATOM      9  C   LIG    1       25.953 -20.510   6.140  0.00  0.00    -0.017 A 
ATOM     10  C   LIG    1       27.181 -20.460   5.473  0.00  0.00    +0.012 A 
ATOM     11  C   LIG    1       28.374 -20.323   6.194  0.00  0.00    +0.046 A 
ATOM     12  C   LIG    1       28.348 -20.237   7.588  0.00  0.00    +0.121 A 
ATOM     13  C   LIG    1       27.129 -20.345   8.258  0.00  0.00    +0.046 A 
ATOM     14  C   LIG    1       25.937 -20.468   7.541  0.00  0.00    +0.012 A 
BRANCH  12  15
ATOM     15  O   LIG    1       29.439 -20.061   8.396  0.00  0.00    -0.491 OA
BRANCH  15  16
ATOM     16  C   LIG    1       30.001 -18.743   8.405  0.00  0.00    +0.244 C 
BRANCH  16  17
ATOM     17  C   LIG    1       31.481 -18.841   8.826  0.00  0.00    +0.124 C 
BRANCH  17  18
ATOM     18  N   LIG    1       31.835 -18.083  10.045  0.00  0.00    -0.305 NA
ATOM     19  C   LIG    1       30.666 -17.764  10.867  0.00  0.00    +0.104 C 
ATOM     20  C   LIG    1       32.524 -16.840   9.684  0.00  0.00    +0.104 C 
ENDBRANCH  17  18
ENDBRANCH  16  17
ENDBRANCH  15  16
ENDBRANCH  12  15
ENDBRANCH   2   9
BRANCH   2  21
ATOM     21  C   LIG    1       24.006 -19.386   4.894  0.00  0.00    -0.017 A 
ATOM     22  C   LIG    1       22.710 -19.053   5.319  0.00  0.00    +0.008 A 
ATOM     23  C   LIG    1       22.093 -17.875   4.882  0.00  0.00    +0.001 A 
ATOM     24  C   LIG    1       22.773 -17.010   4.022  0.00  0.00    +0.000 A 
ATOM     25  C   LIG    1       24.062 -17.320   3.608  0.00  0.00    +0.001 A 
ATOM     26  C   LIG    1       24.679 -18.501   4.040  0.00  0.00    +0.008 A 
ENDBRANCH   2  21
BRANCH   1  28
ATOM     27  C   LIG    1       21.578 -21.937   4.915  0.00  0.00    +0.009 C 
ATOM     28  C   LIG    1       22.934 -22.110   4.248  0.00  0.00    +0.033 C 
ENDBRANCH   1  28
TORSDOF 8
ENDMDL
