MODEL 1
REMARK VINA RESULT:      -1.2      0.000      0.000
REMARK  Name = *****
REMARK                            x       y       z     vdW  Elec       q    Type
REMARK                         _______ _______ _______ _____ _____    ______ ____
ROOT
ATOM      1  C   LIG    1       25.807 -13.704   6.165  0.00  0.00    +0.025 C 
ATOM      2  C   LIG    1       24.854 -13.503   4.969  0.00  0.00    +0.042 C 
ATOM      3  CA  LIG    1       25.615 -12.893   3.763  0.00  0.00    +0.201 C 
ATOM      4  N   LIG    1       26.125 -14.015   2.957  0.00  0.00    -0.271 N 
ATOM      5  C   LIG    1       25.293 -15.235   2.910  0.00  0.00    +0.165 C 
ATOM      6  CA  LIG    1       26.605 -16.057   2.960  0.00  0.00    +0.190 C 
ATOM      7  C   LIG    1       27.250 -14.701   3.330  0.00  0.00    +0.240 C 
ATOM      8  O   LIG    1       28.268 -14.305   3.860  0.00  0.00    -0.273 OA
ATOM      9  S   LIG    1       24.263 -15.176   4.425  0.00  0.00    -0.127 S 
ATOM     10  C   LIG    1       23.641 -12.717   5.477  0.00  0.00    +0.025 C 
ENDROOT
BRANCH   6  11
ATOM     11  N   LIG    1       26.663 -17.157   3.950  0.00  0.00    -0.300 N 
ATOM     12  H   LIG    1       26.975 -17.012   4.909  0.00  0.00    +0.150 HD
ATOM     13  C   LIG    1       26.101 -18.394   3.685  0.00  0.00    +0.235 C 
ATOM     14  O   LIG    1       25.542 -18.621   2.614  0.00  0.00    -0.274 OA
BRANCH  13  15
ATOM     15  CA  LIG    1       26.210 -19.413   4.860  0.00  0.00    +0.168 C 
BRANCH  15  16
ATOM     16  C   LIG    1       24.910 -20.127   5.212  0.00  0.00    -0.022 A 
ATOM     17  C   LIG    1       23.788 -20.108   4.368  0.00  0.00    +0.006 A 
ATOM     18  C   LIG    1       22.597 -20.742   4.740  0.00  0.00    +0.000 A 
ATOM     19  C   LIG    1       22.511 -21.420   5.954  0.00  0.00    +0.000 A 
ATOM     20  C   LIG    1       23.622 -21.477   6.790  0.00  0.00    +0.000 A 
ATOM     21  C   LIG    1       24.814 -20.846   6.419  0.00  0.00    +0.006 A 
ENDBRANCH  15  16
BRANCH  15  22
ATOM     22  N   LIG    1       27.297 -20.385   4.575  0.00  0.00    -0.316 NA
ATOM     23  H1  LIG    1       27.294 -21.082   5.322  0.00  0.00    +0.119 HD
ATOM     24  H2  LIG    1       27.042 -20.904   3.733  0.00  0.00    +0.119 HD
ENDBRANCH  15  22
ENDBRANCH  13  15
ENDBRANCH   6  11
BRANCH   3  25
ATOM     25  C   LIG    1       24.810 -11.982   2.819  0.00  0.00    +0.327 C 
ATOM     26  O   LIG    1       23.632 -11.690   2.965  0.00  0.00    -0.249 OA
BRANCH  25  27
ATOM     27  OXT LIG    1       25.550 -11.447   1.812  0.00  0.00    -0.479 OA
ATOM     28  HXT LIG    1       25.507 -10.469   1.842  0.00  0.00    +0.295 HD
ENDBRANCH  25  27
ENDBRANCH   3  25
TORSDOF 6
ENDMDL
MODEL 2
REMARK VINA RESULT:       0.2      1.462      2.022
REMARK  Name = *****
REMARK                            x       y       z     vdW  Elec       q    Type
REMARK                         _______ _______ _______ _____ _____    ______ ____
ROOT
ATOM      1  C   LIG    1       25.888 -14.082   6.124  0.00  0.00    +0.025 C 
ATOM      2  C   LIG    1       25.494 -13.562   4.726  0.00  0.00    +0.042 C 
ATOM      3  CA  LIG    1       26.730 -13.525   3.791  0.00  0.00    +0.201 C 
ATOM      4  N   LIG    1       26.798 -14.827   3.107  0.00  0.00    -0.271 N 
ATOM      5  C   LIG    1       25.512 -15.484   2.793  0.00  0.00    +0.165 C 
ATOM      6  CA  LIG    1       26.183 -16.832   3.159  0.00  0.00    +0.190 C 
ATOM      7  C   LIG    1       27.300 -15.934   3.738  0.00  0.00    +0.240 C 
ATOM      8  O   LIG    1       28.211 -16.035   4.535  0.00  0.00    -0.273 OA
ATOM      9  S   LIG    1       24.307 -14.779   3.980  0.00  0.00    -0.127 S 
ATOM     10  C   LIG    1       24.748 -12.238   4.924  0.00  0.00    +0.025 C 
ENDROOT
BRANCH   6  11
ATOM     11  N   LIG    1       25.438 -17.715   4.084  0.00  0.00    -0.300 N 
ATOM     12  H   LIG    1       24.722 -17.362   4.718  0.00  0.00    +0.150 HD
ATOM     13  C   LIG    1       25.527 -19.093   3.993  0.00  0.00    +0.235 C 
ATOM     14  O   LIG    1       26.235 -19.629   3.143  0.00  0.00    -0.274 OA
BRANCH  13  15
ATOM     15  CA  LIG    1       24.634 -19.863   5.014  0.00  0.00    +0.168 C 
BRANCH  15  16
ATOM     16  C   LIG    1       23.144 -19.858   4.694  0.00  0.00    -0.022 A 
ATOM     17  C   LIG    1       22.334 -20.994   4.855  0.00  0.00    +0.006 A 
ATOM     18  C   LIG    1       20.977 -20.964   4.514  0.00  0.00    +0.000 A 
ATOM     19  C   LIG    1       20.401 -19.796   4.023  0.00  0.00    +0.000 A 
ATOM     20  C   LIG    1       21.179 -18.650   3.886  0.00  0.00    +0.000 A 
ATOM     21  C   LIG    1       22.535 -18.676   4.228  0.00  0.00    +0.006 A 
ENDBRANCH  15  16
BRANCH  15  22
ATOM     22  N   LIG    1       25.145 -21.249   5.175  0.00  0.00    -0.316 NA
ATOM     23  H1  LIG    1       25.081 -21.490   6.165  0.00  0.00    +0.119 HD
ATOM     24  H2  LIG    1       24.491 -21.881   4.710  0.00  0.00    +0.119 HD
ENDBRANCH  15  22
ENDBRANCH  13  15
ENDBRANCH   6  11
BRANCH   3  25
ATOM     25  C   LIG    1       26.748 -12.436   2.702  0.00  0.00    +0.327 C 
ATOM     26  O   LIG    1       25.809 -12.165   1.970  0.00  0.00    -0.249 OA
BRANCH  25  27
ATOM     27  OXT LIG    1       27.905 -11.723   2.663  0.00  0.00    -0.479 OA
ATOM     28  HXT LIG    1       28.642 -12.290   2.353  0.00  0.00    +0.295 HD
ENDBRANCH  25  27
ENDBRANCH   3  25
TORSDOF 6
ENDMDL
MODEL 3
REMARK VINA RESULT:       1.5      2.263      6.987
REMARK  Name = *****
REMARK                            x       y       z     vdW  Elec       q    Type
REMARK                         _______ _______ _______ _____ _____    ______ ____
ROOT
ATOM      1  C   LIG    1       22.256 -18.648   2.156  0.00  0.00    +0.025 C 
ATOM      2  C   LIG    1       22.296 -18.904   3.676  0.00  0.00    +0.042 C 
ATOM      3  CA  LIG    1       23.121 -20.177   3.993  0.00  0.00    +0.201 C 
ATOM      4  N   LIG    1       24.516 -19.754   4.195  0.00  0.00    -0.271 N 
ATOM      5  C   LIG    1       24.729 -18.426   4.809  0.00  0.00    +0.165 C 
ATOM      6  CA  LIG    1       25.922 -18.238   3.840  0.00  0.00    +0.190 C 
ATOM      7  C   LIG    1       25.334 -19.480   3.131  0.00  0.00    +0.240 C 
ATOM      8  O   LIG    1       25.399 -20.005   2.038  0.00  0.00    -0.273 OA
ATOM      9  S   LIG    1       23.193 -17.485   4.469  0.00  0.00    -0.127 S 
ATOM     10  C   LIG    1       20.849 -18.885   4.180  0.00  0.00    +0.025 C 
ENDROOT
BRANCH   6  11
ATOM     11  N   LIG    1       25.976 -16.960   3.093  0.00  0.00    -0.300 N 
ATOM     12  H   LIG    1       25.280 -16.709   2.392  0.00  0.00    +0.150 HD
ATOM     13  C   LIG    1       26.852 -15.951   3.454  0.00  0.00    +0.235 C 
ATOM     14  O   LIG    1       27.621 -16.088   4.404  0.00  0.00    -0.274 OA
BRANCH  13  15
ATOM     15  CA  LIG    1       26.734 -14.659   2.590  0.00  0.00    +0.168 C 
BRANCH  15  16
ATOM     16  C   LIG    1       25.650 -13.686   3.038  0.00  0.00    -0.022 A 
ATOM     17  C   LIG    1       25.054 -12.765   2.161  0.00  0.00    +0.006 A 
ATOM     18  C   LIG    1       24.089 -11.859   2.615  0.00  0.00    +0.000 A 
ATOM     19  C   LIG    1       23.689 -11.869   3.949  0.00  0.00    +0.000 A 
ATOM     20  C   LIG    1       24.243 -12.795   4.827  0.00  0.00    +0.000 A 
ATOM     21  C   LIG    1       25.207 -13.702   4.375  0.00  0.00    +0.006 A 
ENDBRANCH  15  16
BRANCH  15  22
ATOM     22  N   LIG    1       28.058 -13.990   2.512  0.00  0.00    -0.316 NA
ATOM     23  H1  LIG    1       28.732 -14.677   2.170  0.00  0.00    +0.119 HD
ATOM     24  H2  LIG    1       28.011 -13.282   1.778  0.00  0.00    +0.119 HD
ENDBRANCH  15  22
ENDBRANCH  13  15
ENDBRANCH   6  11
BRANCH   3  25
ATOM     25  C   LIG    1       22.705 -20.986   5.236  0.00  0.00    +0.327 C 
ATOM     26  O   LIG    1       23.353 -21.063   6.268  0.00  0.00    -0.249 OA
BRANCH  25  27
ATOM     27  OXT LIG    1       21.483 -21.572   5.122  0.00  0.00    -0.479 OA
ATOM     28  HXT LIG    1       21.133 -21.798   6.009  0.00  0.00    +0.295 HD
ENDBRANCH  25  27
ENDBRANCH   3  25
TORSDOF 6
ENDMDL
MODEL 4
REMARK VINA RESULT:       1.7      2.515      3.814
REMARK  Name = *****
REMARK                            x       y       z     vdW  Elec       q    Type
REMARK                         _______ _______ _______ _____ _____    ______ ____
ROOT
ATOM      1  C   LIG    1       26.678 -14.362   1.858  0.00  0.00    +0.025 C 
ATOM      2  C   LIG    1       27.167 -14.156   3.306  0.00  0.00    +0.042 C 
ATOM      3  CA  LIG    1       26.635 -12.816   3.876  0.00  0.00    +0.201 C 
ATOM      4  N   LIG    1       25.346 -13.100   4.526  0.00  0.00    -0.271 N 
ATOM      5  C   LIG    1       25.202 -14.418   5.177  0.00  0.00    +0.165 C 
ATOM      6  CA  LIG    1       23.744 -14.449   4.655  0.00  0.00    +0.190 C 
ATOM      7  C   LIG    1       24.199 -13.250   3.791  0.00  0.00    +0.240 C 
ATOM      8  O   LIG    1       23.838 -12.683   2.780  0.00  0.00    -0.273 OA
ATOM      9  S   LIG    1       26.428 -15.501   4.352  0.00  0.00    -0.127 S 
ATOM     10  C   LIG    1       28.688 -14.342   3.306  0.00  0.00    +0.025 C 
ENDROOT
BRANCH   6  11
ATOM     11  N   LIG    1       23.309 -15.687   3.969  0.00  0.00    -0.300 N 
ATOM     12  H   LIG    1       23.742 -16.012   3.105  0.00  0.00    +0.150 HD
ATOM     13  C   LIG    1       22.436 -16.576   4.572  0.00  0.00    +0.235 C 
ATOM     14  O   LIG    1       21.987 -16.360   5.696  0.00  0.00    -0.274 OA
BRANCH  13  15
ATOM     15  CA  LIG    1       22.131 -17.849   3.725  0.00  0.00    +0.168 C 
BRANCH  15  16
ATOM     16  C   LIG    1       22.902 -19.096   4.142  0.00  0.00    -0.022 A 
ATOM     17  C   LIG    1       22.355 -20.071   4.991  0.00  0.00    +0.006 A 
ATOM     18  C   LIG    1       23.106 -21.185   5.385  0.00  0.00    +0.000 A 
ATOM     19  C   LIG    1       24.409 -21.352   4.924  0.00  0.00    +0.000 A 
ATOM     20  C   LIG    1       24.959 -20.413   4.056  0.00  0.00    +0.000 A 
ATOM     21  C   LIG    1       24.210 -19.301   3.660  0.00  0.00    +0.006 A 
ENDBRANCH  15  16
BRANCH  15  22
ATOM     22  N   LIG    1       20.666 -18.100   3.717  0.00  0.00    -0.316 NA
ATOM     23  H1  LIG    1       20.201 -17.228   3.973  0.00  0.00    +0.119 HD
ATOM     24  H2  LIG    1       20.383 -18.274   2.751  0.00  0.00    +0.119 HD
ENDBRANCH  15  22
ENDBRANCH  13  15
ENDBRANCH   6  11
BRANCH   3  25
ATOM     25  C   LIG    1       27.520 -12.099   4.911  0.00  0.00    +0.327 C 
ATOM     26  O   LIG    1       28.700 -11.823   4.751  0.00  0.00    -0.249 OA
BRANCH  25  27
ATOM     27  OXT LIG    1       26.851 -11.716   6.031  0.00  0.00    -0.479 OA
ATOM     28  HXT LIG    1       27.386 -11.075   6.543  0.00  0.00    +0.295 HD
ENDBRANCH  25  27
ENDBRANCH   3  25
TORSDOF 6
ENDMDL
MODEL 5
REMARK VINA RESULT:       1.7      1.584      2.169
REMARK  Name = *****
REMARK                            x       y       z     vdW  Elec       q    Type
REMARK                         _______ _______ _______ _____ _____    ______ ____
ROOT
ATOM      1  C   LIG    1       24.315 -14.508   5.679  0.00  0.00    +0.025 C 
ATOM      2  C   LIG    1       24.303 -14.381   4.142  0.00  0.00    +0.042 C 
ATOM      3  CA  LIG    1       25.061 -13.105   3.694  0.00  0.00    +0.201 C 
ATOM      4  N   LIG    1       26.468 -13.485   3.486  0.00  0.00    -0.271 N 
ATOM      5  C   LIG    1       26.724 -14.849   2.979  0.00  0.00    +0.165 C 
ATOM      6  CA  LIG    1       27.950 -14.904   3.925  0.00  0.00    +0.190 C 
ATOM      7  C   LIG    1       27.326 -13.632   4.544  0.00  0.00    +0.240 C 
ATOM      8  O   LIG    1       27.396 -13.013   5.587  0.00  0.00    -0.273 OA
ATOM      9  S   LIG    1       25.242 -15.822   3.444  0.00  0.00    -0.127 S 
ATOM     10  C   LIG    1       22.845 -14.504   3.685  0.00  0.00    +0.025 C 
ENDROOT
BRANCH   6  11
ATOM     11  N   LIG    1       28.080 -16.110   4.774  0.00  0.00    -0.300 N 
ATOM     12  H   LIG    1       28.251 -16.054   5.777  0.00  0.00    +0.150 HD
ATOM     13  C   LIG    1       27.773 -17.369   4.289  0.00  0.00    +0.235 C 
ATOM     14  O   LIG    1       27.387 -17.527   3.132  0.00  0.00    -0.274 OA
BRANCH  13  15
ATOM     15  CA  LIG    1       27.919 -18.514   5.337  0.00  0.00    +0.168 C 
BRANCH  15  16
ATOM     16  C   LIG    1       26.800 -19.548   5.317  0.00  0.00    -0.022 A 
ATOM     17  C   LIG    1       26.631 -20.497   6.338  0.00  0.00    +0.006 A 
ATOM     18  C   LIG    1       25.616 -21.457   6.268  0.00  0.00    +0.000 A 
ATOM     19  C   LIG    1       24.740 -21.476   5.185  0.00  0.00    +0.000 A 
ATOM     20  C   LIG    1       24.870 -20.524   4.178  0.00  0.00    +0.000 A 
ATOM     21  C   LIG    1       25.883 -19.562   4.247  0.00  0.00    +0.006 A 
ENDBRANCH  15  16
BRANCH  15  22
ATOM     22  N   LIG    1       29.250 -19.158   5.187  0.00  0.00    -0.316 NA
ATOM     23  H1  LIG    1       29.199 -20.079   5.626  0.00  0.00    +0.119 HD
ATOM     24  H2  LIG    1       29.396 -19.349   4.194  0.00  0.00    +0.119 HD
ENDBRANCH  15  22
ENDBRANCH  13  15
ENDBRANCH   6  11
BRANCH   3  25
ATOM     25  C   LIG    1       24.576 -12.424   2.401  0.00  0.00    +0.327 C 
ATOM     26  O   LIG    1       25.101 -11.448   1.887  0.00  0.00    -0.249 OA
BRANCH  25  27
ATOM     27  OXT LIG    1       23.525 -13.054   1.813  0.00  0.00    -0.479 OA
ATOM     28  HXT LIG    1       22.720 -12.952   2.361  0.00  0.00    +0.295 HD
ENDBRANCH  25  27
ENDBRANCH   3  25
TORSDOF 6
ENDMDL
