MODEL 1
REMARK VINA RESULT:       2.4      0.000      0.000
REMARK  Name = *****
REMARK                            x       y       z     vdW  Elec       q    Type
REMARK                         _______ _______ _______ _____ _____    ______ ____
ROOT
ATOM      1  C   LIG    1       28.202 -19.603   7.008  0.00  0.00    +0.008 C 
ATOM      2  C   LIG    1       28.255 -19.600   5.475  0.00  0.00    -0.008 C 
ATOM      3  C   LIG    1       26.877 -19.479   4.755  0.00  0.00    +0.032 C 
ATOM      4  C   LIG    1       26.422 -18.133   4.003  0.00  0.00    +0.161 C 
ATOM      5  C   LIG    1       24.988 -17.462   4.184  0.00  0.00    +0.292 C 
ATOM      6  O   LIG    1       23.883 -18.241   3.707  0.00  0.00    -0.314 OA
ATOM      7  C   LIG    1       24.208 -19.605   3.589  0.00  0.00    +0.203 C 
ATOM      8  O   LIG    1       25.331 -19.833   2.710  0.00  0.00    -0.199 OA
ATOM      9  C   LIG    1       24.378 -20.095   5.034  0.00  0.00    +0.068 C 
ATOM     10  C   LIG    1       23.020 -20.364   2.994  0.00  0.00    +0.077 C 
ATOM     11  O   LIG    1       24.782 -16.258   3.418  0.00  0.00    -0.320 OA
ATOM     12  C   LIG    1       25.800 -15.298   3.392  0.00  0.00    +0.253 C 
ATOM     13  C   LIG    1       26.923 -15.601   4.370  0.00  0.00    +0.048 C 
ATOM     14  C   LIG    1       27.911 -14.431   4.397  0.00  0.00    +0.013 C 
ATOM     15  C   LIG    1       27.534 -16.997   4.028  0.00  0.00    +0.037 C 
ATOM     16  C   LIG    1       28.686 -17.215   5.020  0.00  0.00    +0.007 C 
ATOM     17  O   LIG    1       26.213 -18.607   2.622  0.00  0.00    -0.220 OA
ATOM     18  C   LIG    1       25.796 -20.251   5.515  0.00  0.00    +0.012 C 
ATOM     19  C   LIG    1       29.264 -18.601   4.949  0.00  0.00    +0.004 C 
ENDROOT
BRANCH  12  20
ATOM     20  O   LIG    1       26.304 -15.224   2.074  0.00  0.00    -0.367 OA
ATOM     21  H   LIG    1       25.947 -14.369   1.730  0.00  0.00    +0.212 HD
ENDBRANCH  12  20
TORSDOF 1
ENDMDL
MODEL 2
REMARK VINA RESULT:       2.9      2.139      5.961
REMARK  Name = *****
REMARK                            x       y       z     vdW  Elec       q    Type
REMARK                         _______ _______ _______ _____ _____    ______ ____
ROOT
ATOM      1  C   LIG    1       23.256 -12.935   5.567  0.00  0.00    +0.008 C 
ATOM      2  C   LIG    1       23.680 -13.205   4.118  0.00  0.00    -0.008 C 
ATOM      3  C   LIG    1       25.191 -13.523   3.908  0.00  0.00    +0.032 C 
ATOM      4  C   LIG    1       25.711 -15.002   3.552  0.00  0.00    +0.161 C 
ATOM      5  C   LIG    1       26.939 -15.707   4.284  0.00  0.00    +0.292 C 
ATOM      6  O   LIG    1       28.213 -15.084   4.080  0.00  0.00    -0.314 OA
ATOM      7  C   LIG    1       28.088 -13.746   3.660  0.00  0.00    +0.203 C 
ATOM      8  O   LIG    1       27.323 -13.616   2.443  0.00  0.00    -0.199 OA
ATOM      9  C   LIG    1       27.533 -13.002   4.883  0.00  0.00    +0.068 C 
ATOM     10  C   LIG    1       29.475 -13.167   3.375  0.00  0.00    +0.077 C 
ATOM     11  O   LIG    1       27.242 -17.035   3.815  0.00  0.00    -0.320 OA
ATOM     12  C   LIG    1       26.186 -17.930   3.605  0.00  0.00    +0.253 C 
ATOM     13  C   LIG    1       24.855 -17.400   4.111  0.00  0.00    +0.048 C 
ATOM     14  C   LIG    1       23.788 -18.494   3.992  0.00  0.00    +0.013 C 
ATOM     15  C   LIG    1       24.531 -16.055   3.386  0.00  0.00    +0.037 C 
ATOM     16  C   LIG    1       23.159 -15.605   3.909  0.00  0.00    +0.007 C 
ATOM     17  O   LIG    1       26.386 -14.790   2.258  0.00  0.00    -0.220 OA
ATOM     18  C   LIG    1       26.061 -12.688   4.852  0.00  0.00    +0.012 C 
ATOM     19  C   LIG    1       22.782 -14.225   3.450  0.00  0.00    +0.004 C 
ENDROOT
BRANCH  12  20
ATOM     20  O   LIG    1       26.110 -18.207   2.222  0.00  0.00    -0.367 OA
ATOM     21  H   LIG    1       25.891 -17.333   1.815  0.00  0.00    +0.212 HD
ENDBRANCH  12  20
TORSDOF 1
ENDMDL
MODEL 3
REMARK VINA RESULT:       3.8      2.650      4.923
REMARK  Name = *****
REMARK                            x       y       z     vdW  Elec       q    Type
REMARK                         _______ _______ _______ _____ _____    ______ ____
ROOT
ATOM      1  C   LIG    1       23.143 -17.982   4.834  0.00  0.00    +0.008 C 
ATOM      2  C   LIG    1       23.651 -17.272   3.574  0.00  0.00    -0.008 C 
ATOM      3  C   LIG    1       23.912 -15.742   3.724  0.00  0.00    +0.032 C 
ATOM      4  C   LIG    1       25.398 -15.129   3.769  0.00  0.00    +0.161 C 
ATOM      5  C   LIG    1       25.879 -14.057   4.846  0.00  0.00    +0.292 C 
ATOM      6  O   LIG    1       25.229 -12.782   4.772  0.00  0.00    -0.314 OA
ATOM      7  C   LIG    1       24.003 -12.850   4.085  0.00  0.00    +0.203 C 
ATOM      8  O   LIG    1       24.149 -13.359   2.741  0.00  0.00    -0.199 OA
ATOM      9  C   LIG    1       23.079 -13.655   5.010  0.00  0.00    +0.068 C 
ATOM     10  C   LIG    1       23.405 -11.447   3.964  0.00  0.00    +0.077 C 
ATOM     11  O   LIG    1       27.251 -13.637   4.710  0.00  0.00    -0.320 OA
ATOM     12  C   LIG    1       28.230 -14.610   4.480  0.00  0.00    +0.253 C 
ATOM     13  C   LIG    1       27.696 -16.027   4.609  0.00  0.00    +0.048 C 
ATOM     14  C   LIG    1       28.855 -17.024   4.502  0.00  0.00    +0.013 C 
ATOM     15  C   LIG    1       26.532 -16.228   3.587  0.00  0.00    +0.037 C 
ATOM     16  C   LIG    1       26.076 -17.687   3.739  0.00  0.00    +0.007 C 
ATOM     17  O   LIG    1       25.390 -14.214   2.612  0.00  0.00    -0.220 OA
ATOM     18  C   LIG    1       22.866 -15.097   4.637  0.00  0.00    +0.012 C 
ATOM     19  C   LIG    1       24.830 -17.995   2.957  0.00  0.00    +0.004 C 
ENDROOT
BRANCH  12  20
ATOM     20  O   LIG    1       28.764 -14.402   3.188  0.00  0.00    -0.367 OA
ATOM     21  H   LIG    1       29.050 -15.303   2.901  0.00  0.00    +0.212 HD
ENDBRANCH  12  20
TORSDOF 1
ENDMDL
MODEL 4
REMARK VINA RESULT:       4.1      1.697      4.567
REMARK  Name = *****
REMARK                            x       y       z     vdW  Elec       q    Type
REMARK                         _______ _______ _______ _____ _____    ______ ____
ROOT
ATOM      1  C   LIG    1       22.654 -18.554   4.890  0.00  0.00    +0.008 C 
ATOM      2  C   LIG    1       23.615 -18.566   3.695  0.00  0.00    -0.008 C 
ATOM      3  C   LIG    1       24.575 -17.341   3.593  0.00  0.00    +0.032 C 
ATOM      4  C   LIG    1       26.147 -17.461   3.909  0.00  0.00    +0.161 C 
ATOM      5  C   LIG    1       26.943 -16.434   4.833  0.00  0.00    +0.292 C 
ATOM      6  O   LIG    1       27.027 -15.095   4.328  0.00  0.00    -0.314 OA
ATOM      7  C   LIG    1       26.035 -14.828   3.366  0.00  0.00    +0.203 C 
ATOM      8  O   LIG    1       26.093 -15.736   2.244  0.00  0.00    -0.199 OA
ATOM      9  C   LIG    1       24.717 -14.817   4.153  0.00  0.00    +0.068 C 
ATOM     10  C   LIG    1       26.233 -13.419   2.805  0.00  0.00    +0.077 C 
ATOM     11  O   LIG    1       28.346 -16.722   4.988  0.00  0.00    -0.320 OA
ATOM     12  C   LIG    1       28.737 -18.044   5.233  0.00  0.00    +0.253 C 
ATOM     13  C   LIG    1       27.560 -18.967   5.500  0.00  0.00    +0.048 C 
ATOM     14  C   LIG    1       28.075 -20.349   5.914  0.00  0.00    +0.013 C 
ATOM     15  C   LIG    1       26.601 -18.942   4.267  0.00  0.00    +0.037 C 
ATOM     16  C   LIG    1       25.467 -19.927   4.586  0.00  0.00    +0.007 C 
ATOM     17  O   LIG    1       26.752 -17.041   2.631  0.00  0.00    -0.220 OA
ATOM     18  C   LIG    1       23.871 -16.058   4.040  0.00  0.00    +0.012 C 
ATOM     19  C   LIG    1       24.353 -19.882   3.578  0.00  0.00    +0.004 C 
ENDROOT
BRANCH  12  20
ATOM     20  O   LIG    1       29.475 -18.500   4.118  0.00  0.00    -0.367 OA
ATOM     21  H   LIG    1       29.568 -19.471   4.275  0.00  0.00    +0.212 HD
ENDBRANCH  12  20
TORSDOF 1
ENDMDL
MODEL 5
REMARK VINA RESULT:       4.7      2.039      2.794
REMARK  Name = *****
REMARK                            x       y       z     vdW  Elec       q    Type
REMARK                         _______ _______ _______ _____ _____    ______ ____
ROOT
ATOM      1  C   LIG    1       27.581 -19.103   5.194  0.00  0.00    +0.008 C 
ATOM      2  C   LIG    1       26.678 -19.145   3.956  0.00  0.00    -0.008 C 
ATOM      3  C   LIG    1       25.180 -19.480   4.227  0.00  0.00    +0.032 C 
ATOM      4  C   LIG    1       24.022 -18.369   4.118  0.00  0.00    +0.161 C 
ATOM      5  C   LIG    1       22.890 -18.162   5.220  0.00  0.00    +0.292 C 
ATOM      6  O   LIG    1       21.983 -19.260   5.379  0.00  0.00    -0.314 OA
ATOM      7  C   LIG    1       22.513 -20.462   4.877  0.00  0.00    +0.203 C 
ATOM      8  O   LIG    1       22.868 -20.371   3.480  0.00  0.00    -0.199 OA
ATOM      9  C   LIG    1       23.656 -20.819   5.837  0.00  0.00    +0.068 C 
ATOM     10  C   LIG    1       21.466 -21.572   4.995  0.00  0.00    +0.077 C 
ATOM     11  O   LIG    1       21.949 -17.110   4.929  0.00  0.00    -0.320 OA
ATOM     12  C   LIG    1       22.435 -15.886   4.455  0.00  0.00    +0.253 C 
ATOM     13  C   LIG    1       23.950 -15.793   4.509  0.00  0.00    +0.048 C 
ATOM     14  C   LIG    1       24.391 -14.376   4.127  0.00  0.00    +0.013 C 
ATOM     15  C   LIG    1       24.564 -16.947   3.655  0.00  0.00    +0.037 C 
ATOM     16  C   LIG    1       26.088 -16.763   3.717  0.00  0.00    +0.007 C 
ATOM     17  O   LIG    1       23.145 -18.939   3.079  0.00  0.00    -0.220 OA
ATOM     18  C   LIG    1       25.047 -20.515   5.348  0.00  0.00    +0.012 C 
ATOM     19  C   LIG    1       26.841 -17.907   3.099  0.00  0.00    +0.004 C 
ENDROOT
BRANCH  12  20
ATOM     20  O   LIG    1       21.980 -15.715   3.128  0.00  0.00    -0.367 OA
ATOM     21  H   LIG    1       21.039 -16.017   3.158  0.00  0.00    +0.212 HD
ENDBRANCH  12  20
TORSDOF 1
ENDMDL
