MODEL 1
REMARK VINA RESULT:      -6.4      0.000      0.000
REMARK  Name = *****
REMARK                            x       y       z     vdW  Elec       q    Type
REMARK                         _______ _______ _______ _____ _____    ______ ____
ROOT
ATOM      1  C   LIG    1       24.804 -13.662   3.060  0.00  0.00    +0.165 C 
ATOM      2  O   LIG    1       24.813 -12.582   2.481  0.00  0.00    -0.294 OA
ENDROOT
BRANCH   1   3
ATOM      3  C   LIG    1       25.900 -14.633   2.847  0.00  0.00    +0.223 C 
ATOM      4  C   LIG    1       27.306 -14.506   3.390  0.00  0.00    +0.240 C 
ATOM      5  O   LIG    1       26.972 -14.116   2.043  0.00  0.00    -0.350 OA
BRANCH   4   6
ATOM      6  C   LIG    1       27.793 -13.420   4.268  0.00  0.00    +0.242 C 
ATOM      7  O   LIG    1       28.720 -12.687   3.910  0.00  0.00    -0.273 OA
ATOM      8  N   LIG    1       27.237 -13.326   5.498  0.00  0.00    -0.327 N 
ATOM      9  H   LIG    1       26.446 -13.904   5.800  0.00  0.00    +0.145 HD
ATOM     10  H   LIG    1       27.525 -12.585   6.122  0.00  0.00    +0.145 HD
ENDBRANCH   4   6
ENDBRANCH   1   3
BRANCH   1  11
ATOM     11  C   LIG    1       23.756 -14.056   4.075  0.00  0.00    +0.081 C 
BRANCH  11  12
ATOM     12  C   LIG    1       23.811 -15.557   4.359  0.00  0.00    +0.034 C 
BRANCH  12  14
ATOM     13  C   LIG    1       22.029 -17.370   4.652  0.00  0.00    -0.027 C 
ATOM     14  C   LIG    1       22.448 -16.094   4.705  0.00  0.00    -0.030 C 
BRANCH  13  15
ATOM     15  C   LIG    1       22.828 -18.582   4.254  0.00  0.00    +0.053 C 
BRANCH  15  18
ATOM     16  C   LIG    1       23.193 -21.367   6.983  0.00  0.00    +0.035 C 
ATOM     17  C   LIG    1       23.452 -20.232   6.045  0.00  0.00    -0.034 C 
ATOM     18  C   LIG    1       22.558 -19.749   5.167  0.00  0.00    -0.027 C 
ENDBRANCH  15  18
ENDBRANCH  13  15
ENDBRANCH  12  14
ENDBRANCH  11  12
ENDBRANCH   1  11
TORSDOF 7
ENDMDL
MODEL 2
REMARK VINA RESULT:      -6.0      1.360      1.753
REMARK  Name = *****
REMARK                            x       y       z     vdW  Elec       q    Type
REMARK                         _______ _______ _______ _____ _____    ______ ____
ROOT
ATOM      1  C   LIG    1       24.021 -13.654   3.858  0.00  0.00    +0.165 C 
ATOM      2  O   LIG    1       23.504 -13.325   2.796  0.00  0.00    -0.294 OA
ENDROOT
BRANCH   1   3
ATOM      3  C   LIG    1       25.234 -12.962   4.346  0.00  0.00    +0.223 C 
ATOM      4  C   LIG    1       26.659 -13.369   4.048  0.00  0.00    +0.240 C 
ATOM      5  O   LIG    1       26.002 -13.743   5.275  0.00  0.00    -0.350 OA
BRANCH   4   6
ATOM      6  C   LIG    1       27.068 -14.491   3.174  0.00  0.00    +0.242 C 
ATOM      7  O   LIG    1       26.872 -14.447   1.956  0.00  0.00    -0.273 OA
ATOM      8  N   LIG    1       27.581 -15.588   3.780  0.00  0.00    -0.327 N 
ATOM      9  H   LIG    1       27.780 -15.630   4.785  0.00  0.00    +0.145 HD
ATOM     10  H   LIG    1       27.893 -16.368   3.220  0.00  0.00    +0.145 HD
ENDBRANCH   4   6
ENDBRANCH   1   3
BRANCH   1  11
ATOM     11  C   LIG    1       23.440 -14.702   4.779  0.00  0.00    +0.081 C 
BRANCH  11  12
ATOM     12  C   LIG    1       23.442 -16.076   4.109  0.00  0.00    +0.034 C 
BRANCH  12  14
ATOM     13  C   LIG    1       22.111 -18.235   4.449  0.00  0.00    -0.027 C 
ATOM     14  C   LIG    1       22.273 -16.906   4.569  0.00  0.00    -0.030 C 
BRANCH  13  15
ATOM     15  C   LIG    1       23.069 -19.225   3.844  0.00  0.00    +0.053 C 
BRANCH  15  18
ATOM     16  C   LIG    1       23.318 -21.443   7.062  0.00  0.00    +0.035 C 
ATOM     17  C   LIG    1       23.020 -20.343   6.096  0.00  0.00    -0.034 C 
ATOM     18  C   LIG    1       23.409 -20.329   4.810  0.00  0.00    -0.027 C 
ENDBRANCH  15  18
ENDBRANCH  13  15
ENDBRANCH  12  14
ENDBRANCH  11  12
ENDBRANCH   1  11
TORSDOF 7
ENDMDL
MODEL 3
REMARK VINA RESULT:      -6.0      1.931      3.021
REMARK  Name = *****
REMARK                            x       y       z     vdW  Elec       q    Type
REMARK                         _______ _______ _______ _____ _____    ______ ____
ROOT
ATOM      1  C   LIG    1       26.972 -14.971   3.382  0.00  0.00    +0.165 C 
ATOM      2  O   LIG    1       27.072 -14.489   2.259  0.00  0.00    -0.294 OA
ENDROOT
BRANCH   1   3
ATOM      3  C   LIG    1       26.762 -14.096   4.556  0.00  0.00    +0.223 C 
ATOM      4  C   LIG    1       25.496 -13.330   4.867  0.00  0.00    +0.240 C 
ATOM      5  O   LIG    1       26.621 -12.708   4.214  0.00  0.00    -0.350 OA
BRANCH   4   6
ATOM      6  C   LIG    1       24.246 -13.379   4.078  0.00  0.00    +0.242 C 
ATOM      7  O   LIG    1       23.582 -14.418   4.010  0.00  0.00    -0.273 OA
ATOM      8  N   LIG    1       23.918 -12.269   3.375  0.00  0.00    -0.327 N 
ATOM      9  H   LIG    1       24.438 -11.389   3.444  0.00  0.00    +0.145 HD
ATOM     10  H   LIG    1       23.061 -12.251   2.840  0.00  0.00    +0.145 HD
ENDBRANCH   4   6
ENDBRANCH   1   3
BRANCH   1  11
ATOM     11  C   LIG    1       26.969 -16.458   3.653  0.00  0.00    +0.081 C 
BRANCH  11  12
ATOM     12  C   LIG    1       25.609 -17.069   3.318  0.00  0.00    +0.034 C 
BRANCH  12  14
ATOM     13  C   LIG    1       24.675 -19.427   3.659  0.00  0.00    -0.027 C 
ATOM     14  C   LIG    1       25.666 -18.573   3.352  0.00  0.00    -0.030 C 
BRANCH  13  15
ATOM     15  C   LIG    1       23.254 -19.090   4.023  0.00  0.00    +0.053 C 
BRANCH  15  18
ATOM     16  C   LIG    1       23.101 -21.555   7.062  0.00  0.00    +0.035 C 
ATOM     17  C   LIG    1       23.515 -20.820   5.828  0.00  0.00    -0.034 C 
ATOM     18  C   LIG    1       22.802 -19.841   5.248  0.00  0.00    -0.027 C 
ENDBRANCH  15  18
ENDBRANCH  13  15
ENDBRANCH  12  14
ENDBRANCH  11  12
ENDBRANCH   1  11
TORSDOF 7
ENDMDL
MODEL 4
REMARK VINA RESULT:      -5.8      3.766      6.371
REMARK  Name = *****
REMARK                            x       y       z     vdW  Elec       q    Type
REMARK                         _______ _______ _______ _____ _____    ______ ____
ROOT
ATOM      1  C   LIG    1       23.486 -19.412   4.234  0.00  0.00    +0.165 C 
ATOM      2  O   LIG    1       24.302 -18.993   3.422  0.00  0.00    -0.294 OA
ENDROOT
BRANCH   1   3
ATOM      3  C   LIG    1       23.614 -20.779   4.786  0.00  0.00    +0.223 C 
ATOM      4  C   LIG    1       24.816 -21.320   5.526  0.00  0.00    +0.240 C 
ATOM      5  O   LIG    1       24.610 -21.571   4.121  0.00  0.00    -0.350 OA
BRANCH   4   6
ATOM      6  C   LIG    1       26.033 -20.552   5.865  0.00  0.00    +0.242 C 
ATOM      7  O   LIG    1       26.286 -20.255   7.037  0.00  0.00    -0.273 OA
ATOM      8  N   LIG    1       26.799 -20.124   4.834  0.00  0.00    -0.327 N 
ATOM      9  H   LIG    1       26.623 -20.387   3.860  0.00  0.00    +0.145 HD
ATOM     10  H   LIG    1       27.651 -19.614   5.022  0.00  0.00    +0.145 HD
ENDBRANCH   4   6
ENDBRANCH   1   3
BRANCH   1  11
ATOM     11  C   LIG    1       22.360 -18.573   4.794  0.00  0.00    +0.081 C 
BRANCH  11  12
ATOM     12  C   LIG    1       22.283 -17.223   4.082  0.00  0.00    +0.034 C 
BRANCH  12  14
ATOM     13  C   LIG    1       23.110 -14.950   4.917  0.00  0.00    -0.027 C 
ATOM     14  C   LIG    1       22.406 -16.086   5.060  0.00  0.00    -0.030 C 
BRANCH  13  15
ATOM     15  C   LIG    1       23.932 -14.525   3.731  0.00  0.00    +0.053 C 
BRANCH  15  18
ATOM     16  C   LIG    1       27.819 -14.085   3.927  0.00  0.00    +0.035 C 
ATOM     17  C   LIG    1       26.441 -14.528   3.557  0.00  0.00    -0.034 C 
ATOM     18  C   LIG    1       25.314 -14.089   4.143  0.00  0.00    -0.027 C 
ENDBRANCH  15  18
ENDBRANCH  13  15
ENDBRANCH  12  14
ENDBRANCH  11  12
ENDBRANCH   1  11
TORSDOF 7
ENDMDL
MODEL 5
REMARK VINA RESULT:      -5.7      1.104      1.191
REMARK  Name = *****
REMARK                            x       y       z     vdW  Elec       q    Type
REMARK                         _______ _______ _______ _____ _____    ______ ____
ROOT
ATOM      1  C   LIG    1       24.422 -13.332   3.682  0.00  0.00    +0.165 C 
ATOM      2  O   LIG    1       24.701 -12.584   4.613  0.00  0.00    -0.294 OA
ENDROOT
BRANCH   1   3
ATOM      3  C   LIG    1       25.305 -13.413   2.497  0.00  0.00    +0.223 C 
ATOM      4  C   LIG    1       26.769 -13.792   2.515  0.00  0.00    +0.240 C 
ATOM      5  O   LIG    1       26.339 -12.416   2.489  0.00  0.00    -0.350 OA
BRANCH   4   6
ATOM      6  C   LIG    1       27.537 -14.198   3.712  0.00  0.00    +0.242 C 
ATOM      7  O   LIG    1       28.114 -13.357   4.407  0.00  0.00    -0.273 OA
ATOM      8  N   LIG    1       27.643 -15.526   3.954  0.00  0.00    -0.327 N 
ATOM      9  H   LIG    1       27.145 -16.236   3.407  0.00  0.00    +0.145 HD
ATOM     10  H   LIG    1       28.140 -15.847   4.773  0.00  0.00    +0.145 HD
ENDBRANCH   4   6
ENDBRANCH   1   3
BRANCH   1  11
ATOM     11  C   LIG    1       23.239 -14.272   3.693  0.00  0.00    +0.081 C 
BRANCH  11  12
ATOM     12  C   LIG    1       23.586 -15.574   4.414  0.00  0.00    +0.034 C 
BRANCH  12  14
ATOM     13  C   LIG    1       22.106 -17.642   4.700  0.00  0.00    -0.027 C 
ATOM     14  C   LIG    1       22.342 -16.324   4.809  0.00  0.00    -0.030 C 
BRANCH  13  15
ATOM     15  C   LIG    1       23.039 -18.700   4.175  0.00  0.00    +0.053 C 
BRANCH  15  18
ATOM     16  C   LIG    1       23.212 -21.571   6.832  0.00  0.00    +0.035 C 
ATOM     17  C   LIG    1       23.409 -20.292   6.085  0.00  0.00    -0.034 C 
ATOM     18  C   LIG    1       22.854 -20.010   4.895  0.00  0.00    -0.027 C 
ENDBRANCH  15  18
ENDBRANCH  13  15
ENDBRANCH  12  14
ENDBRANCH  11  12
ENDBRANCH   1  11
TORSDOF 7
ENDMDL
MODEL 6
REMARK VINA RESULT:      -5.6      4.318      7.156
REMARK  Name = *****
REMARK                            x       y       z     vdW  Elec       q    Type
REMARK                         _______ _______ _______ _____ _____    ______ ____
ROOT
ATOM      1  C   LIG    1       24.902 -19.017   3.730  0.00  0.00    +0.165 C 
ATOM      2  O   LIG    1       23.716 -18.723   3.629  0.00  0.00    -0.294 OA
ENDROOT
BRANCH   1   3
ATOM      3  C   LIG    1       25.302 -20.375   4.160  0.00  0.00    +0.223 C 
ATOM      4  C   LIG    1       24.536 -21.255   5.122  0.00  0.00    +0.240 C 
ATOM      5  O   LIG    1       25.654 -20.452   5.551  0.00  0.00    -0.350 OA
BRANCH   4   6
ATOM      6  C   LIG    1       23.235 -20.921   5.742  0.00  0.00    +0.242 C 
ATOM      7  O   LIG    1       23.179 -20.479   6.893  0.00  0.00    -0.273 OA
ATOM      8  N   LIG    1       22.121 -21.200   5.024  0.00  0.00    -0.327 N 
ATOM      9  H   LIG    1       22.149 -21.536   4.057  0.00  0.00    +0.145 HD
ATOM     10  H   LIG    1       21.213 -20.968   5.400  0.00  0.00    +0.145 HD
ENDBRANCH   4   6
ENDBRANCH   1   3
BRANCH   1  11
ATOM     11  C   LIG    1       26.028 -18.081   3.356  0.00  0.00    +0.081 C 
BRANCH  11  12
ATOM     12  C   LIG    1       25.543 -16.632   3.326  0.00  0.00    +0.034 C 
BRANCH  12  14
ATOM     13  C   LIG    1       26.838 -14.442   3.053  0.00  0.00    -0.027 C 
ATOM     14  C   LIG    1       26.680 -15.674   3.565  0.00  0.00    -0.030 C 
BRANCH  13  15
ATOM     15  C   LIG    1       25.905 -13.706   2.130  0.00  0.00    +0.053 C 
BRANCH  15  18
ATOM     16  C   LIG    1       23.765 -11.816   4.811  0.00  0.00    +0.035 C 
ATOM     17  C   LIG    1       24.524 -12.855   4.051  0.00  0.00    -0.034 C 
ATOM     18  C   LIG    1       25.117 -12.652   2.863  0.00  0.00    -0.027 C 
ENDBRANCH  15  18
ENDBRANCH  13  15
ENDBRANCH  12  14
ENDBRANCH  11  12
ENDBRANCH   1  11
TORSDOF 7
ENDMDL
MODEL 7
REMARK VINA RESULT:      -5.3      2.571      3.419
REMARK  Name = *****
REMARK                            x       y       z     vdW  Elec       q    Type
REMARK                         _______ _______ _______ _____ _____    ______ ____
ROOT
ATOM      1  C   LIG    1       25.682 -16.262   3.420  0.00  0.00    +0.165 C 
ATOM      2  O   LIG    1       24.631 -15.721   3.745  0.00  0.00    -0.294 OA
ENDROOT
BRANCH   1   3
ATOM      3  C   LIG    1       26.888 -15.449   3.147  0.00  0.00    +0.223 C 
ATOM      4  C   LIG    1       27.220 -14.123   3.793  0.00  0.00    +0.240 C 
ATOM      5  O   LIG    1       26.600 -14.203   2.494  0.00  0.00    -0.350 OA
BRANCH   4   6
ATOM      6  C   LIG    1       26.420 -13.454   4.843  0.00  0.00    +0.242 C 
ATOM      7  O   LIG    1       25.347 -12.909   4.568  0.00  0.00    -0.273 OA
ATOM      8  N   LIG    1       26.958 -13.398   6.084  0.00  0.00    -0.327 N 
ATOM      9  H   LIG    1       27.830 -13.871   6.338  0.00  0.00    +0.145 HD
ATOM     10  H   LIG    1       26.436 -12.970   6.836  0.00  0.00    +0.145 HD
ENDBRANCH   4   6
ENDBRANCH   1   3
BRANCH   1  11
ATOM     11  C   LIG    1       25.863 -17.760   3.353  0.00  0.00    +0.081 C 
BRANCH  11  12
ATOM     12  C   LIG    1       24.554 -18.481   3.675  0.00  0.00    +0.034 C 
BRANCH  12  14
ATOM     13  C   LIG    1       24.924 -20.862   4.536  0.00  0.00    -0.027 C 
ATOM     14  C   LIG    1       24.711 -19.973   3.551  0.00  0.00    -0.030 C 
BRANCH  13  15
ATOM     15  C   LIG    1       25.035 -20.588   6.011  0.00  0.00    +0.053 C 
BRANCH  15  18
ATOM     16  C   LIG    1       28.906 -20.187   6.447  0.00  0.00    +0.035 C 
ATOM     17  C   LIG    1       27.497 -20.082   5.960  0.00  0.00    -0.034 C 
ATOM     18  C   LIG    1       26.453 -20.734   6.497  0.00  0.00    -0.027 C 
ENDBRANCH  15  18
ENDBRANCH  13  15
ENDBRANCH  12  14
ENDBRANCH  11  12
ENDBRANCH   1  11
TORSDOF 7
ENDMDL
MODEL 8
REMARK VINA RESULT:      -5.3      4.113      7.022
REMARK  Name = *****
REMARK                            x       y       z     vdW  Elec       q    Type
REMARK                         _______ _______ _______ _____ _____    ______ ____
ROOT
ATOM      1  C   LIG    1       23.145 -19.517   4.529  0.00  0.00    +0.165 C 
ATOM      2  O   LIG    1       22.342 -18.944   5.257  0.00  0.00    -0.294 OA
ENDROOT
BRANCH   1   3
ATOM      3  C   LIG    1       23.416 -20.961   4.706  0.00  0.00    +0.223 C 
ATOM      4  C   LIG    1       24.669 -21.553   5.310  0.00  0.00    +0.240 C 
ATOM      5  O   LIG    1       24.490 -21.444   3.884  0.00  0.00    -0.350 OA
BRANCH   4   6
ATOM      6  C   LIG    1       25.800 -20.782   5.872  0.00  0.00    +0.242 C 
ATOM      7  O   LIG    1       25.793 -20.422   7.053  0.00  0.00    -0.273 OA
ATOM      8  N   LIG    1       26.786 -20.423   5.017  0.00  0.00    -0.327 N 
ATOM      9  H   LIG    1       26.824 -20.739   4.043  0.00  0.00    +0.145 HD
ATOM     10  H   LIG    1       27.587 -19.915   5.363  0.00  0.00    +0.145 HD
ENDBRANCH   4   6
ENDBRANCH   1   3
BRANCH   1  11
ATOM     11  C   LIG    1       23.845 -18.848   3.369  0.00  0.00    +0.081 C 
BRANCH  11  12
ATOM     12  C   LIG    1       24.220 -17.408   3.719  0.00  0.00    +0.034 C 
BRANCH  12  14
ATOM     13  C   LIG    1       26.230 -15.913   3.197  0.00  0.00    -0.027 C 
ATOM     14  C   LIG    1       25.650 -17.115   3.349  0.00  0.00    -0.030 C 
BRANCH  13  15
ATOM     15  C   LIG    1       25.598 -14.560   3.382  0.00  0.00    +0.053 C 
BRANCH  15  18
ATOM     16  C   LIG    1       28.960 -12.626   3.925  0.00  0.00    +0.035 C 
ATOM     17  C   LIG    1       27.908 -13.685   3.853  0.00  0.00    -0.034 C 
ATOM     18  C   LIG    1       26.635 -13.472   3.480  0.00  0.00    -0.027 C 
ENDBRANCH  15  18
ENDBRANCH  13  15
ENDBRANCH  12  14
ENDBRANCH  11  12
ENDBRANCH   1  11
TORSDOF 7
ENDMDL
MODEL 9
REMARK VINA RESULT:      -5.2      2.145      3.348
REMARK  Name = *****
REMARK                            x       y       z     vdW  Elec       q    Type
REMARK                         _______ _______ _______ _____ _____    ______ ____
ROOT
ATOM      1  C   LIG    1       25.715 -15.924   3.424  0.00  0.00    +0.165 C 
ATOM      2  O   LIG    1       24.552 -15.680   3.726  0.00  0.00    -0.294 OA
ENDROOT
BRANCH   1   3
ATOM      3  C   LIG    1       26.672 -14.823   3.182  0.00  0.00    +0.223 C 
ATOM      4  C   LIG    1       26.306 -13.377   2.937  0.00  0.00    +0.240 C 
ATOM      5  O   LIG    1       26.595 -14.282   1.853  0.00  0.00    -0.350 OA
BRANCH   4   6
ATOM      6  C   LIG    1       24.934 -12.822   2.957  0.00  0.00    +0.242 C 
ATOM      7  O   LIG    1       24.451 -12.371   3.999  0.00  0.00    -0.273 OA
ATOM      8  N   LIG    1       24.217 -12.912   1.812  0.00  0.00    -0.327 N 
ATOM      9  H   LIG    1       24.612 -13.254   0.930  0.00  0.00    +0.145 HD
ATOM     10  H   LIG    1       23.284 -12.526   1.775  0.00  0.00    +0.145 HD
ENDBRANCH   4   6
ENDBRANCH   1   3
BRANCH   1  11
ATOM     11  C   LIG    1       26.282 -17.323   3.357  0.00  0.00    +0.081 C 
BRANCH  11  12
ATOM     12  C   LIG    1       25.165 -18.365   3.380  0.00  0.00    +0.034 C 
BRANCH  12  14
ATOM     13  C   LIG    1       25.093 -20.402   4.928  0.00  0.00    -0.027 C 
ATOM     14  C   LIG    1       25.652 -19.672   3.948  0.00  0.00    -0.030 C 
BRANCH  13  15
ATOM     15  C   LIG    1       23.827 -20.104   5.686  0.00  0.00    +0.053 C 
BRANCH  15  18
ATOM     16  C   LIG    1       20.902 -18.477   3.652  0.00  0.00    +0.035 C 
ATOM     17  C   LIG    1       22.039 -18.715   4.593  0.00  0.00    -0.034 C 
ATOM     18  C   LIG    1       22.661 -19.894   4.756  0.00  0.00    -0.027 C 
ENDBRANCH  15  18
ENDBRANCH  13  15
ENDBRANCH  12  14
ENDBRANCH  11  12
ENDBRANCH   1  11
TORSDOF 7
ENDMDL
