MODEL 1
REMARK VINA RESULT:      -9.6      0.000      0.000
REMARK  Name = *****
REMARK                            x       y       z     vdW  Elec       q    Type
REMARK                         _______ _______ _______ _____ _____    ______ ____
ROOT
ATOM      1  C   LIG    1       25.791 -18.010   3.442  0.00  0.00    +0.090 C 
ATOM      2  C   LIG    1       25.178 -19.276   3.894  0.00  0.00    +0.142 A 
ATOM      3  C   LIG    1       25.462 -20.222   4.865  0.00  0.00    +0.052 A 
ATOM      4  C   LIG    1       24.468 -21.242   4.652  0.00  0.00    +0.121 A 
ATOM      5  N   LIG    1       23.643 -20.873   3.654  0.00  0.00    -0.077 NA
ATOM      6  O   LIG    1       24.085 -19.663   3.194  0.00  0.00    -0.359 OA
ENDROOT
BRANCH   3   7
ATOM      7  C   LIG    1       26.613 -20.123   5.754  0.00  0.00    -0.012 A 
ATOM      8  C   LIG    1       26.499 -20.458   7.110  0.00  0.00    +0.010 A 
ATOM      9  C   LIG    1       27.615 -20.413   7.954  0.00  0.00    +0.029 A 
ATOM     10  C   LIG    1       28.861 -20.058   7.436  0.00  0.00    +0.105 A 
ATOM     11  C   LIG    1       28.993 -19.708   6.091  0.00  0.00    +0.029 A 
ATOM     12  C   LIG    1       27.868 -19.725   5.261  0.00  0.00    +0.010 A 
BRANCH  10  13
ATOM     13  S   LIG    1       30.314 -20.058   8.442  0.00  0.00    +0.056 S 
ATOM     14  O   LIG    1       30.468 -21.373   9.017  0.00  0.00    -0.153 OA
ATOM     15  O   LIG    1       30.312 -18.846   9.237  0.00  0.00    -0.153 OA
BRANCH  13  16
ATOM     16  N   LIG    1       31.585 -19.886   7.358  0.00  0.00    -0.203 NA
ATOM     17  H   LIG    1       31.215 -19.659   6.434  0.00  0.00    +0.144 HD
ATOM     18  H   LIG    1       32.162 -20.728   7.375  0.00  0.00    +0.144 HD
ENDBRANCH  13  16
ENDBRANCH  10  13
ENDBRANCH   3   7
BRANCH   4  19
ATOM     19  C   LIG    1       24.243 -22.535   5.313  0.00  0.00    +0.004 A 
ATOM     20  C   LIG    1       25.031 -23.644   4.949  0.00  0.00    +0.010 A 
ATOM     21  C   LIG    1       24.831 -24.897   5.533  0.00  0.00    +0.001 A 
ATOM     22  C   LIG    1       23.843 -25.060   6.499  0.00  0.00    +0.000 A 
ATOM     23  C   LIG    1       23.053 -23.975   6.872  0.00  0.00    +0.001 A 
ATOM     24  C   LIG    1       23.243 -22.722   6.275  0.00  0.00    +0.010 A 
ENDBRANCH   4  19
TORSDOF 4
ENDMDL
MODEL 2
REMARK VINA RESULT:      -9.3      2.162      3.177
REMARK  Name = *****
REMARK                            x       y       z     vdW  Elec       q    Type
REMARK                         _______ _______ _______ _____ _____    ______ ____
ROOT
ATOM      1  C   LIG    1       23.167 -20.309   7.419  0.00  0.00    +0.090 C 
ATOM      2  C   LIG    1       23.555 -21.695   7.081  0.00  0.00    +0.142 A 
ATOM      3  C   LIG    1       24.747 -22.357   6.840  0.00  0.00    +0.052 A 
ATOM      4  C   LIG    1       24.332 -23.688   6.476  0.00  0.00    +0.121 A 
ATOM      5  N   LIG    1       22.991 -23.784   6.553  0.00  0.00    -0.077 NA
ATOM      6  O   LIG    1       22.521 -22.556   6.927  0.00  0.00    -0.359 OA
ENDROOT
BRANCH   3   7
ATOM      7  C   LIG    1       26.043 -21.693   6.874  0.00  0.00    -0.012 A 
ATOM      8  C   LIG    1       26.354 -20.685   5.951  0.00  0.00    +0.010 A 
ATOM      9  C   LIG    1       27.578 -20.009   6.015  0.00  0.00    +0.029 A 
ATOM     10  C   LIG    1       28.490 -20.321   7.024  0.00  0.00    +0.105 A 
ATOM     11  C   LIG    1       28.205 -21.331   7.945  0.00  0.00    +0.029 A 
ATOM     12  C   LIG    1       26.993 -22.023   7.856  0.00  0.00    +0.010 A 
BRANCH  10  13
ATOM     13  S   LIG    1       30.016 -19.447   7.194  0.00  0.00    +0.056 S 
ATOM     14  O   LIG    1       29.943 -18.632   8.383  0.00  0.00    -0.153 OA
ATOM     15  O   LIG    1       30.378 -18.916   5.896  0.00  0.00    -0.153 OA
BRANCH  13  16
ATOM     16  N   LIG    1       31.155 -20.636   7.529  0.00  0.00    -0.203 NA
ATOM     17  H   LIG    1       31.842 -20.671   6.775  0.00  0.00    +0.144 HD
ATOM     18  H   LIG    1       30.679 -21.524   7.695  0.00  0.00    +0.144 HD
ENDBRANCH  13  16
ENDBRANCH  10  13
ENDBRANCH   3   7
BRANCH   4  19
ATOM     19  C   LIG    1       25.102 -24.868   6.057  0.00  0.00    +0.004 A 
ATOM     20  C   LIG    1       25.007 -25.318   4.726  0.00  0.00    +0.010 A 
ATOM     21  C   LIG    1       25.701 -26.451   4.294  0.00  0.00    +0.001 A 
ATOM     22  C   LIG    1       26.511 -27.148   5.185  0.00  0.00    +0.000 A 
ATOM     23  C   LIG    1       26.617 -26.717   6.507  0.00  0.00    +0.001 A 
ATOM     24  C   LIG    1       25.909 -25.591   6.943  0.00  0.00    +0.010 A 
ENDBRANCH   4  19
TORSDOF 4
ENDMDL
MODEL 3
REMARK VINA RESULT:      -9.1      1.287      1.527
REMARK  Name = *****
REMARK                            x       y       z     vdW  Elec       q    Type
REMARK                         _______ _______ _______ _____ _____    ______ ____
ROOT
ATOM      1  C   LIG    1       24.943 -18.519   3.811  0.00  0.00    +0.090 C 
ATOM      2  C   LIG    1       24.797 -19.932   4.220  0.00  0.00    +0.142 A 
ATOM      3  C   LIG    1       25.453 -20.782   5.095  0.00  0.00    +0.052 A 
ATOM      4  C   LIG    1       24.805 -22.051   4.890  0.00  0.00    +0.121 A 
ATOM      5  N   LIG    1       23.813 -21.917   3.990  0.00  0.00    -0.077 NA
ATOM      6  O   LIG    1       23.814 -20.611   3.584  0.00  0.00    -0.359 OA
ENDROOT
BRANCH   3   7
ATOM      7  C   LIG    1       26.598 -20.365   5.894  0.00  0.00    -0.012 A 
ATOM      8  C   LIG    1       26.570 -20.471   7.291  0.00  0.00    +0.010 A 
ATOM      9  C   LIG    1       27.688 -20.120   8.057  0.00  0.00    +0.029 A 
ATOM     10  C   LIG    1       28.854 -19.685   7.424  0.00  0.00    +0.105 A 
ATOM     11  C   LIG    1       28.896 -19.559   6.034  0.00  0.00    +0.029 A 
ATOM     12  C   LIG    1       27.766 -19.883   5.278  0.00  0.00    +0.010 A 
BRANCH  10  13
ATOM     13  S   LIG    1       30.315 -19.301   8.340  0.00  0.00    +0.056 S 
ATOM     14  O   LIG    1       31.187 -18.519   7.496  0.00  0.00    -0.153 OA
ATOM     15  O   LIG    1       30.749 -20.503   9.021  0.00  0.00    -0.153 OA
BRANCH  13  16
ATOM     16  N   LIG    1       29.799 -18.257   9.549  0.00  0.00    -0.203 NA
ATOM     17  H   LIG    1       30.507 -18.210  10.284  0.00  0.00    +0.144 HD
ATOM     18  H   LIG    1       28.879 -18.550   9.882  0.00  0.00    +0.144 HD
ENDBRANCH  13  16
ENDBRANCH  10  13
ENDBRANCH   3   7
BRANCH   4  19
ATOM     19  C   LIG    1       25.055 -23.377   5.473  0.00  0.00    +0.004 A 
ATOM     20  C   LIG    1       24.862 -24.527   4.684  0.00  0.00    +0.010 A 
ATOM     21  C   LIG    1       25.062 -25.806   5.207  0.00  0.00    +0.001 A 
ATOM     22  C   LIG    1       25.470 -25.957   6.529  0.00  0.00    +0.000 A 
ATOM     23  C   LIG    1       25.666 -24.831   7.326  0.00  0.00    +0.001 A 
ATOM     24  C   LIG    1       25.450 -23.549   6.805  0.00  0.00    +0.010 A 
ENDBRANCH   4  19
TORSDOF 4
ENDMDL
MODEL 4
REMARK VINA RESULT:      -8.7      1.910      3.750
REMARK  Name = *****
REMARK                            x       y       z     vdW  Elec       q    Type
REMARK                         _______ _______ _______ _____ _____    ______ ____
ROOT
ATOM      1  C   LIG    1       25.897 -24.297   7.313  0.00  0.00    +0.090 C 
ATOM      2  C   LIG    1       25.161 -23.265   6.554  0.00  0.00    +0.142 A 
ATOM      3  C   LIG    1       25.368 -21.932   6.240  0.00  0.00    +0.052 A 
ATOM      4  C   LIG    1       24.165 -21.552   5.544  0.00  0.00    +0.121 A 
ATOM      5  N   LIG    1       23.349 -22.617   5.430  0.00  0.00    -0.077 NA
ATOM      6  O   LIG    1       23.969 -23.666   6.052  0.00  0.00    -0.359 OA
ENDROOT
BRANCH   3   7
ATOM      7  C   LIG    1       26.540 -21.187   6.683  0.00  0.00    -0.012 A 
ATOM      8  C   LIG    1       26.819 -21.041   8.049  0.00  0.00    +0.010 A 
ATOM      9  C   LIG    1       27.971 -20.372   8.476  0.00  0.00    +0.029 A 
ATOM     10  C   LIG    1       28.868 -19.866   7.533  0.00  0.00    +0.105 A 
ATOM     11  C   LIG    1       28.601 -19.989   6.168  0.00  0.00    +0.029 A 
ATOM     12  C   LIG    1       27.433 -20.633   5.750  0.00  0.00    +0.010 A 
BRANCH  10  13
ATOM     13  S   LIG    1       30.373 -19.078   8.019  0.00  0.00    +0.056 S 
ATOM     14  O   LIG    1       30.363 -18.926   9.454  0.00  0.00    -0.153 OA
ATOM     15  O   LIG    1       30.619 -17.976   7.112  0.00  0.00    -0.153 OA
BRANCH  13  16
ATOM     16  N   LIG    1       31.572 -20.208   7.693  0.00  0.00    -0.203 NA
ATOM     17  H   LIG    1       32.030 -20.479   8.564  0.00  0.00    +0.144 HD
ATOM     18  H   LIG    1       32.211 -19.833   6.990  0.00  0.00    +0.144 HD
ENDBRANCH  13  16
ENDBRANCH  10  13
ENDBRANCH   3   7
BRANCH   4  19
ATOM     19  C   LIG    1       23.728 -20.264   4.987  0.00  0.00    +0.004 A 
ATOM     20  C   LIG    1       24.558 -19.588   4.073  0.00  0.00    +0.010 A 
ATOM     21  C   LIG    1       24.192 -18.349   3.542  0.00  0.00    +0.001 A 
ATOM     22  C   LIG    1       22.981 -17.770   3.909  0.00  0.00    +0.000 A 
ATOM     23  C   LIG    1       22.146 -18.424   4.812  0.00  0.00    +0.001 A 
ATOM     24  C   LIG    1       22.521 -19.659   5.357  0.00  0.00    +0.010 A 
ENDBRANCH   4  19
TORSDOF 4
ENDMDL
MODEL 5
REMARK VINA RESULT:      -7.5      6.469      8.835
REMARK  Name = *****
REMARK                            x       y       z     vdW  Elec       q    Type
REMARK                         _______ _______ _______ _____ _____    ______ ____
ROOT
ATOM      1  C   LIG    1       25.126 -31.359   6.377  0.00  0.00    +0.090 C 
ATOM      2  C   LIG    1       25.087 -29.892   6.199  0.00  0.00    +0.142 A 
ATOM      3  C   LIG    1       25.233 -28.791   7.026  0.00  0.00    +0.052 A 
ATOM      4  C   LIG    1       24.968 -27.672   6.159  0.00  0.00    +0.121 A 
ATOM      5  N   LIG    1       24.732 -28.112   4.908  0.00  0.00    -0.077 NA
ATOM      6  O   LIG    1       24.809 -29.477   4.940  0.00  0.00    -0.359 OA
ENDROOT
BRANCH   3   7
ATOM      7  C   LIG    1       25.487 -28.904   8.457  0.00  0.00    -0.012 A 
ATOM      8  C   LIG    1       24.653 -29.683   9.270  0.00  0.00    +0.010 A 
ATOM      9  C   LIG    1       24.925 -29.835  10.635  0.00  0.00    +0.029 A 
ATOM     10  C   LIG    1       26.054 -29.228  11.189  0.00  0.00    +0.105 A 
ATOM     11  C   LIG    1       26.889 -28.438  10.397  0.00  0.00    +0.029 A 
ATOM     12  C   LIG    1       26.594 -28.266   9.041  0.00  0.00    +0.010 A 
BRANCH  10  13
ATOM     13  S   LIG    1       26.482 -29.449  12.889  0.00  0.00    +0.056 S 
ATOM     14  O   LIG    1       26.947 -30.804  13.066  0.00  0.00    -0.153 OA
ATOM     15  O   LIG    1       25.433 -28.864  13.698  0.00  0.00    -0.153 OA
BRANCH  13  16
ATOM     16  N   LIG    1       27.830 -28.474  13.120  0.00  0.00    -0.203 NA
ATOM     17  H   LIG    1       28.464 -28.576  12.326  0.00  0.00    +0.144 HD
ATOM     18  H   LIG    1       28.258 -28.695  14.020  0.00  0.00    +0.144 HD
ENDBRANCH  13  16
ENDBRANCH  10  13
ENDBRANCH   3   7
BRANCH   4  19
ATOM     19  C   LIG    1       24.914 -26.227   6.422  0.00  0.00    +0.004 A 
ATOM     20  C   LIG    1       23.685 -25.550   6.307  0.00  0.00    +0.010 A 
ATOM     21  C   LIG    1       23.595 -24.172   6.522  0.00  0.00    +0.001 A 
ATOM     22  C   LIG    1       24.734 -23.450   6.866  0.00  0.00    +0.000 A 
ATOM     23  C   LIG    1       25.959 -24.104   6.984  0.00  0.00    +0.001 A 
ATOM     24  C   LIG    1       26.052 -25.482   6.753  0.00  0.00    +0.010 A 
ENDBRANCH   4  19
TORSDOF 4
ENDMDL
MODEL 6
REMARK VINA RESULT:      -7.4      8.563     10.707
REMARK  Name = *****
REMARK                            x       y       z     vdW  Elec       q    Type
REMARK                         _______ _______ _______ _____ _____    ______ ____
ROOT
ATOM      1  C   LIG    1       28.621 -29.432  11.844  0.00  0.00    +0.090 C 
ATOM      2  C   LIG    1       27.268 -29.088  12.330  0.00  0.00    +0.142 A 
ATOM      3  C   LIG    1       26.025 -28.901  11.749  0.00  0.00    +0.052 A 
ATOM      4  C   LIG    1       25.191 -28.489  12.848  0.00  0.00    +0.121 A 
ATOM      5  N   LIG    1       25.907 -28.488  13.988  0.00  0.00    -0.077 NA
ATOM      6  O   LIG    1       27.182 -28.859  13.662  0.00  0.00    -0.359 OA
ENDROOT
BRANCH   3   7
ATOM      7  C   LIG    1       25.796 -29.023  10.315  0.00  0.00    -0.012 A 
ATOM      8  C   LIG    1       24.904 -29.979   9.813  0.00  0.00    +0.010 A 
ATOM      9  C   LIG    1       24.642 -30.062   8.440  0.00  0.00    +0.029 A 
ATOM     10  C   LIG    1       25.256 -29.167   7.562  0.00  0.00    +0.105 A 
ATOM     11  C   LIG    1       26.159 -28.216   8.041  0.00  0.00    +0.029 A 
ATOM     12  C   LIG    1       26.437 -28.159   9.410  0.00  0.00    +0.010 A 
BRANCH  10  13
ATOM     13  S   LIG    1       24.904 -29.182   5.830  0.00  0.00    +0.056 S 
ATOM     14  O   LIG    1       25.669 -30.244   5.221  0.00  0.00    -0.153 OA
ATOM     15  O   LIG    1       24.933 -27.816   5.352  0.00  0.00    -0.153 OA
BRANCH  13  16
ATOM     16  N   LIG    1       23.298 -29.664   5.725  0.00  0.00    -0.203 NA
ATOM     17  H   LIG    1       23.234 -30.671   5.884  0.00  0.00    +0.144 HD
ATOM     18  H   LIG    1       22.911 -29.363   4.830  0.00  0.00    +0.144 HD
ENDBRANCH  13  16
ENDBRANCH  10  13
ENDBRANCH   3   7
BRANCH   4  19
ATOM     19  C   LIG    1       23.777 -28.090  12.901  0.00  0.00    +0.004 A 
ATOM     20  C   LIG    1       22.787 -28.995  12.476  0.00  0.00    +0.010 A 
ATOM     21  C   LIG    1       21.435 -28.645  12.485  0.00  0.00    +0.001 A 
ATOM     22  C   LIG    1       21.049 -27.384  12.930  0.00  0.00    +0.000 A 
ATOM     23  C   LIG    1       22.016 -26.474  13.354  0.00  0.00    +0.001 A 
ATOM     24  C   LIG    1       23.372 -26.820  13.330  0.00  0.00    +0.010 A 
ENDBRANCH   4  19
TORSDOF 4
ENDMDL
MODEL 7
REMARK VINA RESULT:      -7.3      7.222     10.238
REMARK  Name = *****
REMARK                            x       y       z     vdW  Elec       q    Type
REMARK                         _______ _______ _______ _____ _____    ______ ____
ROOT
ATOM      1  C   LIG    1       26.923 -32.339   8.672  0.00  0.00    +0.090 C 
ATOM      2  C   LIG    1       26.084 -31.670   9.689  0.00  0.00    +0.142 A 
ATOM      3  C   LIG    1       25.426 -30.456   9.785  0.00  0.00    +0.052 A 
ATOM      4  C   LIG    1       24.889 -30.461  11.121  0.00  0.00    +0.121 A 
ATOM      5  N   LIG    1       25.185 -31.627  11.727  0.00  0.00    -0.077 NA
ATOM      6  O   LIG    1       25.918 -32.365  10.839  0.00  0.00    -0.359 OA
ENDROOT
BRANCH   3   7
ATOM      7  C   LIG    1       25.456 -29.453   8.728  0.00  0.00    -0.012 A 
ATOM      8  C   LIG    1       24.571 -29.532   7.644  0.00  0.00    +0.010 A 
ATOM      9  C   LIG    1       24.563 -28.542   6.654  0.00  0.00    +0.029 A 
ATOM     10  C   LIG    1       25.425 -27.450   6.760  0.00  0.00    +0.105 A 
ATOM     11  C   LIG    1       26.323 -27.360   7.824  0.00  0.00    +0.029 A 
ATOM     12  C   LIG    1       26.346 -28.368   8.793  0.00  0.00    +0.010 A 
BRANCH  10  13
ATOM     13  S   LIG    1       25.403 -26.137   5.577  0.00  0.00    +0.056 S 
ATOM     14  O   LIG    1       25.894 -26.650   4.320  0.00  0.00    -0.153 OA
ATOM     15  O   LIG    1       25.943 -24.951   6.209  0.00  0.00    -0.153 OA
BRANCH  13  16
ATOM     16  N   LIG    1       23.773 -25.814   5.328  0.00  0.00    -0.203 NA
ATOM     17  H   LIG    1       23.371 -26.537   4.729  0.00  0.00    +0.144 HD
ATOM     18  H   LIG    1       23.667 -24.868   4.959  0.00  0.00    +0.144 HD
ENDBRANCH  13  16
ENDBRANCH  10  13
ENDBRANCH   3   7
BRANCH   4  19
ATOM     19  C   LIG    1       24.127 -29.451  11.869  0.00  0.00    +0.004 A 
ATOM     20  C   LIG    1       22.721 -29.517  11.884  0.00  0.00    +0.010 A 
ATOM     21  C   LIG    1       21.958 -28.561  12.560  0.00  0.00    +0.001 A 
ATOM     22  C   LIG    1       22.592 -27.527  13.242  0.00  0.00    +0.000 A 
ATOM     23  C   LIG    1       23.983 -27.445  13.238  0.00  0.00    +0.001 A 
ATOM     24  C   LIG    1       24.747 -28.395  12.547  0.00  0.00    +0.010 A 
ENDBRANCH   4  19
TORSDOF 4
ENDMDL
MODEL 8
REMARK VINA RESULT:      -7.1      6.511      9.462
REMARK  Name = *****
REMARK                            x       y       z     vdW  Elec       q    Type
REMARK                         _______ _______ _______ _____ _____    ______ ____
ROOT
ATOM      1  C   LIG    1       25.992 -31.539   5.368  0.00  0.00    +0.090 C 
ATOM      2  C   LIG    1       25.416 -31.382   6.719  0.00  0.00    +0.142 A 
ATOM      3  C   LIG    1       24.979 -30.318   7.491  0.00  0.00    +0.052 A 
ATOM      4  C   LIG    1       24.632 -30.926   8.749  0.00  0.00    +0.121 A 
ATOM      5  N   LIG    1       24.817 -32.258   8.678  0.00  0.00    -0.077 NA
ATOM      6  O   LIG    1       25.297 -32.530   7.426  0.00  0.00    -0.359 OA
ENDROOT
BRANCH   3   7
ATOM      7  C   LIG    1       25.026 -28.935   7.032  0.00  0.00    -0.012 A 
ATOM      8  C   LIG    1       24.176 -28.493   6.010  0.00  0.00    +0.010 A 
ATOM      9  C   LIG    1       24.184 -27.153   5.604  0.00  0.00    +0.029 A 
ATOM     10  C   LIG    1       25.026 -26.240   6.241  0.00  0.00    +0.105 A 
ATOM     11  C   LIG    1       25.890 -26.665   7.252  0.00  0.00    +0.029 A 
ATOM     12  C   LIG    1       25.898 -28.010   7.632  0.00  0.00    +0.010 A 
BRANCH  10  13
ATOM     13  S   LIG    1       25.020 -24.525   5.817  0.00  0.00    +0.056 S 
ATOM     14  O   LIG    1       24.978 -24.414   4.378  0.00  0.00    -0.153 OA
ATOM     15  O   LIG    1       26.015 -23.856   6.630  0.00  0.00    -0.153 OA
BRANCH  13  16
ATOM     16  N   LIG    1       23.536 -23.956   6.358  0.00  0.00    -0.203 NA
ATOM     17  H   LIG    1       23.221 -24.522   7.147  0.00  0.00    +0.144 HD
ATOM     18  H   LIG    1       22.876 -23.933   5.579  0.00  0.00    +0.144 HD
ENDBRANCH  13  16
ENDBRANCH  10  13
ENDBRANCH   3   7
BRANCH   4  19
ATOM     19  C   LIG    1       24.148 -30.347  10.011  0.00  0.00    +0.004 A 
ATOM     20  C   LIG    1       22.784 -30.453  10.342  0.00  0.00    +0.010 A 
ATOM     21  C   LIG    1       22.280 -29.893  11.518  0.00  0.00    +0.001 A 
ATOM     22  C   LIG    1       23.135 -29.225  12.389  0.00  0.00    +0.000 A 
ATOM     23  C   LIG    1       24.488 -29.110  12.077  0.00  0.00    +0.001 A 
ATOM     24  C   LIG    1       24.991 -29.658  10.891  0.00  0.00    +0.010 A 
ENDBRANCH   4  19
TORSDOF 4
ENDMDL
MODEL 9
REMARK VINA RESULT:      -6.9      7.268      9.782
REMARK  Name = *****
REMARK                            x       y       z     vdW  Elec       q    Type
REMARK                         _______ _______ _______ _____ _____    ______ ____
ROOT
ATOM      1  C   LIG    1       23.797 -32.597   8.270  0.00  0.00    +0.090 C 
ATOM      2  C   LIG    1       24.045 -31.304   7.601  0.00  0.00    +0.142 A 
ATOM      3  C   LIG    1       24.722 -30.138   7.920  0.00  0.00    +0.052 A 
ATOM      4  C   LIG    1       24.447 -29.266   6.807  0.00  0.00    +0.121 A 
ATOM      5  N   LIG    1       23.699 -29.914   5.894  0.00  0.00    -0.077 NA
ATOM      6  O   LIG    1       23.458 -31.166   6.388  0.00  0.00    -0.359 OA
ENDROOT
BRANCH   3   7
ATOM      7  C   LIG    1       25.418 -29.949   9.186  0.00  0.00    -0.012 A 
ATOM      8  C   LIG    1       24.707 -29.623  10.349  0.00  0.00    +0.010 A 
ATOM      9  C   LIG    1       25.366 -29.492  11.577  0.00  0.00    +0.029 A 
ATOM     10  C   LIG    1       26.742 -29.713  11.652  0.00  0.00    +0.105 A 
ATOM     11  C   LIG    1       27.470 -30.025  10.502  0.00  0.00    +0.029 A 
ATOM     12  C   LIG    1       26.809 -30.125   9.274  0.00  0.00    +0.010 A 
BRANCH  10  13
ATOM     13  S   LIG    1       27.609 -29.633  13.190  0.00  0.00    +0.056 S 
ATOM     14  O   LIG    1       27.060 -28.545  13.963  0.00  0.00    -0.153 OA
ATOM     15  O   LIG    1       29.025 -29.769  12.917  0.00  0.00    -0.153 OA
BRANCH  13  16
ATOM     16  N   LIG    1       27.168 -31.035  14.003  0.00  0.00    -0.203 NA
ATOM     17  H   LIG    1       26.753 -31.694  13.343  0.00  0.00    +0.144 HD
ATOM     18  H   LIG    1       26.558 -30.796  14.786  0.00  0.00    +0.144 HD
ENDBRANCH  13  16
ENDBRANCH  10  13
ENDBRANCH   3   7
BRANCH   4  19
ATOM     19  C   LIG    1       24.828 -27.870   6.546  0.00  0.00    +0.004 A 
ATOM     20  C   LIG    1       24.154 -27.145   5.546  0.00  0.00    +0.010 A 
ATOM     21  C   LIG    1       24.503 -25.826   5.248  0.00  0.00    +0.001 A 
ATOM     22  C   LIG    1       25.529 -25.206   5.955  0.00  0.00    +0.000 A 
ATOM     23  C   LIG    1       26.208 -25.908   6.949  0.00  0.00    +0.001 A 
ATOM     24  C   LIG    1       25.868 -27.236   7.236  0.00  0.00    +0.010 A 
ENDBRANCH   4  19
TORSDOF 4
ENDMDL
