MODEL 1
REMARK VINA RESULT:     106.3      0.000      0.000
REMARK  Name = *****
REMARK                            x       y       z     vdW  Elec       q    Type
REMARK                         _______ _______ _______ _____ _____    ______ ____
ROOT
ATOM      1  C   LIG    1       20.922 -17.671   5.756  0.00  0.00    +0.129 C 
ATOM      2  C   LIG    1       22.234 -17.722   4.877  0.00  0.00    +0.061 C 
ATOM      3  C   LIG    1       22.623 -16.363   4.278  0.00  0.00    +0.190 C 
ATOM      4  C   LIG    1       24.042 -16.314   3.739  0.00  0.00    +0.141 C 
ATOM      5  C   LIG    1       24.981 -17.240   4.028  0.00  0.00    +0.047 C 
ATOM      6  C   LIG    1       24.704 -18.473   4.860  0.00  0.00    +0.062 C 
ATOM      7  C   LIG    1       25.961 -18.898   5.701  0.00  0.00    +0.097 C 
ATOM      8  C   LIG    1       25.595 -20.026   6.677  0.00  0.00    +0.047 C 
ATOM      9  C   LIG    1       27.149 -19.118   4.754  0.00  0.00    +0.017 A 
ATOM     10  C   LIG    1       27.375 -18.111   3.773  0.00  0.00    +0.071 A 
ATOM     11  C   LIG    1       28.539 -18.104   2.978  0.00  0.00    +0.128 A 
ATOM     12  C   LIG    1       29.472 -19.118   3.081  0.00  0.00    +0.047 A 
ATOM     13  C   LIG    1       29.241 -20.153   3.974  0.00  0.00    +0.024 A 
ATOM     14  C   LIG    1       28.103 -20.163   4.802  0.00  0.00    +0.048 A 
ATOM     15 CL   LIG    1       28.006 -21.570   5.801  0.00  0.00    -0.083 Cl
ATOM     16  C   LIG    1       26.369 -17.049   3.524  0.00  0.00    +0.197 C 
ATOM     17  O   LIG    1       26.670 -16.057   2.858  0.00  0.00    -0.287 OA
ATOM     18  C   LIG    1       22.498 -15.310   5.384  0.00  0.00    +0.210 C 
ATOM     19  O   LIG    1       23.440 -14.680   5.870  0.00  0.00    -0.288 OA
ATOM     20  C   LIG    1       21.154 -15.134   5.967  0.00  0.00    +0.121 C 
ATOM     21  C   LIG    1       23.415 -18.289   5.702  0.00  0.00    +0.020 C 
ATOM     22  C   LIG    1       20.479 -16.273   6.220  0.00  0.00    +0.127 C 
ENDROOT
BRANCH  20  23
ATOM     23  C   LIG    1       20.648 -13.802   6.385  0.00  0.00    +0.253 C 
ATOM     24  N   LIG    1       21.592 -12.862   6.657  0.00  0.00    -0.289 N 
ATOM     25  H   LIG    1       22.580 -13.100   6.588  0.00  0.00    +0.151 HD
ATOM     26  O   LIG    1       19.431 -13.595   6.495  0.00  0.00    -0.270 OA
BRANCH  24  27
ATOM     27  C   LIG    1       21.257 -11.539   7.055  0.00  0.00    +0.264 C 
BRANCH  27  28
ATOM     28  O   LIG    1       19.854 -11.470   7.052  0.00  0.00    -0.377 OA
ATOM     29  H   LIG    1       19.540 -12.349   7.321  0.00  0.00    +0.211 HD
ENDBRANCH  27  28
ENDBRANCH  24  27
ENDBRANCH  20  23
BRANCH   1  31
ATOM     30  C   LIG    1       20.266 -19.922   4.949  0.00  0.00    +0.105 C 
ATOM     31  N   LIG    1       19.872 -18.525   5.138  0.00  0.00    -0.298 NA
ATOM     32  C   LIG    1       19.355 -17.984   3.876  0.00  0.00    +0.105 C 
ENDBRANCH   1  31
BRANCH   3  33
ATOM     33  O   LIG    1       21.747 -16.031   3.201  0.00  0.00    -0.373 OA
ATOM     34  H   LIG    1       22.326 -15.902   2.421  0.00  0.00    +0.211 HD
ENDBRANCH   3  33
BRANCH   4  35
ATOM     35  O   LIG    1       24.265 -15.225   2.901  0.00  0.00    -0.507 OA
ATOM     36  H   LIG    1       23.605 -15.259   2.169  0.00  0.00    +0.292 HD
ENDBRANCH   4  35
BRANCH   7  37
ATOM     37  O   LIG    1       26.366 -17.783   6.518  0.00  0.00    -0.384 OA
ATOM     38  H   LIG    1       25.775 -17.029   6.352  0.00  0.00    +0.211 HD
ENDBRANCH   7  37
BRANCH  11  39
ATOM     39  O   LIG    1       28.834 -17.127   2.064  0.00  0.00    -0.506 OA
ATOM     40  H   LIG    1       29.790 -17.189   1.845  0.00  0.00    +0.292 HD
ENDBRANCH  11  39
BRANCH  22  41
ATOM     41  O   LIG    1       19.353 -16.277   7.042  0.00  0.00    -0.509 OA
ATOM     42  H   LIG    1       18.987 -15.370   7.114  0.00  0.00    +0.292 HD
ENDBRANCH  22  41
TORSDOF 9
ENDMDL
