MODEL 1
REMARK VINA RESULT:      19.4      0.000      0.000
REMARK  Name = *****
REMARK                            x       y       z     vdW  Elec       q    Type
REMARK                         _______ _______ _______ _____ _____    ______ ____
ROOT
ATOM      1  C   LIG    1       28.272 -21.567   5.886  0.00  0.00    +0.011 C 
ATOM      2  C   LIG    1       27.991 -20.102   6.238  0.00  0.00    +0.026 C 
ATOM      3  C   LIG    1       27.851 -19.142   5.020  0.00  0.00    +0.134 C 
ATOM      4  C   LIG    1       26.285 -18.928   4.807  0.00  0.00    +0.009 C 
ATOM      5  C   LIG    1       25.883 -17.434   4.977  0.00  0.00    +0.015 C 
ATOM      6  C   LIG    1       25.586 -19.705   5.980  0.00  0.00    +0.002 C 
ATOM      7  C   LIG    1       24.853 -21.043   5.667  0.00  0.00    +0.002 C 
ATOM      8  C   LIG    1       24.213 -21.120   4.259  0.00  0.00    +0.035 C 
ATOM      9  C   LIG    1       25.319 -20.757   3.250  0.00  0.00    +0.120 C 
ATOM     10  C   LIG    1       22.766 -20.446   4.159  0.00  0.00    +0.016 C 
ATOM     11  C   LIG    1       21.708 -21.572   3.991  0.00  0.00    +0.020 C 
ATOM     12  C   LIG    1       22.419 -19.691   5.445  0.00  0.00    -0.023 C 
ATOM     13  C   LIG    1       22.010 -18.408   5.468  0.00  0.00    +0.053 C 
ATOM     14  C   LIG    1       21.857 -17.615   4.236  0.00  0.00    +0.179 C 
ATOM     15  O   LIG    1       21.523 -16.428   4.279  0.00  0.00    -0.288 OA
ATOM     16  C   LIG    1       22.142 -18.284   2.963  0.00  0.00    +0.047 C 
ATOM     17  C   LIG    1       22.613 -20.428   6.748  0.00  0.00    +0.193 C 
ATOM     18  F   LIG    1       21.490 -21.134   7.061  0.00  0.00    -0.241 F 
ATOM     19  C   LIG    1       22.552 -19.563   2.936  0.00  0.00    -0.012 C 
ATOM     20  C   LIG    1       23.795 -21.394   6.728  0.00  0.00    +0.045 C 
ATOM     21  C   LIG    1       25.794 -19.321   3.390  0.00  0.00    +0.042 C 
ATOM     22  C   LIG    1       26.696 -19.908   7.023  0.00  0.00    +0.011 C 
ENDROOT
BRANCH   3  23
ATOM     23  C   LIG    1       28.633 -17.818   5.313  0.00  0.00    +0.190 C 
ATOM     24  O   LIG    1       29.368 -17.690   6.299  0.00  0.00    -0.292 OA
BRANCH  23  25
ATOM     25  C   LIG    1       28.415 -16.628   4.372  0.00  0.00    +0.233 C 
BRANCH  25  26
ATOM     26  O   LIG    1       28.564 -15.384   5.042  0.00  0.00    -0.387 OA
ATOM     27  H   LIG    1       28.684 -14.707   4.348  0.00  0.00    +0.210 HD
ENDBRANCH  25  26
ENDBRANCH  23  25
ENDBRANCH   3  23
BRANCH   3  28
ATOM     28  O   LIG    1       28.443 -19.760   3.877  0.00  0.00    -0.380 OA
ATOM     29  H   LIG    1       29.255 -20.220   4.165  0.00  0.00    +0.211 HD
ENDBRANCH   3  28
BRANCH   9  30
ATOM     30  O   LIG    1       24.890 -21.020   1.919  0.00  0.00    -0.391 OA
ATOM     31  H   LIG    1       24.903 -21.987   1.797  0.00  0.00    +0.210 HD
ENDBRANCH   9  30
TORSDOF 5
ENDMDL
MODEL 2
REMARK VINA RESULT:      20.5      4.024      6.980
REMARK  Name = *****
REMARK                            x       y       z     vdW  Elec       q    Type
REMARK                         _______ _______ _______ _____ _____    ______ ____
ROOT
ATOM      1  C   LIG    1       25.010 -19.193   5.116  0.00  0.00    +0.011 C 
ATOM      2  C   LIG    1       24.064 -18.763   3.989  0.00  0.00    +0.026 C 
ATOM      3  C   LIG    1       22.878 -17.855   4.428  0.00  0.00    +0.134 C 
ATOM      4  C   LIG    1       23.297 -16.365   4.043  0.00  0.00    +0.009 C 
ATOM      5  C   LIG    1       22.312 -15.741   3.013  0.00  0.00    +0.015 C 
ATOM      6  C   LIG    1       24.679 -16.490   3.306  0.00  0.00    +0.002 C 
ATOM      7  C   LIG    1       25.972 -16.040   4.047  0.00  0.00    +0.002 C 
ATOM      8  C   LIG    1       25.779 -14.866   5.038  0.00  0.00    +0.035 C 
ATOM      9  C   LIG    1       24.623 -15.264   5.975  0.00  0.00    +0.120 C 
ATOM     10  C   LIG    1       25.814 -13.419   4.357  0.00  0.00    +0.016 C 
ATOM     11  C   LIG    1       27.129 -12.706   4.778  0.00  0.00    +0.020 C 
ATOM     12  C   LIG    1       25.832 -13.530   2.829  0.00  0.00    -0.023 C 
ATOM     13  C   LIG    1       24.966 -12.883   2.025  0.00  0.00    +0.053 C 
ATOM     14  C   LIG    1       23.916 -11.998   2.560  0.00  0.00    +0.179 C 
ATOM     15  O   LIG    1       23.105 -11.447   1.812  0.00  0.00    -0.288 OA
ATOM     16  C   LIG    1       23.859 -11.820   4.014  0.00  0.00    +0.047 C 
ATOM     17  C   LIG    1       26.845 -14.469   2.220  0.00  0.00    +0.193 C 
ATOM     18  F   LIG    1       28.026 -13.820   2.017  0.00  0.00    -0.241 F 
ATOM     19  C   LIG    1       24.720 -12.465   4.820  0.00  0.00    -0.012 C 
ATOM     20  C   LIG    1       27.118 -15.704   3.076  0.00  0.00    +0.045 C 
ATOM     21  C   LIG    1       23.294 -15.391   5.249  0.00  0.00    +0.042 C 
ATOM     22  C   LIG    1       24.761 -17.966   2.888  0.00  0.00    +0.011 C 
ENDROOT
BRANCH   3  23
ATOM     23  C   LIG    1       21.567 -18.342   3.724  0.00  0.00    +0.190 C 
ATOM     24  O   LIG    1       20.781 -17.558   3.179  0.00  0.00    -0.292 OA
BRANCH  23  25
ATOM     25  C   LIG    1       21.229 -19.835   3.783  0.00  0.00    +0.233 C 
BRANCH  25  26
ATOM     26  O   LIG    1       21.722 -20.447   4.967  0.00  0.00    -0.387 OA
ATOM     27  H   LIG    1       21.020 -20.354   5.642  0.00  0.00    +0.210 HD
ENDBRANCH  25  26
ENDBRANCH  23  25
ENDBRANCH   3  23
BRANCH   3  28
ATOM     28  O   LIG    1       22.696 -17.987   5.838  0.00  0.00    -0.380 OA
ATOM     29  H   LIG    1       21.799 -18.338   5.998  0.00  0.00    +0.211 HD
ENDBRANCH   3  28
BRANCH   9  30
ATOM     30  O   LIG    1       24.520 -14.351   7.062  0.00  0.00    -0.391 OA
ATOM     31  H   LIG    1       25.232 -14.568   7.690  0.00  0.00    +0.210 HD
ENDBRANCH   9  30
TORSDOF 5
ENDMDL
