MODEL 1
REMARK VINA RESULT:      68.1      0.000      0.000
REMARK  Name = *****
REMARK                            x       y       z     vdW  Elec       q    Type
REMARK                         _______ _______ _______ _____ _____    ______ ____
ROOT
ATOM      1  C   LIG    1       23.580 -19.024   3.028  0.00  0.00    +0.170 C 
ATOM      2  C   LIG    1       24.029 -17.787   3.936  0.00  0.00    +0.097 C 
ATOM      3  C   LIG    1       22.502 -17.435   4.947  0.00  0.00    +0.065 C 
ATOM      4  C   LIG    1       22.079 -16.078   5.666  0.00  0.00    +0.174 C 
ATOM      5  C   LIG    1       22.354 -14.516   5.047  0.00  0.00    +0.208 C 
ATOM      6  C   LIG    1       23.022 -13.765   3.884  0.00  0.00    -0.023 C 
ATOM      7  C   LIG    1       24.672 -13.621   3.299  0.00  0.00    +0.022 C 
ATOM      8  C   LIG    1       24.257 -12.513   2.139  0.00  0.00    +0.019 C 
ATOM      9  C   LIG    1       25.796 -12.634   3.825  0.00  0.00    +0.019 C 
ATOM     10  C   LIG    1       25.382 -15.083   2.670  0.00  0.00    +0.116 C 
ATOM     11  C   LIG    1       24.199 -15.473   1.889  0.00  0.00    +0.088 C 
ATOM     12  C   LIG    1       23.337 -15.664   3.147  0.00  0.00    +0.205 C 
ATOM     13  C   LIG    1       22.421 -14.567   2.927  0.00  0.00    -0.030 C 
ATOM     14  C   LIG    1       21.085 -14.410   2.416  0.00  0.00    +0.043 C 
ATOM     15  O   LIG    1       21.333 -16.161   6.678  0.00  0.00    -0.294 OA
ATOM     16  C   LIG    1       21.032 -17.340   4.353  0.00  0.00    +0.022 C 
ATOM     17  C   LIG    1       22.594 -18.694   5.964  0.00  0.00    +0.131 C 
ATOM     18  C   LIG    1       22.700 -20.111   5.272  0.00  0.00    +0.068 C 
ATOM     19  C   LIG    1       25.511 -16.804   3.307  0.00  0.00    +0.217 C 
ATOM     20  C   LIG    1       23.757 -20.067   4.154  0.00  0.00    +0.167 C 
ATOM     21  O   LIG    1       24.019 -21.106   3.171  0.00  0.00    -0.368 OA
ATOM     22  C   LIG    1       24.450 -20.055   2.223  0.00  0.00    +0.211 C 
ENDROOT
BRANCH  10  23
ATOM     23  O   LIG    1       26.481 -14.787   1.812  0.00  0.00    -0.384 OA
ATOM     24  H   LIG    1       27.310 -15.069   2.245  0.00  0.00    +0.210 HD
ENDBRANCH  10  23
BRANCH   5  25
ATOM     25  O   LIG    1       21.092 -13.914   5.306  0.00  0.00    -0.380 OA
ATOM     26  H   LIG    1       20.444 -14.457   4.804  0.00  0.00    +0.211 HD
ENDBRANCH   5  25
BRANCH  17  27
ATOM     27  O   LIG    1       21.537 -18.764   6.914  0.00  0.00    -0.391 OA
ATOM     28  H   LIG    1       20.748 -19.132   6.455  0.00  0.00    +0.210 HD
ENDBRANCH  17  27
BRANCH  12  29
ATOM     29  O   LIG    1       24.327 -15.711   4.776  0.00  0.00    -0.455 OA
BRANCH  29  30
ATOM     30  C   LIG    1       25.234 -15.111   5.905  0.00  0.00    +0.339 C 
ATOM     31  O   LIG    1       25.468 -15.616   7.009  0.00  0.00    -0.248 OA
BRANCH  30  32
ATOM     32  C   LIG    1       26.213 -13.910   5.886  0.00  0.00    +0.247 C 
BRANCH  32  33
ATOM     33  O   LIG    1       26.050 -13.039   4.700  0.00  0.00    -0.379 OA
ATOM     34  H   LIG    1       25.986 -13.603   3.908  0.00  0.00    +0.211 HD
ENDBRANCH  32  33
BRANCH  32  35
ATOM     35  C   LIG    1       27.811 -14.306   5.922  0.00  0.00    +0.146 C 
BRANCH  35  36
ATOM     36  C   LIG    1       28.384 -15.758   5.843  0.00  0.00    -0.024 A 
ATOM     37  C   LIG    1       28.621 -16.690   6.889  0.00  0.00    +0.005 A 
ATOM     38  C   LIG    1       29.048 -18.009   6.643  0.00  0.00    +0.000 A 
ATOM     39  C   LIG    1       29.400 -18.366   5.363  0.00  0.00    +0.000 A 
ATOM     40  C   LIG    1       29.315 -17.425   4.357  0.00  0.00    +0.000 A 
ATOM     41  C   LIG    1       28.791 -16.167   4.595  0.00  0.00    +0.005 A 
ENDBRANCH  35  36
BRANCH  35  42
ATOM     42  N   LIG    1       28.663 -13.496   6.723  0.00  0.00    -0.271 N 
ATOM     43  H   LIG    1       28.632 -13.443   7.738  0.00  0.00    +0.153 HD
ATOM     44  C   LIG    1       29.112 -12.337   6.138  0.00  0.00    +0.401 C 
ATOM     45  O   LIG    1       29.475 -11.453   6.824  0.00  0.00    -0.226 OA
BRANCH  44  46
ATOM     46  O   LIG    1       29.131 -12.479   4.796  0.00  0.00    -0.445 OA
BRANCH  46  47
ATOM     47  C   LIG    1       28.026 -12.165   3.917  0.00  0.00    +0.107 C 
ATOM     48  C   LIG    1       28.577 -11.494   2.635  0.00  0.00    +0.055 C 
ATOM     49  C   LIG    1       26.861 -11.493   4.646  0.00  0.00    +0.055 C 
ATOM     50  C   LIG    1       27.404 -13.314   3.254  0.00  0.00    +0.055 C 
ENDBRANCH  46  47
ENDBRANCH  44  46
ENDBRANCH  35  42
ENDBRANCH  32  35
ENDBRANCH  30  32
ENDBRANCH  29  30
ENDBRANCH  12  29
BRANCH  19  51
ATOM     51  O   LIG    1       26.790 -17.117   4.089  0.00  0.00    -0.455 OA
BRANCH  51  52
ATOM     52  C   LIG    1       27.363 -18.314   4.069  0.00  0.00    +0.340 C 
ATOM     53  O   LIG    1       27.915 -18.679   2.921  0.00  0.00    -0.245 OA
BRANCH  52  54
ATOM     54  C   LIG    1       27.414 -19.330   5.172  0.00  0.00    +0.059 A 
ATOM     55  C   LIG    1       26.201 -19.182   5.806  0.00  0.00    +0.015 A 
ATOM     56  C   LIG    1       25.727 -20.160   6.662  0.00  0.00    +0.001 A 
ATOM     57  C   LIG    1       26.445 -21.315   6.968  0.00  0.00    +0.000 A 
ATOM     58  C   LIG    1       27.687 -21.507   6.417  0.00  0.00    +0.001 A 
ATOM     59  C   LIG    1       28.139 -20.548   5.498  0.00  0.00    +0.015 A 
ENDBRANCH  52  54
ENDBRANCH  51  52
ENDBRANCH  19  51
BRANCH   1  60
ATOM     60  O   LIG    1       22.209 -18.885   2.462  0.00  0.00    -0.453 OA
BRANCH  60  62
ATOM     61  C   LIG    1       19.853 -19.554   2.473  0.00  0.00    +0.136 C 
ATOM     62  C   LIG    1       21.260 -19.805   2.866  0.00  0.00    +0.305 C 
ATOM     63  O   LIG    1       21.430 -20.767   3.603  0.00  0.00    -0.251 OA
ENDBRANCH  60  62
ENDBRANCH   1  60
TORSDOF 17
ENDMDL
