MODEL 1
REMARK VINA RESULT:      -4.7      0.000      0.000
REMARK  Name = *****
REMARK                            x       y       z     vdW  Elec       q    Type
REMARK                         _______ _______ _______ _____ _____    ______ ____
ROOT
ATOM      1  CA  SER A  1       30.451 -20.901   8.215  0.00  0.00    +0.186 C 
ENDROOT
BRANCH   1   2
ATOM      2  N   SER A  1       28.963 -21.049   8.349  0.00  0.00    -0.317 NA
ATOM      3  H1  SER A  1       28.582 -20.561   7.519  0.00  0.00    +0.119 HD
ATOM      4  H2  SER A  1       28.739 -22.027   8.144  0.00  0.00    +0.119 HD
ENDBRANCH   1   2
BRANCH   1   5
ATOM      5  C   SER A  1       31.130 -21.906   9.154  0.00  0.00    +0.324 C 
ATOM      6  O   SER A  1       30.782 -22.142  10.304  0.00  0.00    -0.249 OA
BRANCH   5   7
ATOM      7  OXT SER A  1       32.205 -22.490   8.564  0.00  0.00    -0.479 OA
ATOM      8  HXT SER A  1       32.994 -22.080   9.001  0.00  0.00    +0.295 HD
ENDBRANCH   5   7
ENDBRANCH   1   5
BRANCH   1   9
ATOM      9  CB  SER A  1       30.897 -19.477   8.572  0.00  0.00    +0.185 C 
BRANCH   9  10
ATOM     10  OG  SER A  1       32.118 -19.536   9.320  0.00  0.00    -0.393 OA
ATOM     11  H   SER A  1       31.988 -20.199  10.022  0.00  0.00    +0.209 HD
ENDBRANCH   9  10
ENDBRANCH   1   9
TORSDOF 5
ENDMDL
MODEL 2
REMARK VINA RESULT:      -4.5      1.833      3.146
REMARK  Name = *****
REMARK                            x       y       z     vdW  Elec       q    Type
REMARK                         _______ _______ _______ _____ _____    ______ ____
ROOT
ATOM      1  CA  SER A  1       30.928 -19.519   8.165  0.00  0.00    +0.186 C 
ENDROOT
BRANCH   1   2
ATOM      2  N   SER A  1       31.519 -19.644   6.790  0.00  0.00    -0.317 NA
ATOM      3  H1  SER A  1       32.267 -18.929   6.767  0.00  0.00    +0.119 HD
ATOM      4  H2  SER A  1       32.056 -20.516   6.772  0.00  0.00    +0.119 HD
ENDBRANCH   1   2
BRANCH   1   5
ATOM      5  C   SER A  1       31.734 -18.479   8.952  0.00  0.00    +0.324 C 
ATOM      6  O   SER A  1       31.871 -18.469  10.169  0.00  0.00    -0.249 OA
BRANCH   5   7
ATOM      7  OXT SER A  1       32.258 -17.531   8.133  0.00  0.00    -0.479 OA
ATOM      8  HXT SER A  1       31.477 -17.105   7.697  0.00  0.00    +0.295 HD
ENDBRANCH   5   7
ENDBRANCH   1   5
BRANCH   1   9
ATOM      9  CB  SER A  1       30.958 -20.864   8.901  0.00  0.00    +0.185 C 
BRANCH   9  10
ATOM     10  OG  SER A  1       32.292 -21.127   9.355  0.00  0.00    -0.393 OA
ATOM     11  H   SER A  1       32.464 -22.073   9.192  0.00  0.00    +0.209 HD
ENDBRANCH   9  10
ENDBRANCH   1   9
TORSDOF 5
ENDMDL
MODEL 3
REMARK VINA RESULT:      -4.5      3.957      4.412
REMARK  Name = *****
REMARK                            x       y       z     vdW  Elec       q    Type
REMARK                         _______ _______ _______ _____ _____    ______ ____
ROOT
ATOM      1  CA  SER A  1       31.684 -18.105   8.752  0.00  0.00    +0.186 C 
ENDROOT
BRANCH   1   2
ATOM      2  N   SER A  1       32.033 -19.474   9.260  0.00  0.00    -0.317 NA
ATOM      3  H1  SER A  1       31.209 -20.054   9.022  0.00  0.00    +0.119 HD
ATOM      4  H2  SER A  1       32.749 -19.853   8.634  0.00  0.00    +0.119 HD
ENDBRANCH   1   2
BRANCH   1   5
ATOM      5  C   SER A  1       32.505 -17.069   9.529  0.00  0.00    +0.324 C 
ATOM      6  O   SER A  1       32.903 -17.205  10.679  0.00  0.00    -0.249 OA
BRANCH   5   7
ATOM      7  OXT SER A  1       32.713 -15.946   8.794  0.00  0.00    -0.479 OA
ATOM      8  HXT SER A  1       32.121 -15.261   9.197  0.00  0.00    +0.295 HD
ENDBRANCH   5   7
ENDBRANCH   1   5
BRANCH   1   9
ATOM      9  CB  SER A  1       30.187 -17.818   8.928  0.00  0.00    +0.185 C 
BRANCH   9  10
ATOM     10  OG  SER A  1       30.021 -16.645   9.735  0.00  0.00    -0.393 OA
ATOM     11  H   SER A  1       29.185 -16.755  10.224  0.00  0.00    +0.209 HD
ENDBRANCH   9  10
ENDBRANCH   1   9
TORSDOF 5
ENDMDL
MODEL 4
REMARK VINA RESULT:      -4.5      3.406      4.173
REMARK  Name = *****
REMARK                            x       y       z     vdW  Elec       q    Type
REMARK                         _______ _______ _______ _____ _____    ______ ____
ROOT
ATOM      1  CA  SER A  1       32.142 -17.225   9.716  0.00  0.00    +0.186 C 
ENDROOT
BRANCH   1   2
ATOM      2  N   SER A  1       32.640 -16.050   8.923  0.00  0.00    -0.317 NA
ATOM      3  H1  SER A  1       33.584 -16.335   8.609  0.00  0.00    +0.119 HD
ATOM      4  H2  SER A  1       32.116 -16.038   8.043  0.00  0.00    +0.119 HD
ENDBRANCH   1   2
BRANCH   1   5
ATOM      5  C   SER A  1       31.768 -18.349   8.743  0.00  0.00    +0.324 C 
ATOM      6  O   SER A  1       31.201 -18.192   7.669  0.00  0.00    -0.249 OA
BRANCH   5   7
ATOM      7  OXT SER A  1       32.112 -19.568   9.234  0.00  0.00    -0.479 OA
ATOM      8  HXT SER A  1       32.731 -19.953   8.563  0.00  0.00    +0.295 HD
ENDBRANCH   5   7
ENDBRANCH   1   5
BRANCH   1   9
ATOM      9  CB  SER A  1       30.920 -16.842  10.559  0.00  0.00    +0.185 C 
BRANCH   9  10
ATOM     10  OG  SER A  1       30.012 -17.950  10.609  0.00  0.00    -0.393 OA
ATOM     11  H   SER A  1       29.111 -17.579  10.559  0.00  0.00    +0.209 HD
ENDBRANCH   9  10
ENDBRANCH   1   9
TORSDOF 5
ENDMDL
MODEL 5
REMARK VINA RESULT:      -4.4      2.817      3.698
REMARK  Name = *****
REMARK                            x       y       z     vdW  Elec       q    Type
REMARK                         _______ _______ _______ _____ _____    ______ ____
ROOT
ATOM      1  CA  SER A  1       30.812 -17.574   9.619  0.00  0.00    +0.186 C 
ENDROOT
BRANCH   1   2
ATOM      2  N   SER A  1       30.622 -18.303  10.918  0.00  0.00    -0.317 NA
ATOM      3  H1  SER A  1       30.044 -19.124  10.668  0.00  0.00    +0.119 HD
ATOM      4  H2  SER A  1       31.520 -18.736  11.153  0.00  0.00    +0.119 HD
ENDBRANCH   1   2
BRANCH   1   5
ATOM      5  C   SER A  1       31.396 -18.550   8.590  0.00  0.00    +0.324 C 
ATOM      6  O   SER A  1       31.194 -18.505   7.384  0.00  0.00    -0.249 OA
BRANCH   5   7
ATOM      7  OXT SER A  1       32.148 -19.511   9.187  0.00  0.00    -0.479 OA
ATOM      8  HXT SER A  1       31.932 -20.347   8.701  0.00  0.00    +0.295 HD
ENDBRANCH   5   7
ENDBRANCH   1   5
BRANCH   1   9
ATOM      9  CB  SER A  1       31.757 -16.378   9.792  0.00  0.00    +0.185 C 
BRANCH   9  10
ATOM     10  OG  SER A  1       32.672 -16.332   8.690  0.00  0.00    -0.393 OA
ATOM     11  H   SER A  1       33.174 -15.500   8.774  0.00  0.00    +0.209 HD
ENDBRANCH   9  10
ENDBRANCH   1   9
TORSDOF 5
ENDMDL
MODEL 6
REMARK VINA RESULT:      -4.4      3.276      4.298
REMARK  Name = *****
REMARK                            x       y       z     vdW  Elec       q    Type
REMARK                         _______ _______ _______ _____ _____    ______ ____
ROOT
ATOM      1  CA  SER A  1       31.546 -17.272   9.169  0.00  0.00    +0.186 C 
ENDROOT
BRANCH   1   2
ATOM      2  N   SER A  1       32.592 -16.263   8.792  0.00  0.00    -0.317 NA
ATOM      3  H1  SER A  1       32.150 -15.348   8.992  0.00  0.00    +0.119 HD
ATOM      4  H2  SER A  1       33.324 -16.307   9.508  0.00  0.00    +0.119 HD
ENDBRANCH   1   2
BRANCH   1   5
ATOM      5  C   SER A  1       31.696 -17.600  10.659  0.00  0.00    +0.324 C 
ATOM      6  O   SER A  1       32.698 -17.386  11.330  0.00  0.00    -0.249 OA
BRANCH   5   7
ATOM      7  OXT SER A  1       30.582 -18.201  11.151  0.00  0.00    -0.479 OA
ATOM      8  HXT SER A  1       30.291 -17.630  11.906  0.00  0.00    +0.295 HD
ENDBRANCH   5   7
ENDBRANCH   1   5
BRANCH   1   9
ATOM      9  CB  SER A  1       31.693 -18.553   8.339  0.00  0.00    +0.185 C 
BRANCH   9  10
ATOM     10  OG  SER A  1       32.119 -19.624   9.191  0.00  0.00    -0.393 OA
ATOM     11  H   SER A  1       31.313 -20.032   9.556  0.00  0.00    +0.209 HD
ENDBRANCH   9  10
ENDBRANCH   1   9
TORSDOF 5
ENDMDL
MODEL 7
REMARK VINA RESULT:      -4.4      1.723      2.198
REMARK  Name = *****
REMARK                            x       y       z     vdW  Elec       q    Type
REMARK                         _______ _______ _______ _____ _____    ______ ____
ROOT
ATOM      1  CA  SER A  1       30.575 -20.604   8.372  0.00  0.00    +0.186 C 
ENDROOT
BRANCH   1   2
ATOM      2  N   SER A  1       31.645 -20.087   7.455  0.00  0.00    -0.317 NA
ATOM      3  H1  SER A  1       31.871 -19.148   7.828  0.00  0.00    +0.119 HD
ATOM      4  H2  SER A  1       32.499 -20.612   7.665  0.00  0.00    +0.119 HD
ENDBRANCH   1   2
BRANCH   1   5
ATOM      5  C   SER A  1       31.141 -21.786   9.169  0.00  0.00    +0.324 C 
ATOM      6  O   SER A  1       30.718 -22.172  10.252  0.00  0.00    -0.249 OA
BRANCH   5   7
ATOM      7  OXT SER A  1       32.209 -22.343   8.542  0.00  0.00    -0.479 OA
ATOM      8  HXT SER A  1       31.921 -23.261   8.307  0.00  0.00    +0.295 HD
ENDBRANCH   5   7
ENDBRANCH   1   5
BRANCH   1   9
ATOM      9  CB  SER A  1       29.342 -21.057   7.580  0.00  0.00    +0.185 C 
BRANCH   9  10
ATOM     10  OG  SER A  1       28.293 -21.406   8.492  0.00  0.00    -0.393 OA
ATOM     11  H   SER A  1       28.266 -22.379   8.533  0.00  0.00    +0.209 HD
ENDBRANCH   9  10
ENDBRANCH   1   9
TORSDOF 5
ENDMDL
MODEL 8
REMARK VINA RESULT:      -4.3      2.927      3.313
REMARK  Name = *****
REMARK                            x       y       z     vdW  Elec       q    Type
REMARK                         _______ _______ _______ _____ _____    ______ ____
ROOT
ATOM      1  CA  SER A  1       31.150 -19.004   9.024  0.00  0.00    +0.186 C 
ENDROOT
BRANCH   1   2
ATOM      2  N   SER A  1       31.934 -20.253   9.310  0.00  0.00    -0.317 NA
ATOM      3  H1  SER A  1       32.876 -19.910   9.569  0.00  0.00    +0.119 HD
ATOM      4  H2  SER A  1       31.590 -20.625  10.200  0.00  0.00    +0.119 HD
ENDBRANCH   1   2
BRANCH   1   5
ATOM      5  C   SER A  1       30.912 -18.911   7.512  0.00  0.00    +0.324 C 
ATOM      6  O   SER A  1       30.065 -18.209   6.974  0.00  0.00    -0.249 OA
BRANCH   5   7
ATOM      7  OXT SER A  1       31.740 -19.741   6.825  0.00  0.00    -0.479 OA
ATOM      8  HXT SER A  1       31.145 -20.424   6.422  0.00  0.00    +0.295 HD
ENDBRANCH   5   7
ENDBRANCH   1   5
BRANCH   1   9
ATOM      9  CB  SER A  1       31.904 -17.759   9.507  0.00  0.00    +0.185 C 
BRANCH   9  10
ATOM     10  OG  SER A  1       32.382 -17.024   8.373  0.00  0.00    -0.393 OA
ATOM     11  H   SER A  1       31.960 -16.145   8.407  0.00  0.00    +0.209 HD
ENDBRANCH   9  10
ENDBRANCH   1   9
TORSDOF 5
ENDMDL
MODEL 9
REMARK VINA RESULT:      -4.3      1.063      2.697
REMARK  Name = *****
REMARK                            x       y       z     vdW  Elec       q    Type
REMARK                         _______ _______ _______ _____ _____    ______ ____
ROOT
ATOM      1  CA  SER A  1       30.310 -20.842   8.505  0.00  0.00    +0.186 C 
ENDROOT
BRANCH   1   2
ATOM      2  N   SER A  1       29.591 -21.216   7.241  0.00  0.00    -0.317 NA
ATOM      3  H1  SER A  1       29.942 -22.165   7.018  0.00  0.00    +0.119 HD
ATOM      4  H2  SER A  1       28.617 -21.403   7.495  0.00  0.00    +0.119 HD
ENDBRANCH   1   2
BRANCH   1   5
ATOM      5  C   SER A  1       31.430 -19.853   8.159  0.00  0.00    +0.324 C 
ATOM      6  O   SER A  1       31.747 -19.518   7.024  0.00  0.00    -0.249 OA
BRANCH   5   7
ATOM      7  OXT SER A  1       32.067 -19.411   9.274  0.00  0.00    -0.479 OA
ATOM      8  HXT SER A  1       31.344 -19.116   9.884  0.00  0.00    +0.295 HD
ENDBRANCH   5   7
ENDBRANCH   1   5
BRANCH   1   9
ATOM      9  CB  SER A  1       30.906 -22.081   9.187  0.00  0.00    +0.185 C 
BRANCH   9  10
ATOM     10  OG  SER A  1       32.226 -22.314   8.677  0.00  0.00    -0.393 OA
ATOM     11  H   SER A  1       32.534 -21.472   8.294  0.00  0.00    +0.209 HD
ENDBRANCH   9  10
ENDBRANCH   1   9
TORSDOF 5
ENDMDL
