MODEL 1
REMARK VINA RESULT:      -3.4      0.000      0.000
REMARK  Name = *****
REMARK                            x       y       z     vdW  Elec       q    Type
REMARK                         _______ _______ _______ _____ _____    ______ ____
ROOT
ATOM      1  N   LIG    1       24.827 -19.108   4.300  0.00  0.00    -0.298 N 
ATOM      2  C   LIG    1       25.660 -19.798   5.228  0.00  0.00    +0.049 A 
ATOM      3  C   LIG    1       25.185 -20.879   5.996  0.00  0.00    +0.034 A 
ATOM      4  C   LIG    1       26.037 -21.572   6.883  0.00  0.00    +0.018 A 
ATOM      5  C   LIG    1       27.366 -21.195   7.044  0.00  0.00    +0.021 A 
ATOM      6  C   LIG    1       27.841 -20.112   6.333  0.00  0.00    +0.043 A 
ATOM      7 CL   LIG    1       29.475 -19.606   6.530  0.00  0.00    -0.084 Cl
ATOM      8  S   LIG    1       23.519 -21.491   5.914  0.00  0.00    -0.086 S 
ATOM      9  C   LIG    1       22.726 -20.283   4.876  0.00  0.00    +0.034 A 
ATOM     10  C   LIG    1       21.327 -20.418   4.762  0.00  0.00    +0.017 A 
ATOM     11  C   LIG    1       20.587 -19.562   3.955  0.00  0.00    +0.001 A 
ATOM     12  C   LIG    1       21.239 -18.571   3.247  0.00  0.00    +0.002 A 
ATOM     13  C   LIG    1       22.630 -18.436   3.353  0.00  0.00    +0.024 A 
ATOM     14  C   LIG    1       27.002 -19.421   5.449  0.00  0.00    +0.044 A 
ATOM     15  C   LIG    1       23.417 -19.280   4.170  0.00  0.00    +0.048 A 
ENDROOT
BRANCH   1  16
ATOM     16  C   LIG    1       25.510 -18.373   3.206  0.00  0.00    +0.112 C 
BRANCH  16  17
ATOM     17  C   LIG    1       25.383 -16.851   3.372  0.00  0.00    +0.035 C 
BRANCH  17  18
ATOM     18  C   LIG    1       26.759 -16.169   3.388  0.00  0.00    +0.085 C 
BRANCH  18  20
ATOM     19  C   LIG    1       25.438 -14.164   3.207  0.00  0.00    +0.104 C 
ATOM     20  N   LIG    1       26.745 -14.768   2.935  0.00  0.00    -0.308 NA
ATOM     21  C   LIG    1       27.791 -13.967   3.574  0.00  0.00    +0.104 C 
ENDBRANCH  18  20
ENDBRANCH  17  18
ENDBRANCH  16  17
ENDBRANCH   1  16
TORSDOF 4
ENDMDL
MODEL 2
REMARK VINA RESULT:      -3.0      2.454      5.148
REMARK  Name = *****
REMARK                            x       y       z     vdW  Elec       q    Type
REMARK                         _______ _______ _______ _____ _____    ______ ____
ROOT
ATOM      1  N   LIG    1       25.107 -17.994   3.702  0.00  0.00    -0.298 N 
ATOM      2  C   LIG    1       24.990 -16.573   3.686  0.00  0.00    +0.049 A 
ATOM      3  C   LIG    1       23.830 -15.915   4.138  0.00  0.00    +0.034 A 
ATOM      4  C   LIG    1       23.749 -14.506   4.148  0.00  0.00    +0.018 A 
ATOM      5  C   LIG    1       24.804 -13.723   3.691  0.00  0.00    +0.021 A 
ATOM      6  C   LIG    1       25.933 -14.348   3.203  0.00  0.00    +0.043 A 
ATOM      7 CL   LIG    1       27.245 -13.406   2.605  0.00  0.00    -0.084 Cl
ATOM      8  S   LIG    1       22.394 -16.760   4.757  0.00  0.00    -0.086 S 
ATOM      9  C   LIG    1       22.782 -18.461   4.414  0.00  0.00    +0.034 A 
ATOM     10  C   LIG    1       21.734 -19.374   4.651  0.00  0.00    +0.017 A 
ATOM     11  C   LIG    1       21.913 -20.739   4.458  0.00  0.00    +0.001 A 
ATOM     12  C   LIG    1       23.143 -21.204   4.036  0.00  0.00    +0.002 A 
ATOM     13  C   LIG    1       24.190 -20.301   3.803  0.00  0.00    +0.024 A 
ATOM     14  C   LIG    1       26.021 -15.746   3.192  0.00  0.00    +0.044 A 
ATOM     15  C   LIG    1       24.046 -18.906   3.979  0.00  0.00    +0.048 A 
ENDROOT
BRANCH   1  16
ATOM     16  C   LIG    1       26.481 -18.552   3.710  0.00  0.00    +0.112 C 
BRANCH  16  17
ATOM     17  C   LIG    1       26.664 -19.611   4.808  0.00  0.00    +0.035 C 
BRANCH  17  18
ATOM     18  C   LIG    1       27.988 -19.420   5.561  0.00  0.00    +0.085 C 
BRANCH  18  20
ATOM     19  C   LIG    1       26.855 -20.924   7.062  0.00  0.00    +0.104 C 
ATOM     20  N   LIG    1       28.033 -20.072   6.881  0.00  0.00    -0.308 NA
ATOM     21  C   LIG    1       29.243 -20.876   7.062  0.00  0.00    +0.104 C 
ENDBRANCH  18  20
ENDBRANCH  17  18
ENDBRANCH  16  17
ENDBRANCH   1  16
TORSDOF 4
ENDMDL
MODEL 3
REMARK VINA RESULT:      -2.1      2.369      4.855
REMARK  Name = *****
REMARK                            x       y       z     vdW  Elec       q    Type
REMARK                         _______ _______ _______ _____ _____    ______ ____
ROOT
ATOM      1  N   LIG    1       25.977 -19.089   4.455  0.00  0.00    -0.298 N 
ATOM      2  C   LIG    1       24.588 -19.385   4.574  0.00  0.00    +0.049 A 
ATOM      3  C   LIG    1       24.079 -20.169   5.626  0.00  0.00    +0.034 A 
ATOM      4  C   LIG    1       22.695 -20.420   5.745  0.00  0.00    +0.018 A 
ATOM      5  C   LIG    1       21.792 -19.919   4.813  0.00  0.00    +0.021 A 
ATOM      6  C   LIG    1       22.273 -19.184   3.749  0.00  0.00    +0.043 A 
ATOM      7 CL   LIG    1       21.183 -18.573   2.565  0.00  0.00    -0.084 Cl
ATOM      8  S   LIG    1       25.090 -20.883   6.902  0.00  0.00    -0.086 S 
ATOM      9  C   LIG    1       26.733 -20.528   6.321  0.00  0.00    +0.034 A 
ATOM     10  C   LIG    1       27.772 -21.129   7.062  0.00  0.00    +0.017 A 
ATOM     11  C   LIG    1       29.105 -20.907   6.739  0.00  0.00    +0.001 A 
ATOM     12  C   LIG    1       29.412 -20.075   5.680  0.00  0.00    +0.002 A 
ATOM     13  C   LIG    1       28.383 -19.471   4.944  0.00  0.00    +0.024 A 
ATOM     14  C   LIG    1       23.645 -18.929   3.626  0.00  0.00    +0.044 A 
ATOM     15  C   LIG    1       27.015 -19.678   5.235  0.00  0.00    +0.048 A 
ENDROOT
BRANCH   1  16
ATOM     16  C   LIG    1       26.340 -17.884   3.668  0.00  0.00    +0.112 C 
BRANCH  16  17
ATOM     17  C   LIG    1       25.222 -16.831   3.683  0.00  0.00    +0.035 C 
BRANCH  17  18
ATOM     18  C   LIG    1       25.755 -15.438   3.316  0.00  0.00    +0.085 C 
BRANCH  18  20
ATOM     19  C   LIG    1       26.311 -13.628   4.804  0.00  0.00    +0.104 C 
ATOM     20  N   LIG    1       25.217 -14.347   4.145  0.00  0.00    -0.308 NA
ATOM     21  C   LIG    1       24.417 -13.400   3.365  0.00  0.00    +0.104 C 
ENDBRANCH  18  20
ENDBRANCH  17  18
ENDBRANCH  16  17
ENDBRANCH   1  16
TORSDOF 4
ENDMDL
MODEL 4
REMARK VINA RESULT:      -1.2      2.619      5.833
REMARK  Name = *****
REMARK                            x       y       z     vdW  Elec       q    Type
REMARK                         _______ _______ _______ _____ _____    ______ ____
ROOT
ATOM      1  N   LIG    1       25.623 -17.139   3.805  0.00  0.00    -0.298 N 
ATOM      2  C   LIG    1       24.351 -17.713   4.093  0.00  0.00    +0.049 A 
ATOM      3  C   LIG    1       23.171 -16.945   4.104  0.00  0.00    +0.034 A 
ATOM      4  C   LIG    1       21.916 -17.540   4.356  0.00  0.00    +0.018 A 
ATOM      5  C   LIG    1       21.808 -18.901   4.624  0.00  0.00    +0.021 A 
ATOM      6  C   LIG    1       22.956 -19.664   4.661  0.00  0.00    +0.043 A 
ATOM      7 CL   LIG    1       22.856 -21.346   5.016  0.00  0.00    -0.084 Cl
ATOM      8  S   LIG    1       23.129 -15.198   3.781  0.00  0.00    -0.086 S 
ATOM      9  C   LIG    1       24.858 -14.787   3.708  0.00  0.00    +0.034 A 
ATOM     10  C   LIG    1       25.143 -13.409   3.624  0.00  0.00    +0.017 A 
ATOM     11  C   LIG    1       26.452 -12.951   3.525  0.00  0.00    +0.001 A 
ATOM     12  C   LIG    1       27.485 -13.866   3.499  0.00  0.00    +0.002 A 
ATOM     13  C   LIG    1       27.207 -15.238   3.577  0.00  0.00    +0.024 A 
ATOM     14  C   LIG    1       24.204 -19.081   4.410  0.00  0.00    +0.044 A 
ATOM     15  C   LIG    1       25.891 -15.743   3.687  0.00  0.00    +0.048 A 
ENDROOT
BRANCH   1  16
ATOM     16  C   LIG    1       26.678 -18.061   3.316  0.00  0.00    +0.112 C 
BRANCH  16  17
ATOM     17  C   LIG    1       27.761 -18.310   4.377  0.00  0.00    +0.035 C 
BRANCH  17  18
ATOM     18  C   LIG    1       27.508 -19.616   5.144  0.00  0.00    +0.085 C 
BRANCH  18  20
ATOM     19  C   LIG    1       29.474 -18.992   6.388  0.00  0.00    +0.104 C 
ATOM     20  N   LIG    1       28.677 -20.116   5.889  0.00  0.00    -0.308 NA
ATOM     21  C   LIG    1       28.294 -20.973   7.012  0.00  0.00    +0.104 C 
ENDBRANCH  18  20
ENDBRANCH  17  18
ENDBRANCH  16  17
ENDBRANCH   1  16
TORSDOF 4
ENDMDL
MODEL 5
REMARK VINA RESULT:      -0.5      2.835      6.302
REMARK  Name = *****
REMARK                            x       y       z     vdW  Elec       q    Type
REMARK                         _______ _______ _______ _____ _____    ______ ____
ROOT
ATOM      1  N   LIG    1       26.085 -18.104   3.993  0.00  0.00    -0.298 N 
ATOM      2  C   LIG    1       26.486 -16.758   3.751  0.00  0.00    +0.049 A 
ATOM      3  C   LIG    1       27.748 -16.272   4.144  0.00  0.00    +0.034 A 
ATOM      4  C   LIG    1       28.138 -14.945   3.862  0.00  0.00    +0.018 A 
ATOM      5  C   LIG    1       27.281 -14.069   3.204  0.00  0.00    +0.021 A 
ATOM      6  C   LIG    1       26.024 -14.511   2.848  0.00  0.00    +0.043 A 
ATOM      7 CL   LIG    1       24.931 -13.442   2.056  0.00  0.00    -0.084 Cl
ATOM      8  S   LIG    1       28.963 -17.255   4.989  0.00  0.00    -0.086 S 
ATOM      9  C   LIG    1       28.064 -18.751   5.334  0.00  0.00    +0.034 A 
ATOM     10  C   LIG    1       28.735 -19.677   6.159  0.00  0.00    +0.017 A 
ATOM     11  C   LIG    1       28.161 -20.901   6.478  0.00  0.00    +0.001 A 
ATOM     12  C   LIG    1       26.917 -21.216   5.968  0.00  0.00    +0.002 A 
ATOM     13  C   LIG    1       26.248 -20.301   5.143  0.00  0.00    +0.024 A 
ATOM     14  C   LIG    1       25.630 -15.827   3.123  0.00  0.00    +0.044 A 
ATOM     15  C   LIG    1       26.793 -19.042   4.802  0.00  0.00    +0.048 A 
ENDROOT
BRANCH   1  16
ATOM     16  C   LIG    1       25.016 -18.652   3.122  0.00  0.00    +0.112 C 
BRANCH  16  17
ATOM     17  C   LIG    1       23.659 -18.700   3.841  0.00  0.00    +0.035 C 
BRANCH  17  18
ATOM     18  C   LIG    1       23.145 -20.141   3.977  0.00  0.00    +0.085 C 
BRANCH  18  20
ATOM     19  C   LIG    1       21.481 -21.571   4.969  0.00  0.00    +0.104 C 
ATOM     20  N   LIG    1       22.300 -20.372   5.161  0.00  0.00    -0.308 NA
ATOM     21  C   LIG    1       23.089 -20.516   6.386  0.00  0.00    +0.104 C 
ENDBRANCH  18  20
ENDBRANCH  17  18
ENDBRANCH  16  17
ENDBRANCH   1  16
TORSDOF 4
ENDMDL
MODEL 6
REMARK VINA RESULT:      -0.5      3.268      5.190
REMARK  Name = *****
REMARK                            x       y       z     vdW  Elec       q    Type
REMARK                         _______ _______ _______ _____ _____    ______ ____
ROOT
ATOM      1  N   LIG    1       25.254 -16.668   3.381  0.00  0.00    -0.298 N 
ATOM      2  C   LIG    1       24.768 -15.328   3.380  0.00  0.00    +0.049 A 
ATOM      3  C   LIG    1       23.547 -14.977   3.986  0.00  0.00    +0.034 A 
ATOM      4  C   LIG    1       23.101 -13.638   4.005  0.00  0.00    +0.018 A 
ATOM      5  C   LIG    1       23.844 -12.625   3.406  0.00  0.00    +0.021 A 
ATOM      6  C   LIG    1       25.023 -12.954   2.769  0.00  0.00    +0.043 A 
ATOM      7 CL   LIG    1       25.951 -11.726   1.997  0.00  0.00    -0.084 Cl
ATOM      8  S   LIG    1       22.477 -16.142   4.796  0.00  0.00    -0.086 S 
ATOM      9  C   LIG    1       23.249 -17.696   4.405  0.00  0.00    +0.034 A 
ATOM     10  C   LIG    1       22.517 -18.840   4.785  0.00  0.00    +0.017 A 
ATOM     11  C   LIG    1       23.020 -20.118   4.572  0.00  0.00    +0.001 A 
ATOM     12  C   LIG    1       24.262 -20.263   3.985  0.00  0.00    +0.002 A 
ATOM     13  C   LIG    1       24.996 -19.129   3.610  0.00  0.00    +0.024 A 
ATOM     14  C   LIG    1       25.472 -14.280   2.748  0.00  0.00    +0.044 A 
ATOM     15  C   LIG    1       24.516 -17.813   3.803  0.00  0.00    +0.048 A 
ENDROOT
BRANCH   1  16
ATOM     16  C   LIG    1       26.716 -16.850   3.202  0.00  0.00    +0.112 C 
BRANCH  16  17
ATOM     17  C   LIG    1       27.523 -16.104   4.276  0.00  0.00    +0.035 C 
BRANCH  17  18
ATOM     18  C   LIG    1       27.952 -14.711   3.792  0.00  0.00    +0.085 C 
BRANCH  18  20
ATOM     19  C   LIG    1       28.695 -12.483   4.321  0.00  0.00    +0.104 C 
ATOM     20  N   LIG    1       28.185 -13.740   4.874  0.00  0.00    -0.308 NA
ATOM     21  C   LIG    1       26.973 -13.472   5.650  0.00  0.00    +0.104 C 
ENDBRANCH  18  20
ENDBRANCH  17  18
ENDBRANCH  16  17
ENDBRANCH   1  16
TORSDOF 4
ENDMDL
