MODEL 1
REMARK VINA RESULT:      -7.9      0.000      0.000
REMARK  Name = *****
REMARK                            x       y       z     vdW  Elec       q    Type
REMARK                         _______ _______ _______ _____ _____    ______ ____
ROOT
ATOM      1  C   LIG    1       26.218 -20.875   8.371  0.00  0.00    +0.180 C 
ATOM      2  O   LIG    1       25.910 -20.515   9.519  0.00  0.00    -0.290 OA
ENDROOT
BRANCH   1   3
ATOM      3  C   LIG    1       25.454 -22.017   7.754  0.00  0.00    +0.020 A 
ATOM      4  C   LIG    1       26.041 -23.246   7.429  0.00  0.00    +0.031 A 
ATOM      5  C   LIG    1       25.272 -24.262   6.852  0.00  0.00    +0.042 A 
ATOM      6 CL   LIG    1       26.013 -25.769   6.468  0.00  0.00    -0.084 Cl
ATOM      7  C   LIG    1       23.917 -24.077   6.593  0.00  0.00    +0.020 A 
ATOM      8  C   LIG    1       23.324 -22.856   6.901  0.00  0.00    +0.002 A 
ATOM      9  C   LIG    1       24.089 -21.831   7.469  0.00  0.00    +0.011 A 
ENDBRANCH   1   3
BRANCH   1  11
ATOM     10  C   LIG    1       27.042 -20.295   6.095  0.00  0.00    +0.032 C 
ATOM     11  C   LIG    1       27.344 -20.162   7.597  0.00  0.00    +0.123 C 
BRANCH  11  12
ATOM     12  N   LIG    1       28.664 -20.784   7.837  0.00  0.00    -0.302 NA
ATOM     13  H   LIG    1       28.584 -21.398   8.652  0.00  0.00    +0.123 HD
BRANCH  12  14
ATOM     14  C   LIG    1       29.864 -19.936   7.954  0.00  0.00    +0.011 C 
ATOM     15  C   LIG    1       30.939 -20.796   8.657  0.00  0.00    +0.027 C 
ATOM     16  C   LIG    1       29.656 -18.682   8.815  0.00  0.00    +0.027 C 
ATOM     17  C   LIG    1       30.424 -19.526   6.583  0.00  0.00    +0.027 C 
ENDBRANCH  12  14
ENDBRANCH  11  12
ENDBRANCH   1  11
TORSDOF 4
ENDMDL
MODEL 2
REMARK VINA RESULT:      -7.7      2.339      2.795
REMARK  Name = *****
REMARK                            x       y       z     vdW  Elec       q    Type
REMARK                         _______ _______ _______ _____ _____    ______ ____
ROOT
ATOM      1  C   LIG    1       26.444 -20.479   8.028  0.00  0.00    +0.180 C 
ATOM      2  O   LIG    1       26.179 -20.415   9.240  0.00  0.00    -0.290 OA
ENDROOT
BRANCH   1   3
ATOM      3  C   LIG    1       25.306 -20.661   7.060  0.00  0.00    +0.020 A 
ATOM      4  C   LIG    1       25.406 -20.371   5.694  0.00  0.00    +0.031 A 
ATOM      5  C   LIG    1       24.305 -20.558   4.851  0.00  0.00    +0.042 A 
ATOM      6 CL   LIG    1       24.455 -20.203   3.173  0.00  0.00    -0.084 Cl
ATOM      7  C   LIG    1       23.096 -21.035   5.348  0.00  0.00    +0.020 A 
ATOM      8  C   LIG    1       22.978 -21.316   6.706  0.00  0.00    +0.002 A 
ATOM      9  C   LIG    1       24.072 -21.122   7.556  0.00  0.00    +0.011 A 
ENDBRANCH   1   3
BRANCH   1  11
ATOM     10  C   LIG    1       28.453 -21.783   7.353  0.00  0.00    +0.032 C 
ATOM     11  C   LIG    1       27.898 -20.361   7.533  0.00  0.00    +0.123 C 
BRANCH  11  12
ATOM     12  N   LIG    1       28.765 -19.670   8.513  0.00  0.00    -0.302 NA
ATOM     13  H   LIG    1       28.176 -19.060   9.086  0.00  0.00    +0.123 HD
BRANCH  12  14
ATOM     14  C   LIG    1       29.958 -18.939   8.050  0.00  0.00    +0.011 C 
ATOM     15  C   LIG    1       29.669 -18.509   6.594  0.00  0.00    +0.027 C 
ATOM     16  C   LIG    1       31.235 -19.790   8.023  0.00  0.00    +0.027 C 
ATOM     17  C   LIG    1       30.213 -17.662   8.867  0.00  0.00    +0.027 C 
ENDBRANCH  12  14
ENDBRANCH  11  12
ENDBRANCH   1  11
TORSDOF 4
ENDMDL
MODEL 3
REMARK VINA RESULT:      -7.6      2.161      2.709
REMARK  Name = *****
REMARK                            x       y       z     vdW  Elec       q    Type
REMARK                         _______ _______ _______ _____ _____    ______ ____
ROOT
ATOM      1  C   LIG    1       26.144 -20.599   8.240  0.00  0.00    +0.180 C 
ATOM      2  O   LIG    1       26.013 -20.401   9.460  0.00  0.00    -0.290 OA
ENDROOT
BRANCH   1   3
ATOM      3  C   LIG    1       24.936 -21.045   7.458  0.00  0.00    +0.020 A 
ATOM      4  C   LIG    1       24.228 -20.202   6.593  0.00  0.00    +0.031 A 
ATOM      5  C   LIG    1       23.110 -20.682   5.902  0.00  0.00    +0.042 A 
ATOM      6 CL   LIG    1       22.261 -19.630   4.836  0.00  0.00    -0.084 Cl
ATOM      7  C   LIG    1       22.682 -21.997   6.057  0.00  0.00    +0.020 A 
ATOM      8  C   LIG    1       23.370 -22.842   6.923  0.00  0.00    +0.002 A 
ATOM      9  C   LIG    1       24.482 -22.366   7.625  0.00  0.00    +0.011 A 
ENDBRANCH   1   3
BRANCH   1  11
ATOM     10  C   LIG    1       28.044 -21.754   7.124  0.00  0.00    +0.032 C 
ATOM     11  C   LIG    1       27.502 -20.379   7.548  0.00  0.00    +0.123 C 
BRANCH  11  12
ATOM     12  N   LIG    1       28.499 -19.775   8.459  0.00  0.00    -0.302 NA
ATOM     13  H   LIG    1       28.016 -19.098   9.056  0.00  0.00    +0.123 HD
BRANCH  12  14
ATOM     14  C   LIG    1       29.731 -19.180   7.908  0.00  0.00    +0.011 C 
ATOM     15  C   LIG    1       30.054 -17.953   8.789  0.00  0.00    +0.027 C 
ATOM     16  C   LIG    1       29.583 -18.673   6.466  0.00  0.00    +0.027 C 
ATOM     17  C   LIG    1       30.929 -20.139   7.991  0.00  0.00    +0.027 C 
ENDBRANCH  12  14
ENDBRANCH  11  12
ENDBRANCH   1  11
TORSDOF 4
ENDMDL
MODEL 4
REMARK VINA RESULT:      -7.4      3.535      5.697
REMARK  Name = *****
REMARK                            x       y       z     vdW  Elec       q    Type
REMARK                         _______ _______ _______ _____ _____    ______ ____
ROOT
ATOM      1  C   LIG    1       24.164 -21.543   7.193  0.00  0.00    +0.180 C 
ATOM      2  O   LIG    1       23.282 -21.426   8.059  0.00  0.00    -0.290 OA
ENDROOT
BRANCH   1   3
ATOM      3  C   LIG    1       24.076 -20.673   5.967  0.00  0.00    +0.020 A 
ATOM      4  C   LIG    1       22.909 -20.001   5.584  0.00  0.00    +0.031 A 
ATOM      5  C   LIG    1       22.897 -19.213   4.428  0.00  0.00    +0.042 A 
ATOM      6 CL   LIG    1       21.452 -18.388   3.983  0.00  0.00    -0.084 Cl
ATOM      7  C   LIG    1       24.036 -19.079   3.640  0.00  0.00    +0.020 A 
ATOM      8  C   LIG    1       25.200 -19.751   4.003  0.00  0.00    +0.002 A 
ATOM      9  C   LIG    1       25.217 -20.549   5.152  0.00  0.00    +0.011 A 
ENDBRANCH   1   3
BRANCH   1  11
ATOM     10  C   LIG    1       26.593 -21.738   7.697  0.00  0.00    +0.032 C 
ATOM     11  C   LIG    1       25.322 -22.542   7.378  0.00  0.00    +0.123 C 
BRANCH  11  12
ATOM     12  N   LIG    1       25.589 -23.317   6.146  0.00  0.00    -0.302 NA
ATOM     13  H   LIG    1       25.336 -22.736   5.343  0.00  0.00    +0.123 HD
BRANCH  12  14
ATOM     14  C   LIG    1       25.024 -24.671   5.995  0.00  0.00    +0.011 C 
ATOM     15  C   LIG    1       25.887 -25.604   6.873  0.00  0.00    +0.027 C 
ATOM     16  C   LIG    1       25.090 -25.213   4.560  0.00  0.00    +0.027 C 
ATOM     17  C   LIG    1       23.578 -24.760   6.507  0.00  0.00    +0.027 C 
ENDBRANCH  12  14
ENDBRANCH  11  12
ENDBRANCH   1  11
TORSDOF 4
ENDMDL
MODEL 5
REMARK VINA RESULT:      -7.4      1.073      1.595
REMARK  Name = *****
REMARK                            x       y       z     vdW  Elec       q    Type
REMARK                         _______ _______ _______ _____ _____    ______ ____
ROOT
ATOM      1  C   LIG    1       27.118 -21.343   7.885  0.00  0.00    +0.180 C 
ATOM      2  O   LIG    1       27.655 -21.837   8.890  0.00  0.00    -0.290 OA
ENDROOT
BRANCH   1   3
ATOM      3  C   LIG    1       25.739 -21.817   7.509  0.00  0.00    +0.020 A 
ATOM      4  C   LIG    1       25.460 -23.132   7.116  0.00  0.00    +0.031 A 
ATOM      5  C   LIG    1       24.155 -23.502   6.774  0.00  0.00    +0.042 A 
ATOM      6 CL   LIG    1       23.834 -25.127   6.304  0.00  0.00    -0.084 Cl
ATOM      7  C   LIG    1       23.114 -22.580   6.818  0.00  0.00    +0.020 A 
ATOM      8  C   LIG    1       23.379 -21.267   7.195  0.00  0.00    +0.002 A 
ATOM      9  C   LIG    1       24.683 -20.887   7.529  0.00  0.00    +0.011 A 
ENDBRANCH   1   3
BRANCH   1  11
ATOM     10  C   LIG    1       27.223 -20.257   5.648  0.00  0.00    +0.032 C 
ATOM     11  C   LIG    1       27.841 -20.264   7.056  0.00  0.00    +0.123 C 
BRANCH  11  12
ATOM     12  N   LIG    1       29.283 -20.555   6.902  0.00  0.00    -0.302 NA
ATOM     13  H   LIG    1       29.410 -21.570   6.943  0.00  0.00    +0.123 HD
BRANCH  12  14
ATOM     14  C   LIG    1       30.265 -19.883   7.774  0.00  0.00    +0.011 C 
ATOM     15  C   LIG    1       31.327 -19.265   6.838  0.00  0.00    +0.027 C 
ATOM     16  C   LIG    1       31.001 -20.835   8.726  0.00  0.00    +0.027 C 
ATOM     17  C   LIG    1       29.637 -18.737   8.583  0.00  0.00    +0.027 C 
ENDBRANCH  12  14
ENDBRANCH  11  12
ENDBRANCH   1  11
TORSDOF 4
ENDMDL
MODEL 6
REMARK VINA RESULT:      -7.4      2.647      5.720
REMARK  Name = *****
REMARK                            x       y       z     vdW  Elec       q    Type
REMARK                         _______ _______ _______ _____ _____    ______ ____
ROOT
ATOM      1  C   LIG    1       26.067 -20.718   8.138  0.00  0.00    +0.180 C 
ATOM      2  O   LIG    1       25.874 -20.600   9.359  0.00  0.00    -0.290 OA
ENDROOT
BRANCH   1   3
ATOM      3  C   LIG    1       27.360 -20.197   7.568  0.00  0.00    +0.020 A 
ATOM      4  C   LIG    1       28.452 -19.824   8.360  0.00  0.00    +0.031 A 
ATOM      5  C   LIG    1       29.622 -19.341   7.763  0.00  0.00    +0.042 A 
ATOM      6 CL   LIG    1       30.956 -18.898   8.756  0.00  0.00    -0.084 Cl
ATOM      7  C   LIG    1       29.725 -19.225   6.380  0.00  0.00    +0.020 A 
ATOM      8  C   LIG    1       28.642 -19.582   5.581  0.00  0.00    +0.002 A 
ATOM      9  C   LIG    1       27.466 -20.056   6.172  0.00  0.00    +0.011 A 
ENDBRANCH   1   3
BRANCH   1  11
ATOM     10  C   LIG    1       23.675 -20.670   7.453  0.00  0.00    +0.032 C 
ATOM     11  C   LIG    1       25.015 -21.392   7.236  0.00  0.00    +0.123 C 
BRANCH  11  12
ATOM     12  N   LIG    1       24.810 -22.814   7.588  0.00  0.00    -0.302 NA
ATOM     13  H   LIG    1       25.505 -23.071   8.294  0.00  0.00    +0.123 HD
BRANCH  12  14
ATOM     14  C   LIG    1       24.763 -23.834   6.524  0.00  0.00    +0.011 C 
ATOM     15  C   LIG    1       23.367 -24.489   6.610  0.00  0.00    +0.027 C 
ATOM     16  C   LIG    1       25.799 -24.954   6.693  0.00  0.00    +0.027 C 
ATOM     17  C   LIG    1       24.901 -23.219   5.122  0.00  0.00    +0.027 C 
ENDBRANCH  12  14
ENDBRANCH  11  12
ENDBRANCH   1  11
TORSDOF 4
ENDMDL
MODEL 7
REMARK VINA RESULT:      -7.3      1.745      2.134
REMARK  Name = *****
REMARK                            x       y       z     vdW  Elec       q    Type
REMARK                         _______ _______ _______ _____ _____    ______ ____
ROOT
ATOM      1  C   LIG    1       26.585 -20.483   8.080  0.00  0.00    +0.180 C 
ATOM      2  O   LIG    1       26.274 -20.325   9.272  0.00  0.00    -0.290 OA
ENDROOT
BRANCH   1   3
ATOM      3  C   LIG    1       25.508 -20.898   7.113  0.00  0.00    +0.020 A 
ATOM      4  C   LIG    1       24.523 -21.845   7.421  0.00  0.00    +0.031 A 
ATOM      5  C   LIG    1       23.556 -22.188   6.470  0.00  0.00    +0.042 A 
ATOM      6 CL   LIG    1       22.348 -23.347   6.875  0.00  0.00    -0.084 Cl
ATOM      7  C   LIG    1       23.550 -21.600   5.209  0.00  0.00    +0.020 A 
ATOM      8  C   LIG    1       24.530 -20.667   4.886  0.00  0.00    +0.002 A 
ATOM      9  C   LIG    1       25.507 -20.325   5.828  0.00  0.00    +0.011 A 
ENDBRANCH   1   3
BRANCH   1  11
ATOM     10  C   LIG    1       28.642 -21.612   7.250  0.00  0.00    +0.032 C 
ATOM     11  C   LIG    1       28.032 -20.246   7.606  0.00  0.00    +0.123 C 
BRANCH  11  12
ATOM     12  N   LIG    1       28.874 -19.651   8.666  0.00  0.00    -0.302 NA
ATOM     13  H   LIG    1       28.262 -19.151   9.317  0.00  0.00    +0.123 HD
BRANCH  12  14
ATOM     14  C   LIG    1       30.027 -18.807   8.301  0.00  0.00    +0.011 C 
ATOM     15  C   LIG    1       31.290 -19.649   8.586  0.00  0.00    +0.027 C 
ATOM     16  C   LIG    1       30.143 -17.522   9.132  0.00  0.00    +0.027 C 
ATOM     17  C   LIG    1       30.037 -18.450   6.806  0.00  0.00    +0.027 C 
ENDBRANCH  12  14
ENDBRANCH  11  12
ENDBRANCH   1  11
TORSDOF 4
ENDMDL
MODEL 8
REMARK VINA RESULT:      -7.3      3.171      5.265
REMARK  Name = *****
REMARK                            x       y       z     vdW  Elec       q    Type
REMARK                         _______ _______ _______ _____ _____    ______ ____
ROOT
ATOM      1  C   LIG    1       25.139 -21.553   7.498  0.00  0.00    +0.180 C 
ATOM      2  O   LIG    1       24.866 -21.183   8.652  0.00  0.00    -0.290 OA
ENDROOT
BRANCH   1   3
ATOM      3  C   LIG    1       24.477 -20.841   6.347  0.00  0.00    +0.020 A 
ATOM      4  C   LIG    1       25.186 -20.106   5.389  0.00  0.00    +0.031 A 
ATOM      5  C   LIG    1       24.505 -19.464   4.349  0.00  0.00    +0.042 A 
ATOM      6 CL   LIG    1       25.398 -18.575   3.176  0.00  0.00    -0.084 Cl
ATOM      7  C   LIG    1       23.119 -19.543   4.244  0.00  0.00    +0.020 A 
ATOM      8  C   LIG    1       22.401 -20.261   5.197  0.00  0.00    +0.002 A 
ATOM      9  C   LIG    1       23.075 -20.897   6.245  0.00  0.00    +0.011 A 
ENDBRANCH   1   3
BRANCH   1  11
ATOM     10  C   LIG    1       27.537 -22.080   7.091  0.00  0.00    +0.032 C 
ATOM     11  C   LIG    1       26.139 -22.699   7.253  0.00  0.00    +0.123 C 
BRANCH  11  12
ATOM     12  N   LIG    1       25.840 -23.442   6.010  0.00  0.00    -0.302 NA
ATOM     13  H   LIG    1       25.369 -22.805   5.363  0.00  0.00    +0.123 HD
BRANCH  12  14
ATOM     14  C   LIG    1       25.116 -24.725   6.078  0.00  0.00    +0.011 C 
ATOM     15  C   LIG    1       25.111 -25.300   4.644  0.00  0.00    +0.027 C 
ATOM     16  C   LIG    1       23.651 -24.588   6.514  0.00  0.00    +0.027 C 
ATOM     17  C   LIG    1       25.824 -25.746   6.984  0.00  0.00    +0.027 C 
ENDBRANCH  12  14
ENDBRANCH  11  12
ENDBRANCH   1  11
TORSDOF 4
ENDMDL
MODEL 9
REMARK VINA RESULT:      -7.2      2.205      4.041
REMARK  Name = *****
REMARK                            x       y       z     vdW  Elec       q    Type
REMARK                         _______ _______ _______ _____ _____    ______ ____
ROOT
ATOM      1  C   LIG    1       26.015 -22.308   7.375  0.00  0.00    +0.180 C 
ATOM      2  O   LIG    1       26.268 -22.204   8.587  0.00  0.00    -0.290 OA
ENDROOT
BRANCH   1   3
ATOM      3  C   LIG    1       25.417 -23.599   6.882  0.00  0.00    +0.020 A 
ATOM      4  C   LIG    1       26.184 -24.657   6.378  0.00  0.00    +0.031 A 
ATOM      5  C   LIG    1       25.561 -25.827   5.931  0.00  0.00    +0.042 A 
ATOM      6 CL   LIG    1       26.525 -27.118   5.325  0.00  0.00    -0.084 Cl
ATOM      7  C   LIG    1       24.177 -25.965   5.978  0.00  0.00    +0.020 A 
ATOM      8  C   LIG    1       23.402 -24.917   6.465  0.00  0.00    +0.002 A 
ATOM      9  C   LIG    1       24.017 -23.740   6.905  0.00  0.00    +0.011 A 
ENDBRANCH   1   3
BRANCH   1  11
ATOM     10  C   LIG    1       27.393 -20.265   7.031  0.00  0.00    +0.032 C 
ATOM     11  C   LIG    1       26.294 -21.141   6.409  0.00  0.00    +0.123 C 
BRANCH  11  12
ATOM     12  N   LIG    1       25.104 -20.283   6.216  0.00  0.00    -0.302 NA
ATOM     13  H   LIG    1       24.425 -20.509   6.948  0.00  0.00    +0.123 HD
BRANCH  12  14
ATOM     14  C   LIG    1       24.439 -20.236   4.900  0.00  0.00    +0.011 C 
ATOM     15  C   LIG    1       22.979 -19.805   5.165  0.00  0.00    +0.027 C 
ATOM     16  C   LIG    1       24.385 -21.593   4.185  0.00  0.00    +0.027 C 
ATOM     17  C   LIG    1       25.068 -19.191   3.966  0.00  0.00    +0.027 C 
ENDBRANCH  12  14
ENDBRANCH  11  12
ENDBRANCH   1  11
TORSDOF 4
ENDMDL
