MODEL 1
REMARK VINA RESULT:      -5.0      0.000      0.000
REMARK  Name = *****
REMARK                            x       y       z     vdW  Elec       q    Type
REMARK                         _______ _______ _______ _____ _____    ______ ____
ROOT
ATOM      1  C   LIG    1       23.755 -18.883   3.879  0.00  0.00    -0.021 C 
ATOM      2  C   LIG    1       24.237 -17.536   3.768  0.00  0.00    +0.003 C 
ATOM      3  C   LIG    1       23.240 -16.695   4.254  0.00  0.00    +0.047 C 
ATOM      4  C   LIG    1       23.374 -15.303   4.305  0.00  0.00    +0.026 C 
ATOM      5  C   LIG    1       24.586 -14.755   3.870  0.00  0.00    +0.007 C 
ATOM      6  C   LIG    1       25.625 -15.559   3.386  0.00  0.00    -0.025 C 
ATOM      7  N   LIG    1       22.185 -17.489   4.642  0.00  0.00    -0.360 NA
ATOM      8  H   LIG    1       21.325 -17.145   5.036  0.00  0.00    +0.165 HD
ATOM      9  C   LIG    1       25.440 -16.956   3.310  0.00  0.00    +0.015 C 
ATOM     10  C   LIG    1       22.490 -18.807   4.430  0.00  0.00    +0.087 C 
ENDROOT
BRANCH   1  11
ATOM     11  C   LIG    1       24.450 -20.147   3.467  0.00  0.00    +0.052 C 
BRANCH  11  12
ATOM     12  C   LIG    1       24.736 -21.101   4.645  0.00  0.00    +0.088 C 
BRANCH  12  14
ATOM     13  C   LIG    1       24.587 -21.022   7.059  0.00  0.00    +0.104 C 
ATOM     14  N   LIG    1       25.215 -20.426   5.874  0.00  0.00    -0.308 NA
ATOM     15  C   LIG    1       26.672 -20.478   6.012  0.00  0.00    +0.104 C 
ENDBRANCH  12  14
ENDBRANCH  11  12
ENDBRANCH   1  11
BRANCH   6  16
ATOM     16  C   LIG    1       26.941 -14.948   2.966  0.00  0.00    +0.180 C 
BRANCH  16  17
ATOM     17  N   LIG    1       27.440 -14.014   3.960  0.00  0.00    -0.248 NA
ATOM     18  N   LIG    1       26.883 -13.930   5.189  0.00  0.00    -0.158 NA
ATOM     19  C   LIG    1       27.636 -12.983   5.752  0.00  0.00    +0.244 C 
ATOM     20  N   LIG    1       28.594 -12.439   4.943  0.00  0.00    -0.223 NA
ATOM     21  C   LIG    1       28.442 -13.104   3.821  0.00  0.00    +0.219 C 
ENDBRANCH  16  17
ENDBRANCH   6  16
TORSDOF 5
ENDMDL
MODEL 2
REMARK VINA RESULT:      -4.9      1.175      6.345
REMARK  Name = *****
REMARK                            x       y       z     vdW  Elec       q    Type
REMARK                         _______ _______ _______ _____ _____    ______ ____
ROOT
ATOM      1  C   LIG    1       25.105 -15.186   3.452  0.00  0.00    -0.021 C 
ATOM      2  C   LIG    1       24.344 -16.357   3.782  0.00  0.00    +0.003 C 
ATOM      3  C   LIG    1       23.106 -15.931   4.255  0.00  0.00    +0.047 C 
ATOM      4  C   LIG    1       22.100 -16.813   4.664  0.00  0.00    +0.026 C 
ATOM      5  C   LIG    1       22.361 -18.183   4.556  0.00  0.00    +0.007 C 
ATOM      6  C   LIG    1       23.585 -18.663   4.074  0.00  0.00    -0.025 C 
ATOM      7  N   LIG    1       23.106 -14.555   4.224  0.00  0.00    -0.360 NA
ATOM      8  H   LIG    1       22.332 -13.977   4.509  0.00  0.00    +0.165 HD
ATOM      9  C   LIG    1       24.592 -17.745   3.709  0.00  0.00    +0.015 C 
ATOM     10  C   LIG    1       24.299 -14.099   3.732  0.00  0.00    +0.087 C 
ENDROOT
BRANCH   1  11
ATOM     11  C   LIG    1       26.508 -15.117   2.926  0.00  0.00    +0.052 C 
BRANCH  11  12
ATOM     12  C   LIG    1       27.154 -13.726   3.088  0.00  0.00    +0.088 C 
BRANCH  12  14
ATOM     13  C   LIG    1       29.044 -12.553   4.041  0.00  0.00    +0.104 C 
ATOM     14  N   LIG    1       28.039 -13.597   4.270  0.00  0.00    -0.308 NA
ATOM     15  C   LIG    1       27.297 -13.305   5.498  0.00  0.00    +0.104 C 
ENDBRANCH  12  14
ENDBRANCH  11  12
ENDBRANCH   1  11
BRANCH   6  16
ATOM     16  C   LIG    1       23.826 -20.148   3.923  0.00  0.00    +0.180 C 
BRANCH  16  17
ATOM     17  N   LIG    1       24.307 -20.741   5.158  0.00  0.00    -0.248 NA
ATOM     18  N   LIG    1       23.460 -21.069   6.159  0.00  0.00    -0.158 NA
ATOM     19  C   LIG    1       24.305 -21.570   7.062  0.00  0.00    +0.244 C 
ATOM     20  N   LIG    1       25.625 -21.536   6.710  0.00  0.00    -0.223 NA
ATOM     21  C   LIG    1       25.595 -21.003   5.511  0.00  0.00    +0.219 C 
ENDBRANCH  16  17
ENDBRANCH   6  16
TORSDOF 5
ENDMDL
MODEL 3
REMARK VINA RESULT:      -4.6      2.051      6.910
REMARK  Name = *****
REMARK                            x       y       z     vdW  Elec       q    Type
REMARK                         _______ _______ _______ _____ _____    ______ ____
ROOT
ATOM      1  C   LIG    1       26.274 -14.833   3.179  0.00  0.00    -0.021 C 
ATOM      2  C   LIG    1       26.327 -16.242   3.448  0.00  0.00    +0.003 C 
ATOM      3  C   LIG    1       27.529 -16.496   4.102  0.00  0.00    +0.047 C 
ATOM      4  C   LIG    1       27.912 -17.774   4.527  0.00  0.00    +0.026 C 
ATOM      5  C   LIG    1       27.017 -18.824   4.297  0.00  0.00    +0.007 C 
ATOM      6  C   LIG    1       25.790 -18.618   3.655  0.00  0.00    -0.025 C 
ATOM      7  N   LIG    1       28.192 -15.297   4.226  0.00  0.00    -0.360 NA
ATOM      8  H   LIG    1       29.090 -15.182   4.666  0.00  0.00    +0.165 HD
ATOM      9  C   LIG    1       25.454 -17.325   3.205  0.00  0.00    +0.015 C 
ATOM     10  C   LIG    1       27.439 -14.290   3.684  0.00  0.00    +0.087 C 
ENDROOT
BRANCH   1  11
ATOM     11  C   LIG    1       25.193 -14.071   2.472  0.00  0.00    +0.052 C 
BRANCH  11  12
ATOM     12  C   LIG    1       24.042 -13.634   3.402  0.00  0.00    +0.088 C 
BRANCH  12  14
ATOM     13  C   LIG    1       23.867 -11.506   4.540  0.00  0.00    +0.104 C 
ATOM     14  N   LIG    1       23.658 -12.209   3.269  0.00  0.00    -0.308 NA
ATOM     15  C   LIG    1       24.393 -11.526   2.203  0.00  0.00    +0.104 C 
ENDBRANCH  12  14
ENDBRANCH  11  12
ENDBRANCH   1  11
BRANCH   6  16
ATOM     16  C   LIG    1       24.820 -19.761   3.461  0.00  0.00    +0.180 C 
BRANCH  16  17
ATOM     17  N   LIG    1       24.297 -20.241   4.728  0.00  0.00    -0.248 NA
ATOM     18  N   LIG    1       24.952 -21.176   5.452  0.00  0.00    -0.158 NA
ATOM     19  C   LIG    1       24.142 -21.305   6.505  0.00  0.00    +0.244 C 
ATOM     20  N   LIG    1       23.006 -20.547   6.465  0.00  0.00    -0.223 NA
ATOM     21  C   LIG    1       23.129 -19.894   5.334  0.00  0.00    +0.219 C 
ENDBRANCH  16  17
ENDBRANCH   6  16
TORSDOF 5
ENDMDL
MODEL 4
REMARK VINA RESULT:      -4.4      1.838      2.377
REMARK  Name = *****
REMARK                            x       y       z     vdW  Elec       q    Type
REMARK                         _______ _______ _______ _____ _____    ______ ____
ROOT
ATOM      1  C   LIG    1       23.736 -19.419   4.120  0.00  0.00    -0.021 C 
ATOM      2  C   LIG    1       23.748 -17.984   4.115  0.00  0.00    +0.003 C 
ATOM      3  C   LIG    1       22.486 -17.555   4.519  0.00  0.00    +0.047 C 
ATOM      4  C   LIG    1       22.142 -16.205   4.639  0.00  0.00    +0.026 C 
ATOM      5  C   LIG    1       23.135 -15.259   4.363  0.00  0.00    +0.007 C 
ATOM      6  C   LIG    1       24.423 -15.639   3.966  0.00  0.00    -0.025 C 
ATOM      7  N   LIG    1       21.727 -18.678   4.757  0.00  0.00    -0.360 NA
ATOM      8  H   LIG    1       20.769 -18.666   5.066  0.00  0.00    +0.165 HD
ATOM      9  C   LIG    1       24.723 -17.009   3.816  0.00  0.00    +0.015 C 
ATOM     10  C   LIG    1       22.474 -19.803   4.530  0.00  0.00    +0.087 C 
ENDROOT
BRANCH   1  11
ATOM     11  C   LIG    1       24.848 -20.351   3.738  0.00  0.00    +0.052 C 
BRANCH  11  12
ATOM     12  C   LIG    1       25.037 -21.517   4.730  0.00  0.00    +0.088 C 
BRANCH  12  14
ATOM     13  C   LIG    1       26.849 -20.143   5.556  0.00  0.00    +0.104 C 
ATOM     14  N   LIG    1       25.881 -21.189   5.904  0.00  0.00    -0.308 NA
ATOM     15  C   LIG    1       25.091 -20.762   7.061  0.00  0.00    +0.104 C 
ENDBRANCH  12  14
ENDBRANCH  11  12
ENDBRANCH   1  11
BRANCH   6  16
ATOM     16  C   LIG    1       25.491 -14.599   3.718  0.00  0.00    +0.180 C 
BRANCH  16  17
ATOM     17  N   LIG    1       24.927 -13.362   3.209  0.00  0.00    -0.248 NA
ATOM     18  N   LIG    1       24.261 -12.506   4.016  0.00  0.00    -0.158 NA
ATOM     19  C   LIG    1       23.936 -11.537   3.159  0.00  0.00    +0.244 C 
ATOM     20  N   LIG    1       24.316 -11.751   1.863  0.00  0.00    -0.223 NA
ATOM     21  C   LIG    1       24.931 -12.909   1.926  0.00  0.00    +0.219 C 
ENDBRANCH  16  17
ENDBRANCH   6  16
TORSDOF 5
ENDMDL
MODEL 5
REMARK VINA RESULT:      -4.3      1.787      3.085
REMARK  Name = *****
REMARK                            x       y       z     vdW  Elec       q    Type
REMARK                         _______ _______ _______ _____ _____    ______ ____
ROOT
ATOM      1  C   LIG    1       24.742 -20.971   5.964  0.00  0.00    -0.021 C 
ATOM      2  C   LIG    1       24.557 -19.869   5.063  0.00  0.00    +0.003 C 
ATOM      3  C   LIG    1       23.186 -19.686   4.905  0.00  0.00    +0.047 C 
ATOM      4  C   LIG    1       22.638 -18.683   4.096  0.00  0.00    +0.026 C 
ATOM      5  C   LIG    1       23.528 -17.819   3.449  0.00  0.00    +0.007 C 
ATOM      6  C   LIG    1       24.915 -17.953   3.586  0.00  0.00    -0.025 C 
ATOM      7  N   LIG    1       22.553 -20.638   5.670  0.00  0.00    -0.360 NA
ATOM      8  H   LIG    1       21.554 -20.738   5.748  0.00  0.00    +0.165 HD
ATOM      9  C   LIG    1       25.433 -18.999   4.378  0.00  0.00    +0.015 C 
ATOM     10  C   LIG    1       23.480 -21.408   6.319  0.00  0.00    +0.087 C 
ENDROOT
BRANCH   1  11
ATOM     11  C   LIG    1       26.035 -21.572   6.430  0.00  0.00    +0.052 C 
BRANCH  11  12
ATOM     12  C   LIG    1       26.998 -20.541   7.055  0.00  0.00    +0.088 C 
BRANCH  12  14
ATOM     13  C   LIG    1       28.902 -19.132   6.563  0.00  0.00    +0.104 C 
ATOM     14  N   LIG    1       28.325 -20.471   6.399  0.00  0.00    -0.308 NA
ATOM     15  C   LIG    1       29.260 -21.474   6.911  0.00  0.00    +0.104 C 
ENDBRANCH  12  14
ENDBRANCH  11  12
ENDBRANCH   1  11
BRANCH   6  16
ATOM     16  C   LIG    1       25.854 -16.978   2.915  0.00  0.00    +0.180 C 
BRANCH  16  17
ATOM     17  N   LIG    1       25.778 -15.659   3.517  0.00  0.00    -0.248 NA
ATOM     18  N   LIG    1       24.592 -15.108   3.861  0.00  0.00    -0.158 NA
ATOM     19  C   LIG    1       24.985 -13.938   4.367  0.00  0.00    +0.244 C 
ATOM     20  N   LIG    1       26.330 -13.703   4.321  0.00  0.00    -0.223 NA
ATOM     21  C   LIG    1       26.801 -14.800   3.777  0.00  0.00    +0.219 C 
ENDBRANCH  16  17
ENDBRANCH   6  16
TORSDOF 5
ENDMDL
MODEL 6
REMARK VINA RESULT:      -4.2      1.980      4.042
REMARK  Name = *****
REMARK                            x       y       z     vdW  Elec       q    Type
REMARK                         _______ _______ _______ _____ _____    ______ ____
ROOT
ATOM      1  C   LIG    1       26.571 -20.985   6.254  0.00  0.00    -0.021 C 
ATOM      2  C   LIG    1       27.101 -19.805   5.633  0.00  0.00    +0.003 C 
ATOM      3  C   LIG    1       28.403 -19.639   6.095  0.00  0.00    +0.047 C 
ATOM      4  C   LIG    1       29.229 -18.585   5.688  0.00  0.00    +0.026 C 
ATOM      5  C   LIG    1       28.712 -17.686   4.749  0.00  0.00    +0.007 C 
ATOM      6  C   LIG    1       27.413 -17.817   4.244  0.00  0.00    -0.025 C 
ATOM      7  N   LIG    1       28.664 -20.669   6.969  0.00  0.00    -0.360 NA
ATOM      8  H   LIG    1       29.537 -20.802   7.453  0.00  0.00    +0.165 HD
ATOM      9  C   LIG    1       26.593 -18.867   4.707  0.00  0.00    +0.015 C 
ATOM     10  C   LIG    1       27.572 -21.490   7.062  0.00  0.00    +0.087 C 
ENDROOT
BRANCH   1  11
ATOM     11  C   LIG    1       25.199 -21.572   6.098  0.00  0.00    +0.052 C 
BRANCH  11  12
ATOM     12  C   LIG    1       24.078 -20.512   6.082  0.00  0.00    +0.088 C 
BRANCH  12  14
ATOM     13  C   LIG    1       22.368 -19.385   4.794  0.00  0.00    +0.104 C 
ATOM     14  N   LIG    1       23.158 -20.614   4.924  0.00  0.00    -0.308 NA
ATOM     15  C   LIG    1       23.862 -20.881   3.669  0.00  0.00    +0.104 C 
ENDBRANCH  12  14
ENDBRANCH  11  12
ENDBRANCH   1  11
BRANCH   6  16
ATOM     16  C   LIG    1       26.893 -16.859   3.196  0.00  0.00    +0.180 C 
BRANCH  16  17
ATOM     17  N   LIG    1       26.739 -15.517   3.727  0.00  0.00    -0.248 NA
ATOM     18  N   LIG    1       25.519 -14.999   3.991  0.00  0.00    -0.158 NA
ATOM     19  C   LIG    1       25.843 -13.790   4.452  0.00  0.00    +0.244 C 
ATOM     20  N   LIG    1       27.179 -13.502   4.451  0.00  0.00    -0.223 NA
ATOM     21  C   LIG    1       27.716 -14.604   3.984  0.00  0.00    +0.219 C 
ENDBRANCH  16  17
ENDBRANCH   6  16
TORSDOF 5
ENDMDL
MODEL 7
REMARK VINA RESULT:      -4.2      2.053      7.013
REMARK  Name = *****
REMARK                            x       y       z     vdW  Elec       q    Type
REMARK                         _______ _______ _______ _____ _____    ______ ____
ROOT
ATOM      1  C   LIG    1       28.106 -18.147   4.832  0.00  0.00    -0.021 C 
ATOM      2  C   LIG    1       27.435 -19.293   5.377  0.00  0.00    +0.003 C 
ATOM      3  C   LIG    1       28.303 -19.888   6.289  0.00  0.00    +0.047 C 
ATOM      4  C   LIG    1       27.970 -21.033   7.022  0.00  0.00    +0.026 C 
ATOM      5  C   LIG    1       26.692 -21.570   6.835  0.00  0.00    +0.007 C 
ATOM      6  C   LIG    1       25.779 -21.001   5.940  0.00  0.00    -0.025 C 
ATOM      7  N   LIG    1       29.461 -19.146   6.301  0.00  0.00    -0.360 NA
ATOM      8  H   LIG    1       30.264 -19.347   6.874  0.00  0.00    +0.165 HD
ATOM      9  C   LIG    1       26.161 -19.871   5.188  0.00  0.00    +0.015 C 
ATOM     10  C   LIG    1       29.348 -18.091   5.435  0.00  0.00    +0.087 C 
ENDROOT
BRANCH   1  11
ATOM     11  C   LIG    1       27.599 -17.191   3.792  0.00  0.00    +0.052 C 
BRANCH  11  12
ATOM     12  C   LIG    1       27.658 -15.715   4.238  0.00  0.00    +0.088 C 
BRANCH  12  14
ATOM     13  C   LIG    1       25.707 -14.572   3.377  0.00  0.00    +0.104 C 
ATOM     14  N   LIG    1       27.156 -14.753   3.229  0.00  0.00    -0.308 NA
ATOM     15  C   LIG    1       27.824 -13.453   3.311  0.00  0.00    +0.104 C 
ENDBRANCH  12  14
ENDBRANCH  11  12
ENDBRANCH   1  11
BRANCH   6  16
ATOM     16  C   LIG    1       24.387 -21.572   5.791  0.00  0.00    +0.180 C 
BRANCH  16  17
ATOM     17  N   LIG    1       23.469 -20.603   5.220  0.00  0.00    -0.248 NA
ATOM     18  N   LIG    1       23.287 -20.507   3.884  0.00  0.00    -0.158 NA
ATOM     19  C   LIG    1       22.385 -19.526   3.814  0.00  0.00    +0.244 C 
ATOM     20  N   LIG    1       22.026 -18.974   5.012  0.00  0.00    -0.223 NA
ATOM     21  C   LIG    1       22.728 -19.668   5.876  0.00  0.00    +0.219 C 
ENDBRANCH  16  17
ENDBRANCH   6  16
TORSDOF 5
ENDMDL
MODEL 8
REMARK VINA RESULT:      -4.2      1.974      3.246
REMARK  Name = *****
REMARK                            x       y       z     vdW  Elec       q    Type
REMARK                         _______ _______ _______ _____ _____    ______ ____
ROOT
ATOM      1  C   LIG    1       25.504 -19.567   3.926  0.00  0.00    -0.021 C 
ATOM      2  C   LIG    1       26.169 -18.297   3.869  0.00  0.00    +0.003 C 
ATOM      3  C   LIG    1       27.355 -18.414   4.587  0.00  0.00    +0.047 C 
ATOM      4  C   LIG    1       28.266 -17.361   4.734  0.00  0.00    +0.026 C 
ATOM      5  C   LIG    1       27.963 -16.153   4.097  0.00  0.00    +0.007 C 
ATOM      6  C   LIG    1       26.789 -15.989   3.352  0.00  0.00    -0.025 C 
ATOM      7  N   LIG    1       27.417 -19.700   5.072  0.00  0.00    -0.360 NA
ATOM      8  H   LIG    1       28.173 -20.066   5.628  0.00  0.00    +0.165 HD
ATOM      9  C   LIG    1       25.874 -17.058   3.258  0.00  0.00    +0.015 C 
ATOM     10  C   LIG    1       26.313 -20.404   4.671  0.00  0.00    +0.087 C 
ENDROOT
BRANCH   1  11
ATOM     11  C   LIG    1       24.180 -19.942   3.329  0.00  0.00    +0.052 C 
BRANCH  11  12
ATOM     12  C   LIG    1       23.406 -20.985   4.161  0.00  0.00    +0.088 C 
BRANCH  12  14
ATOM     13  C   LIG    1       23.133 -20.587   6.532  0.00  0.00    +0.104 C 
ATOM     14  N   LIG    1       22.531 -20.405   5.206  0.00  0.00    -0.308 NA
ATOM     15  C   LIG    1       22.255 -18.984   4.983  0.00  0.00    +0.104 C 
ENDBRANCH  12  14
ENDBRANCH  11  12
ENDBRANCH   1  11
BRANCH   6  16
ATOM     16  C   LIG    1       26.507 -14.689   2.634  0.00  0.00    +0.180 C 
BRANCH  16  17
ATOM     17  N   LIG    1       25.589 -13.851   3.384  0.00  0.00    -0.248 NA
ATOM     18  N   LIG    1       25.747 -13.643   4.710  0.00  0.00    -0.158 NA
ATOM     19  C   LIG    1       24.718 -12.836   4.973  0.00  0.00    +0.244 C 
ATOM     20  N   LIG    1       23.903 -12.563   3.910  0.00  0.00    -0.223 NA
ATOM     21  C   LIG    1       24.473 -13.220   2.927  0.00  0.00    +0.219 C 
ENDBRANCH  16  17
ENDBRANCH   6  16
TORSDOF 5
ENDMDL
MODEL 9
REMARK VINA RESULT:      -3.7      1.788      3.271
REMARK  Name = *****
REMARK                            x       y       z     vdW  Elec       q    Type
REMARK                         _______ _______ _______ _____ _____    ______ ____
ROOT
ATOM      1  C   LIG    1       25.097 -20.225   4.721  0.00  0.00    -0.021 C 
ATOM      2  C   LIG    1       24.110 -19.208   4.497  0.00  0.00    +0.003 C 
ATOM      3  C   LIG    1       22.868 -19.836   4.449  0.00  0.00    +0.047 C 
ATOM      4  C   LIG    1       21.669 -19.142   4.253  0.00  0.00    +0.026 C 
ATOM      5  C   LIG    1       21.743 -17.750   4.131  0.00  0.00    +0.007 C 
ATOM      6  C   LIG    1       22.966 -17.070   4.186  0.00  0.00    -0.025 C 
ATOM      7  N   LIG    1       23.082 -21.183   4.628  0.00  0.00    -0.360 NA
ATOM      8  H   LIG    1       22.355 -21.881   4.642  0.00  0.00    +0.165 HD
ATOM      9  C   LIG    1       24.158 -17.806   4.345  0.00  0.00    +0.015 C 
ATOM     10  C   LIG    1       24.418 -21.426   4.804  0.00  0.00    +0.087 C 
ENDROOT
BRANCH   1  11
ATOM     11  C   LIG    1       26.584 -20.059   4.826  0.00  0.00    +0.052 C 
BRANCH  11  12
ATOM     12  C   LIG    1       27.143 -20.411   6.220  0.00  0.00    +0.088 C 
BRANCH  12  14
ATOM     13  C   LIG    1       29.415 -20.602   7.030  0.00  0.00    +0.104 C 
ATOM     14  N   LIG    1       28.371 -19.669   6.590  0.00  0.00    -0.308 NA
ATOM     15  C   LIG    1       28.881 -18.843   5.494  0.00  0.00    +0.104 C 
ENDBRANCH  12  14
ENDBRANCH  11  12
ENDBRANCH   1  11
BRANCH   6  16
ATOM     16  C   LIG    1       23.014 -15.562   4.099  0.00  0.00    +0.180 C 
BRANCH  16  17
ATOM     17  N   LIG    1       24.379 -15.072   4.039  0.00  0.00    -0.248 NA
ATOM     18  N   LIG    1       24.754 -13.949   4.690  0.00  0.00    -0.158 NA
ATOM     19  C   LIG    1       26.049 -13.883   4.373  0.00  0.00    +0.244 C 
ATOM     20  N   LIG    1       26.496 -14.864   3.533  0.00  0.00    -0.223 NA
ATOM     21  C   LIG    1       25.422 -15.593   3.336  0.00  0.00    +0.219 C 
ENDBRANCH  16  17
ENDBRANCH   6  16
TORSDOF 5
ENDMDL
