MODEL 1
REMARK VINA RESULT:      -6.4      0.000      0.000
REMARK  Name = *****
REMARK                            x       y       z     vdW  Elec       q    Type
REMARK                         _______ _______ _______ _____ _____    ______ ____
ROOT
ATOM      1  C   LIG    1       25.449 -21.791   6.565  0.00  0.00    +0.122 C 
ATOM      2  C   LIG    1       25.321 -22.881   5.460  0.00  0.00    +0.036 C 
ATOM      3  C   LIG    1       24.252 -22.445   4.409  0.00  0.00    +0.028 C 
ATOM      4  C   LIG    1       23.083 -21.579   4.943  0.00  0.00    +0.058 C 
ATOM      5  N   LIG    1       23.681 -20.428   5.658  0.00  0.00    -0.296 NA
ATOM      6  C   LIG    1       22.219 -22.239   6.018  0.00  0.00    +0.020 C 
ATOM      7  C   LIG    1       22.963 -21.968   7.321  0.00  0.00    +0.021 C 
ATOM      8  C   LIG    1       24.130 -21.062   6.922  0.00  0.00    +0.071 C 
ENDROOT
BRANCH   2   9
ATOM      9  C   LIG    1       25.236 -24.348   5.910  0.00  0.00    -0.043 A 
ATOM     10  C   LIG    1       26.385 -25.033   6.348  0.00  0.00    +0.005 A 
ATOM     11  C   LIG    1       26.334 -26.380   6.741  0.00  0.00    +0.014 A 
ATOM     12  C   LIG    1       25.131 -27.076   6.688  0.00  0.00    +0.013 A 
ATOM     13  I   LIG    1       25.021 -29.061   7.277  0.00  0.00    -0.044 I 
ATOM     14  C   LIG    1       23.990 -26.437   6.228  0.00  0.00    +0.014 A 
ATOM     15  C   LIG    1       24.057 -25.099   5.832  0.00  0.00    +0.005 A 
ENDBRANCH   2   9
BRANCH   1  16
ATOM     16  C   LIG    1       26.213 -22.206   7.816  0.00  0.00    +0.312 C 
ATOM     17  O   LIG    1       25.727 -22.552   8.866  0.00  0.00    -0.251 OA
BRANCH  16  19
ATOM     18  C   LIG    1       27.975 -20.745   7.231  0.00  0.00    +0.280 C 
ATOM     19  O   LIG    1       27.554 -22.070   7.562  0.00  0.00    -0.468 OA
ENDBRANCH  16  19
ENDBRANCH   1  16
BRANCH   5  20
ATOM     20  C   LIG    1       22.708 -19.331   5.826  0.00  0.00    +0.087 C 
BRANCH  20  21
ATOM     21  C   LIG    1       22.484 -18.517   4.549  0.00  0.00    +0.049 C 
BRANCH  21  22
ATOM     22  C   LIG    1       23.605 -18.765   3.554  0.00  0.00    +0.214 C 
ATOM     23  F   LIG    1       24.482 -17.728   3.590  0.00  0.00    -0.249 F 
ENDBRANCH  21  22
ENDBRANCH  20  21
ENDBRANCH   5  20
TORSDOF 6
ENDMDL
MODEL 2
REMARK VINA RESULT:      -6.3      2.865      5.052
REMARK  Name = *****
REMARK                            x       y       z     vdW  Elec       q    Type
REMARK                         _______ _______ _______ _____ _____    ______ ____
ROOT
ATOM      1  C   LIG    1       25.867 -20.377   6.563  0.00  0.00    +0.122 C 
ATOM      2  C   LIG    1       25.667 -21.495   7.629  0.00  0.00    +0.036 C 
ATOM      3  C   LIG    1       26.785 -21.398   8.714  0.00  0.00    +0.028 C 
ATOM      4  C   LIG    1       28.158 -20.865   8.233  0.00  0.00    +0.058 C 
ATOM      5  N   LIG    1       27.913 -19.573   7.552  0.00  0.00    -0.296 NA
ATOM      6  C   LIG    1       28.840 -21.699   7.149  0.00  0.00    +0.020 C 
ATOM      7  C   LIG    1       28.233 -21.196   5.844  0.00  0.00    +0.021 C 
ATOM      8  C   LIG    1       27.343 -20.021   6.257  0.00  0.00    +0.071 C 
ENDROOT
BRANCH   2   9
ATOM      9  C   LIG    1       25.365 -22.915   7.125  0.00  0.00    -0.043 A 
ATOM     10  C   LIG    1       24.037 -23.353   6.962  0.00  0.00    +0.005 A 
ATOM     11  C   LIG    1       23.738 -24.654   6.526  0.00  0.00    +0.014 A 
ATOM     12  C   LIG    1       24.766 -25.552   6.259  0.00  0.00    +0.013 A 
ATOM     13  I   LIG    1       24.357 -27.474   5.598  0.00  0.00    -0.044 I 
ATOM     14  C   LIG    1       26.083 -25.159   6.444  0.00  0.00    +0.014 A 
ATOM     15  C   LIG    1       26.365 -23.865   6.886  0.00  0.00    +0.005 A 
ENDBRANCH   2   9
BRANCH   1  16
ATOM     16  C   LIG    1       25.054 -20.530   5.284  0.00  0.00    +0.312 C 
ATOM     17  O   LIG    1       25.487 -20.805   4.192  0.00  0.00    -0.251 OA
BRANCH  16  19
ATOM     18  C   LIG    1       23.015 -19.600   4.533  0.00  0.00    +0.280 C 
ATOM     19  O   LIG    1       23.742 -20.250   5.577  0.00  0.00    -0.468 OA
ENDBRANCH  16  19
ENDBRANCH   1  16
BRANCH   5  20
ATOM     20  C   LIG    1       29.150 -18.776   7.442  0.00  0.00    +0.087 C 
BRANCH  20  21
ATOM     21  C   LIG    1       29.937 -18.692   8.753  0.00  0.00    +0.049 C 
BRANCH  21  22
ATOM     22  C   LIG    1       31.398 -19.040   8.521  0.00  0.00    +0.214 C 
ATOM     23  F   LIG    1       31.547 -19.575   7.282  0.00  0.00    -0.249 F 
ENDBRANCH  21  22
ENDBRANCH  20  21
ENDBRANCH   5  20
TORSDOF 6
ENDMDL
MODEL 3
REMARK VINA RESULT:      -5.8      1.688      2.200
REMARK  Name = *****
REMARK                            x       y       z     vdW  Elec       q    Type
REMARK                         _______ _______ _______ _____ _____    ______ ____
ROOT
ATOM      1  C   LIG    1       24.342 -20.420   6.427  0.00  0.00    +0.122 C 
ATOM      2  C   LIG    1       25.260 -21.268   5.498  0.00  0.00    +0.036 C 
ATOM      3  C   LIG    1       25.129 -20.769   4.025  0.00  0.00    +0.028 C 
ATOM      4  C   LIG    1       23.749 -20.190   3.621  0.00  0.00    +0.058 C 
ATOM      5  N   LIG    1       23.407 -19.142   4.610  0.00  0.00    -0.296 NA
ATOM      6  C   LIG    1       22.575 -21.162   3.732  0.00  0.00    +0.020 C 
ATOM      7  C   LIG    1       22.142 -21.069   5.191  0.00  0.00    +0.021 C 
ATOM      8  C   LIG    1       23.011 -19.956   5.784  0.00  0.00    +0.071 C 
ENDROOT
BRANCH   2   9
ATOM      9  C   LIG    1       25.242 -22.794   5.676  0.00  0.00    -0.043 A 
ATOM     10  C   LIG    1       25.899 -23.400   6.764  0.00  0.00    +0.005 A 
ATOM     11  C   LIG    1       25.914 -24.794   6.933  0.00  0.00    +0.014 A 
ATOM     12  C   LIG    1       25.284 -25.614   6.004  0.00  0.00    +0.013 A 
ATOM     13  I   LIG    1       25.276 -27.675   6.235  0.00  0.00    -0.044 I 
ATOM     14  C   LIG    1       24.658 -25.048   4.904  0.00  0.00    +0.014 A 
ATOM     15  C   LIG    1       24.658 -23.661   4.744  0.00  0.00    +0.005 A 
ENDBRANCH   2   9
BRANCH   1  16
ATOM     16  C   LIG    1       24.120 -20.980   7.826  0.00  0.00    +0.312 C 
ATOM     17  O   LIG    1       23.307 -21.815   8.140  0.00  0.00    -0.251 OA
BRANCH  16  19
ATOM     18  C   LIG    1       26.357 -20.631   8.502  0.00  0.00    +0.280 C 
ATOM     19  O   LIG    1       24.972 -20.331   8.684  0.00  0.00    -0.468 OA
ENDBRANCH  16  19
ENDBRANCH   1  16
BRANCH   5  20
ATOM     20  C   LIG    1       22.359 -18.238   4.099  0.00  0.00    +0.087 C 
BRANCH  20  21
ATOM     21  C   LIG    1       22.253 -16.926   4.879  0.00  0.00    +0.049 C 
BRANCH  21  22
ATOM     22  C   LIG    1       23.191 -15.882   4.297  0.00  0.00    +0.214 C 
ATOM     23  F   LIG    1       23.103 -14.737   5.023  0.00  0.00    -0.249 F 
ENDBRANCH  21  22
ENDBRANCH  20  21
ENDBRANCH   5  20
TORSDOF 6
ENDMDL
MODEL 4
REMARK VINA RESULT:      -5.7      3.762      6.274
REMARK  Name = *****
REMARK                            x       y       z     vdW  Elec       q    Type
REMARK                         _______ _______ _______ _____ _____    ______ ____
ROOT
ATOM      1  C   LIG    1       25.396 -23.741   7.567  0.00  0.00    +0.122 C 
ATOM      2  C   LIG    1       23.930 -23.353   7.212  0.00  0.00    +0.036 C 
ATOM      3  C   LIG    1       23.148 -24.618   6.737  0.00  0.00    +0.028 C 
ATOM      4  C   LIG    1       23.982 -25.701   6.007  0.00  0.00    +0.058 C 
ATOM      5  N   LIG    1       25.128 -26.037   6.883  0.00  0.00    -0.296 NA
ATOM      6  C   LIG    1       24.659 -25.244   4.715  0.00  0.00    +0.020 C 
ATOM      7  C   LIG    1       25.965 -24.607   5.177  0.00  0.00    +0.021 C 
ATOM      8  C   LIG    1       26.009 -24.859   6.686  0.00  0.00    +0.071 C 
ENDROOT
BRANCH   2   9
ATOM      9  C   LIG    1       23.711 -22.091   6.363  0.00  0.00    -0.043 A 
ATOM     10  C   LIG    1       23.058 -20.966   6.903  0.00  0.00    +0.005 A 
ATOM     11  C   LIG    1       22.827 -19.811   6.137  0.00  0.00    +0.014 A 
ATOM     12  C   LIG    1       23.231 -19.765   4.807  0.00  0.00    +0.013 A 
ATOM     13  I   LIG    1       22.917 -18.068   3.657  0.00  0.00    -0.044 I 
ATOM     14  C   LIG    1       23.845 -20.870   4.240  0.00  0.00    +0.014 A 
ATOM     15  C   LIG    1       24.062 -22.015   5.010  0.00  0.00    +0.005 A 
ENDBRANCH   2   9
BRANCH   1  16
ATOM     16  C   LIG    1       26.363 -22.577   7.743  0.00  0.00    +0.312 C 
ATOM     17  O   LIG    1       27.262 -22.277   6.995  0.00  0.00    -0.251 OA
BRANCH  16  19
ATOM     18  C   LIG    1       26.064 -20.527   8.880  0.00  0.00    +0.280 C 
ATOM     19  O   LIG    1       26.070 -21.955   8.931  0.00  0.00    -0.468 OA
ENDBRANCH  16  19
ENDBRANCH   1  16
BRANCH   5  20
ATOM     20  C   LIG    1       25.731 -27.331   6.511  0.00  0.00    +0.087 C 
BRANCH  20  21
ATOM     21  C   LIG    1       24.899 -28.538   6.950  0.00  0.00    +0.049 C 
BRANCH  21  22
ATOM     22  C   LIG    1       24.431 -29.333   5.743  0.00  0.00    +0.214 C 
ATOM     23  F   LIG    1       24.688 -28.630   4.609  0.00  0.00    -0.249 F 
ENDBRANCH  21  22
ENDBRANCH  20  21
ENDBRANCH   5  20
TORSDOF 6
ENDMDL
MODEL 5
REMARK VINA RESULT:      -5.5      3.074      4.792
REMARK  Name = *****
REMARK                            x       y       z     vdW  Elec       q    Type
REMARK                         _______ _______ _______ _____ _____    ______ ____
ROOT
ATOM      1  C   LIG    1       23.667 -22.103   5.986  0.00  0.00    +0.122 C 
ATOM      2  C   LIG    1       24.131 -20.987   6.968  0.00  0.00    +0.036 C 
ATOM      3  C   LIG    1       23.207 -19.737   6.824  0.00  0.00    +0.028 C 
ATOM      4  C   LIG    1       22.609 -19.489   5.416  0.00  0.00    +0.058 C 
ATOM      5  N   LIG    1       21.941 -20.742   4.996  0.00  0.00    -0.296 NA
ATOM      6  C   LIG    1       23.631 -19.256   4.304  0.00  0.00    +0.020 C 
ATOM      7  C   LIG    1       24.021 -20.658   3.847  0.00  0.00    +0.021 C 
ATOM      8  C   LIG    1       23.101 -21.593   4.636  0.00  0.00    +0.071 C 
ENDROOT
BRANCH   2   9
ATOM      9  C   LIG    1       25.636 -20.683   7.043  0.00  0.00    -0.043 A 
ATOM     10  C   LIG    1       26.294 -20.617   8.286  0.00  0.00    +0.005 A 
ATOM     11  C   LIG    1       27.663 -20.317   8.379  0.00  0.00    +0.014 A 
ATOM     12  C   LIG    1       28.400 -20.061   7.227  0.00  0.00    +0.013 A 
ATOM     13  I   LIG    1       30.426 -19.632   7.331  0.00  0.00    -0.044 I 
ATOM     14  C   LIG    1       27.770 -20.086   5.992  0.00  0.00    +0.014 A 
ATOM     15  C   LIG    1       26.407 -20.377   5.915  0.00  0.00    +0.005 A 
ENDBRANCH   2   9
BRANCH   1  16
ATOM     16  C   LIG    1       24.645 -23.253   5.781  0.00  0.00    +0.312 C 
ATOM     17  O   LIG    1       25.019 -23.691   4.721  0.00  0.00    -0.251 OA
BRANCH  16  19
ATOM     18  C   LIG    1       25.785 -24.930   6.994  0.00  0.00    +0.280 C 
ATOM     19  O   LIG    1       24.991 -23.742   7.016  0.00  0.00    -0.468 OA
ENDBRANCH  16  19
ENDBRANCH   1  16
BRANCH   5  20
ATOM     20  C   LIG    1       20.983 -20.502   3.899  0.00  0.00    +0.087 C 
BRANCH  20  21
ATOM     21  C   LIG    1       20.659 -19.021   3.689  0.00  0.00    +0.049 C 
BRANCH  21  22
ATOM     22  C   LIG    1       19.265 -18.858   3.105  0.00  0.00    +0.214 C 
ATOM     23  F   LIG    1       19.304 -17.967   2.081  0.00  0.00    -0.249 F 
ENDBRANCH  21  22
ENDBRANCH  20  21
ENDBRANCH   5  20
TORSDOF 6
ENDMDL
MODEL 6
REMARK VINA RESULT:      -5.4      6.702     10.023
REMARK  Name = *****
REMARK                            x       y       z     vdW  Elec       q    Type
REMARK                         _______ _______ _______ _____ _____    ______ ____
ROOT
ATOM      1  C   LIG    1       25.395 -30.475   6.377  0.00  0.00    +0.122 C 
ATOM      2  C   LIG    1       25.859 -30.757   7.836  0.00  0.00    +0.036 C 
ATOM      3  C   LIG    1       26.586 -32.138   7.902  0.00  0.00    +0.028 C 
ATOM      4  C   LIG    1       26.097 -33.215   6.901  0.00  0.00    +0.058 C 
ATOM      5  N   LIG    1       26.145 -32.611   5.550  0.00  0.00    -0.296 NA
ATOM      6  C   LIG    1       24.631 -33.622   7.044  0.00  0.00    +0.020 C 
ATOM      7  C   LIG    1       23.867 -32.580   6.233  0.00  0.00    +0.021 C 
ATOM      8  C   LIG    1       24.955 -31.725   5.576  0.00  0.00    +0.071 C 
ENDROOT
BRANCH   2   9
ATOM      9  C   LIG    1       24.856 -30.491   8.969  0.00  0.00    -0.043 A 
ATOM     10  C   LIG    1       25.245 -29.786  10.124  0.00  0.00    +0.005 A 
ATOM     11  C   LIG    1       24.351 -29.552  11.181  0.00  0.00    +0.014 A 
ATOM     12  C   LIG    1       23.049 -30.035  11.110  0.00  0.00    +0.013 A 
ATOM     13  I   LIG    1       21.701 -29.693  12.649  0.00  0.00    -0.044 I 
ATOM     14  C   LIG    1       22.647 -30.763  10.001  0.00  0.00    +0.014 A 
ATOM     15  C   LIG    1       23.549 -30.995   8.961  0.00  0.00    +0.005 A 
ENDBRANCH   2   9
BRANCH   1  16
ATOM     16  C   LIG    1       24.406 -29.328   6.208  0.00  0.00    +0.312 C 
ATOM     17  O   LIG    1       23.284 -29.413   5.773  0.00  0.00    -0.251 OA
BRANCH  16  19
ATOM     18  C   LIG    1       24.455 -26.970   6.064  0.00  0.00    +0.280 C 
ATOM     19  O   LIG    1       25.031 -28.167   6.590  0.00  0.00    -0.468 OA
ENDBRANCH  16  19
ENDBRANCH   1  16
BRANCH   5  20
ATOM     20  C   LIG    1       26.126 -33.643   4.496  0.00  0.00    +0.087 C 
BRANCH  20  21
ATOM     21  C   LIG    1       25.688 -33.110   3.130  0.00  0.00    +0.049 C 
BRANCH  21  22
ATOM     22  C   LIG    1       26.716 -33.457   2.066  0.00  0.00    +0.214 C 
ATOM     23  F   LIG    1       27.482 -32.367   1.801  0.00  0.00    -0.249 F 
ENDBRANCH  21  22
ENDBRANCH  20  21
ENDBRANCH   5  20
TORSDOF 6
ENDMDL
MODEL 7
REMARK VINA RESULT:      -5.3      4.333      6.791
REMARK  Name = *****
REMARK                            x       y       z     vdW  Elec       q    Type
REMARK                         _______ _______ _______ _____ _____    ______ ____
ROOT
ATOM      1  C   LIG    1       27.415 -20.569   5.635  0.00  0.00    +0.122 C 
ATOM      2  C   LIG    1       28.629 -21.034   6.492  0.00  0.00    +0.036 C 
ATOM      3  C   LIG    1       28.232 -22.288   7.334  0.00  0.00    +0.028 C 
ATOM      4  C   LIG    1       26.749 -22.373   7.774  0.00  0.00    +0.058 C 
ATOM      5  N   LIG    1       25.920 -22.221   6.556  0.00  0.00    -0.296 NA
ATOM      6  C   LIG    1       26.265 -21.229   8.664  0.00  0.00    +0.020 C 
ATOM      7  C   LIG    1       25.869 -20.129   7.686  0.00  0.00    +0.021 C 
ATOM      8  C   LIG    1       26.030 -20.763   6.302  0.00  0.00    +0.071 C 
ENDROOT
BRANCH   2   9
ATOM      9  C   LIG    1       29.420 -19.959   7.254  0.00  0.00    -0.043 A 
ATOM     10  C   LIG    1       30.755 -19.671   6.911  0.00  0.00    +0.005 A 
ATOM     11  C   LIG    1       31.503 -18.709   7.609  0.00  0.00    +0.014 A 
ATOM     12  C   LIG    1       30.934 -18.025   8.677  0.00  0.00    +0.013 A 
ATOM     13  I   LIG    1       32.009 -16.587   9.716  0.00  0.00    -0.044 I 
ATOM     14  C   LIG    1       29.632 -18.312   9.059  0.00  0.00    +0.014 A 
ATOM     15  C   LIG    1       28.903 -19.276   8.361  0.00  0.00    +0.005 A 
ENDBRANCH   2   9
BRANCH   1  16
ATOM     16  C   LIG    1       27.541 -19.187   5.006  0.00  0.00    +0.312 C 
ATOM     17  O   LIG    1       28.494 -18.451   5.087  0.00  0.00    -0.251 OA
BRANCH  16  19
ATOM     18  C   LIG    1       26.401 -17.764   3.502  0.00  0.00    +0.280 C 
ATOM     19  O   LIG    1       26.359 -18.898   4.371  0.00  0.00    -0.468 OA
ENDBRANCH  16  19
ENDBRANCH   1  16
BRANCH   5  20
ATOM     20  C   LIG    1       24.546 -22.711   6.773  0.00  0.00    +0.087 C 
BRANCH  20  21
ATOM     21  C   LIG    1       24.418 -24.232   6.655  0.00  0.00    +0.049 C 
BRANCH  21  22
ATOM     22  C   LIG    1       25.215 -24.744   5.467  0.00  0.00    +0.214 C 
ATOM     23  F   LIG    1       26.328 -25.385   5.909  0.00  0.00    -0.249 F 
ENDBRANCH  21  22
ENDBRANCH  20  21
ENDBRANCH   5  20
TORSDOF 6
ENDMDL
MODEL 8
REMARK VINA RESULT:      -5.1      4.290      6.767
REMARK  Name = *****
REMARK                            x       y       z     vdW  Elec       q    Type
REMARK                         _______ _______ _______ _____ _____    ______ ____
ROOT
ATOM      1  C   LIG    1       28.004 -20.245   5.664  0.00  0.00    +0.122 C 
ATOM      2  C   LIG    1       29.136 -20.787   6.587  0.00  0.00    +0.036 C 
ATOM      3  C   LIG    1       28.654 -22.084   7.310  0.00  0.00    +0.028 C 
ATOM      4  C   LIG    1       27.137 -22.170   7.619  0.00  0.00    +0.058 C 
ATOM      5  N   LIG    1       26.416 -21.924   6.348  0.00  0.00    -0.296 NA
ATOM      6  C   LIG    1       26.595 -21.076   8.538  0.00  0.00    +0.020 C 
ATOM      7  C   LIG    1       26.298 -19.908   7.603  0.00  0.00    +0.021 C 
ATOM      8  C   LIG    1       26.566 -20.456   6.199  0.00  0.00    +0.071 C 
ENDROOT
BRANCH   2   9
ATOM      9  C   LIG    1       29.874 -19.777   7.480  0.00  0.00    -0.043 A 
ATOM     10  C   LIG    1       29.188 -19.073   8.488  0.00  0.00    +0.005 A 
ATOM     11  C   LIG    1       29.838 -18.129   9.299  0.00  0.00    +0.014 A 
ATOM     12  C   LIG    1       31.188 -17.858   9.107  0.00  0.00    +0.013 A 
ATOM     13  I   LIG    1       32.178 -16.480  10.300  0.00  0.00    -0.044 I 
ATOM     14  C   LIG    1       31.881 -18.510   8.099  0.00  0.00    +0.014 A 
ATOM     15  C   LIG    1       31.220 -19.441   7.295  0.00  0.00    +0.005 A 
ENDBRANCH   2   9
BRANCH   1  16
ATOM     16  C   LIG    1       28.202 -18.829   5.139  0.00  0.00    +0.312 C 
ATOM     17  O   LIG    1       29.164 -18.126   5.329  0.00  0.00    -0.251 OA
BRANCH  16  19
ATOM     18  C   LIG    1       27.145 -17.207   3.784  0.00  0.00    +0.280 C 
ATOM     19  O   LIG    1       27.070 -18.468   4.451  0.00  0.00    -0.468 OA
ENDBRANCH  16  19
ENDBRANCH   1  16
BRANCH   5  20
ATOM     20  C   LIG    1       25.022 -22.402   6.418  0.00  0.00    +0.087 C 
BRANCH  20  21
ATOM     21  C   LIG    1       24.114 -21.783   5.352  0.00  0.00    +0.049 C 
BRANCH  21  22
ATOM     22  C   LIG    1       22.803 -21.324   5.969  0.00  0.00    +0.214 C 
ATOM     23  F   LIG    1       22.915 -20.028   6.361  0.00  0.00    -0.249 F 
ENDBRANCH  21  22
ENDBRANCH  20  21
ENDBRANCH   5  20
TORSDOF 6
ENDMDL
MODEL 9
REMARK VINA RESULT:      -4.9      9.006     10.242
REMARK  Name = *****
REMARK                            x       y       z     vdW  Elec       q    Type
REMARK                         _______ _______ _______ _____ _____    ______ ____
ROOT
ATOM      1  C   LIG    1       26.406 -31.247   9.754  0.00  0.00    +0.122 C 
ATOM      2  C   LIG    1       25.354 -31.674  10.821  0.00  0.00    +0.036 C 
ATOM      3  C   LIG    1       24.564 -32.922  10.315  0.00  0.00    +0.028 C 
ATOM      4  C   LIG    1       24.369 -33.031   8.781  0.00  0.00    +0.058 C 
ATOM      5  N   LIG    1       25.709 -32.914   8.160  0.00  0.00    -0.296 NA
ATOM      6  C   LIG    1       23.592 -31.883   8.139  0.00  0.00    +0.020 C 
ATOM      7  C   LIG    1       24.643 -30.806   7.888  0.00  0.00    +0.021 C 
ATOM      8  C   LIG    1       25.970 -31.459   8.283  0.00  0.00    +0.071 C 
ENDROOT
BRANCH   2   9
ATOM      9  C   LIG    1       24.495 -30.570  11.458  0.00  0.00    -0.043 A 
ATOM     10  C   LIG    1       25.016 -29.755  12.481  0.00  0.00    +0.005 A 
ATOM     11  C   LIG    1       24.241 -28.756  13.093  0.00  0.00    +0.014 A 
ATOM     12  C   LIG    1       22.920 -28.564  12.704  0.00  0.00    +0.013 A 
ATOM     13  I   LIG    1       21.756 -27.087  13.578  0.00  0.00    -0.044 I 
ATOM     14  C   LIG    1       22.370 -29.375  11.723  0.00  0.00    +0.014 A 
ATOM     15  C   LIG    1       23.149 -30.369  11.129  0.00  0.00    +0.005 A 
ENDBRANCH   2   9
BRANCH   1  16
ATOM     16  C   LIG    1       27.032 -29.873   9.957  0.00  0.00    +0.312 C 
ATOM     17  O   LIG    1       26.611 -28.827   9.529  0.00  0.00    -0.251 OA
BRANCH  16  19
ATOM     18  C   LIG    1       28.329 -29.178  11.807  0.00  0.00    +0.280 C 
ATOM     19  O   LIG    1       28.193 -30.036  10.672  0.00  0.00    -0.468 OA
ENDBRANCH  16  19
ENDBRANCH   1  16
BRANCH   5  20
ATOM     20  C   LIG    1       25.709 -33.430   6.777  0.00  0.00    +0.087 C 
BRANCH  20  21
ATOM     21  C   LIG    1       26.815 -32.829   5.905  0.00  0.00    +0.049 C 
BRANCH  21  22
ATOM     22  C   LIG    1       26.239 -32.298   4.603  0.00  0.00    +0.214 C 
ATOM     23  F   LIG    1       25.811 -31.022   4.783  0.00  0.00    -0.249 F 
ENDBRANCH  21  22
ENDBRANCH  20  21
ENDBRANCH   5  20
TORSDOF 6
ENDMDL
