MODEL 1
REMARK VINA RESULT:      -4.4      0.000      0.000
REMARK  Name = *****
REMARK                            x       y       z     vdW  Elec       q    Type
REMARK                         _______ _______ _______ _____ _____    ______ ____
ROOT
ATOM      1  C   LIG    1       26.842 -17.167   3.769  0.00  0.00    +0.034 A 
ATOM      2  C   LIG    1       27.650 -17.911   4.629  0.00  0.00    +0.038 A 
ATOM      3  C   LIG    1       27.270 -19.211   5.035  0.00  0.00    +0.060 A 
ATOM      4  C   LIG    1       26.099 -19.783   4.505  0.00  0.00    +0.131 A 
ATOM      5  C   LIG    1       25.318 -19.036   3.617  0.00  0.00    +0.048 A 
ATOM      6  C   LIG    1       25.668 -17.732   3.275  0.00  0.00    +0.027 A 
ENDROOT
BRANCH   1   8
ATOM      7  C   LIG    1       26.353 -14.789   3.395  0.00  0.00    +0.217 C 
ATOM      8  N   LIG    1       27.221 -15.864   3.391  0.00  0.00    -0.285 N 
ATOM      9  H   LIG    1       28.222 -15.662   3.371  0.00  0.00    +0.155 HD
ATOM     10  O   LIG    1       25.150 -14.844   3.716  0.00  0.00    -0.276 OA
BRANCH   7  11
ATOM     11  C   LIG    1       26.994 -13.495   2.945  0.00  0.00    +0.096 C 
BRANCH  11  13
ATOM     12  C   LIG    1       28.674 -12.490   4.532  0.00  0.00    +0.004 C 
ATOM     13  C   LIG    1       28.465 -13.418   3.350  0.00  0.00    +0.006 C 
ENDBRANCH  11  13
ENDBRANCH   7  11
ENDBRANCH   1   8
BRANCH   3  14
ATOM     14  C   LIG    1       28.124 -19.860   6.083  0.00  0.00    +0.164 C 
ATOM     15  O   LIG    1       29.277 -19.443   6.237  0.00  0.00    -0.292 OA
ATOM     16  C   LIG    1       27.661 -21.058   6.878  0.00  0.00    +0.091 C 
ENDBRANCH   3  14
BRANCH   4  17
ATOM     17  O   LIG    1       25.752 -21.037   4.910  0.00  0.00    -0.489 OA
BRANCH  17  18
ATOM     18  C   LIG    1       24.371 -21.381   4.996  0.00  0.00    +0.261 C 
BRANCH  18  19
ATOM     19  C   LIG    1       23.734 -20.642   6.183  0.00  0.00    +0.166 C 
BRANCH  19  20
ATOM     20  O   LIG    1       23.096 -21.571   7.062  0.00  0.00    -0.387 OA
ATOM     21  H   LIG    1       23.664 -22.359   7.088  0.00  0.00    +0.210 HD
ENDBRANCH  19  20
BRANCH  19  22
ATOM     22  C   LIG    1       22.735 -19.550   5.750  0.00  0.00    +0.115 C 
BRANCH  22  23
ATOM     23  N   LIG    1       22.040 -19.854   4.482  0.00  0.00    -0.311 NA
ATOM     24  H   LIG    1       21.190 -20.378   4.689  0.00  0.00    +0.122 HD
BRANCH  23  25
ATOM     25  C   LIG    1       21.645 -18.626   3.762  0.00  0.00    +0.048 C 
ATOM     26  C   LIG    1       22.001 -17.390   4.596  0.00  0.00    +0.024 C 
ATOM     27  C   LIG    1       20.150 -18.594   3.440  0.00  0.00    +0.024 C 
ENDBRANCH  23  25
ENDBRANCH  22  23
ENDBRANCH  19  22
ENDBRANCH  18  19
ENDBRANCH  17  18
ENDBRANCH   4  17
TORSDOF 11
ENDMDL
MODEL 2
REMARK VINA RESULT:      -3.1      2.025      6.327
REMARK  Name = *****
REMARK                            x       y       z     vdW  Elec       q    Type
REMARK                         _______ _______ _______ _____ _____    ______ ____
ROOT
ATOM      1  C   LIG    1       25.125 -19.348   4.097  0.00  0.00    +0.034 A 
ATOM      2  C   LIG    1       26.298 -19.487   4.838  0.00  0.00    +0.038 A 
ATOM      3  C   LIG    1       27.318 -18.510   4.770  0.00  0.00    +0.060 A 
ATOM      4  C   LIG    1       27.109 -17.350   4.001  0.00  0.00    +0.131 A 
ATOM      5  C   LIG    1       25.913 -17.211   3.290  0.00  0.00    +0.048 A 
ATOM      6  C   LIG    1       24.943 -18.211   3.313  0.00  0.00    +0.027 A 
ENDROOT
BRANCH   1   8
ATOM      7  C   LIG    1       23.190 -20.416   5.168  0.00  0.00    +0.217 C 
ATOM      8  N   LIG    1       24.127 -20.342   4.156  0.00  0.00    -0.285 N 
ATOM      9  H   LIG    1       23.933 -20.851   3.293  0.00  0.00    +0.155 HD
ATOM     10  O   LIG    1       23.121 -19.636   6.138  0.00  0.00    -0.276 OA
BRANCH   7  11
ATOM     11  C   LIG    1       22.226 -21.572   5.012  0.00  0.00    +0.096 C 
BRANCH  11  13
ATOM     12  C   LIG    1       20.924 -19.658   4.014  0.00  0.00    +0.004 C 
ATOM     13  C   LIG    1       20.908 -21.132   4.376  0.00  0.00    +0.006 C 
ENDBRANCH  11  13
ENDBRANCH   7  11
ENDBRANCH   1   8
BRANCH   3  14
ATOM     14  C   LIG    1       28.601 -18.831   5.478  0.00  0.00    +0.164 C 
ATOM     15  O   LIG    1       29.474 -17.958   5.527  0.00  0.00    -0.292 OA
ATOM     16  C   LIG    1       28.895 -20.202   6.039  0.00  0.00    +0.091 C 
ENDBRANCH   3  14
BRANCH   4  17
ATOM     17  O   LIG    1       28.105 -16.422   3.950  0.00  0.00    -0.489 OA
BRANCH  17  18
ATOM     18  C   LIG    1       27.842 -15.097   4.408  0.00  0.00    +0.261 C 
BRANCH  18  19
ATOM     19  C   LIG    1       27.930 -14.121   3.226  0.00  0.00    +0.166 C 
BRANCH  19  20
ATOM     20  O   LIG    1       29.162 -13.397   3.269  0.00  0.00    -0.387 OA
ATOM     21  H   LIG    1       29.152 -12.790   2.510  0.00  0.00    +0.210 HD
ENDBRANCH  19  20
BRANCH  19  22
ATOM     22  C   LIG    1       26.742 -13.140   3.160  0.00  0.00    +0.115 C 
BRANCH  22  23
ATOM     23  N   LIG    1       25.683 -13.560   2.219  0.00  0.00    -0.311 NA
ATOM     24  H   LIG    1       25.805 -14.549   2.005  0.00  0.00    +0.122 HD
BRANCH  23  25
ATOM     25  C   LIG    1       24.333 -13.391   2.797  0.00  0.00    +0.048 C 
ATOM     26  C   LIG    1       23.971 -11.902   2.858  0.00  0.00    +0.024 C 
ATOM     27  C   LIG    1       24.222 -13.987   4.201  0.00  0.00    +0.024 C 
ENDBRANCH  23  25
ENDBRANCH  22  23
ENDBRANCH  19  22
ENDBRANCH  18  19
ENDBRANCH  17  18
ENDBRANCH   4  17
TORSDOF 11
ENDMDL
MODEL 3
REMARK VINA RESULT:      -2.7      2.366      4.774
REMARK  Name = *****
REMARK                            x       y       z     vdW  Elec       q    Type
REMARK                         _______ _______ _______ _____ _____    ______ ____
ROOT
ATOM      1  C   LIG    1       24.342 -16.223   3.592  0.00  0.00    +0.034 A 
ATOM      2  C   LIG    1       23.242 -16.963   4.026  0.00  0.00    +0.038 A 
ATOM      3  C   LIG    1       23.320 -18.369   4.151  0.00  0.00    +0.060 A 
ATOM      4  C   LIG    1       24.546 -19.016   3.905  0.00  0.00    +0.131 A 
ATOM      5  C   LIG    1       25.648 -18.254   3.504  0.00  0.00    +0.048 A 
ATOM      6  C   LIG    1       25.541 -16.877   3.321  0.00  0.00    +0.027 A 
ENDROOT
BRANCH   1   8
ATOM      7  C   LIG    1       25.284 -14.032   3.006  0.00  0.00    +0.217 C 
ATOM      8  N   LIG    1       24.243 -14.824   3.450  0.00  0.00    -0.285 N 
ATOM      9  H   LIG    1       23.302 -14.429   3.420  0.00  0.00    +0.155 HD
ATOM     10  O   LIG    1       26.417 -14.447   2.694  0.00  0.00    -0.276 OA
BRANCH   7  11
ATOM     11  C   LIG    1       24.935 -12.561   2.939  0.00  0.00    +0.096 C 
BRANCH  11  13
ATOM     12  C   LIG    1       23.650 -11.540   4.852  0.00  0.00    +0.004 C 
ATOM     13  C   LIG    1       25.023 -11.893   4.310  0.00  0.00    +0.006 C 
ENDBRANCH  11  13
ENDBRANCH   7  11
ENDBRANCH   1   8
BRANCH   3  14
ATOM     14  C   LIG    1       22.040 -19.084   4.468  0.00  0.00    +0.164 C 
ATOM     15  O   LIG    1       22.094 -20.083   5.193  0.00  0.00    -0.292 OA
ATOM     16  C   LIG    1       20.717 -18.687   3.857  0.00  0.00    +0.091 C 
ENDBRANCH   3  14
BRANCH   4  17
ATOM     17  O   LIG    1       24.597 -20.371   4.032  0.00  0.00    -0.489 OA
BRANCH  17  18
ATOM     18  C   LIG    1       25.758 -20.970   4.604  0.00  0.00    +0.261 C 
BRANCH  18  19
ATOM     19  C   LIG    1       25.408 -21.546   5.984  0.00  0.00    +0.166 C 
BRANCH  19  20
ATOM     20  O   LIG    1       24.182 -20.987   6.460  0.00  0.00    -0.387 OA
ATOM     21  H   LIG    1       24.107 -21.244   7.394  0.00  0.00    +0.210 HD
ENDBRANCH  19  20
BRANCH  19  22
ATOM     22  C   LIG    1       26.525 -21.341   7.027  0.00  0.00    +0.115 C 
BRANCH  22  23
ATOM     23  N   LIG    1       27.124 -19.991   6.992  0.00  0.00    -0.311 NA
ATOM     24  H   LIG    1       26.795 -19.463   7.800  0.00  0.00    +0.122 HD
BRANCH  23  25
ATOM     25  C   LIG    1       28.599 -20.041   7.060  0.00  0.00    +0.048 C 
ATOM     26  C   LIG    1       29.205 -19.034   6.075  0.00  0.00    +0.024 C 
ATOM     27  C   LIG    1       29.150 -21.433   6.750  0.00  0.00    +0.024 C 
ENDBRANCH  23  25
ENDBRANCH  22  23
ENDBRANCH  19  22
ENDBRANCH  18  19
ENDBRANCH  17  18
ENDBRANCH   4  17
TORSDOF 11
ENDMDL
MODEL 4
REMARK VINA RESULT:      -1.6      2.185      6.239
REMARK  Name = *****
REMARK                            x       y       z     vdW  Elec       q    Type
REMARK                         _______ _______ _______ _____ _____    ______ ____
ROOT
ATOM      1  C   LIG    1       27.471 -17.031   4.190  0.00  0.00    +0.034 A 
ATOM      2  C   LIG    1       28.071 -15.795   4.430  0.00  0.00    +0.038 A 
ATOM      3  C   LIG    1       27.624 -14.632   3.762  0.00  0.00    +0.060 A 
ATOM      4  C   LIG    1       26.513 -14.716   2.903  0.00  0.00    +0.131 A 
ATOM      5  C   LIG    1       25.901 -15.957   2.700  0.00  0.00    +0.048 A 
ATOM      6  C   LIG    1       26.392 -17.108   3.313  0.00  0.00    +0.027 A 
ENDROOT
BRANCH   1   8
ATOM      7  C   LIG    1       27.196 -19.342   4.977  0.00  0.00    +0.217 C 
ATOM      8  N   LIG    1       27.942 -18.187   4.846  0.00  0.00    -0.285 N 
ATOM      9  H   LIG    1       28.951 -18.257   4.988  0.00  0.00    +0.155 HD
ATOM     10  O   LIG    1       26.035 -19.495   4.551  0.00  0.00    -0.276 OA
BRANCH   7  11
ATOM     11  C   LIG    1       27.918 -20.444   5.722  0.00  0.00    +0.096 C 
BRANCH  11  13
ATOM     12  C   LIG    1       25.814 -21.201   6.884  0.00  0.00    +0.004 C 
ATOM     13  C   LIG    1       27.254 -20.755   7.061  0.00  0.00    +0.006 C 
ENDBRANCH  11  13
ENDBRANCH   7  11
ENDBRANCH   1   8
BRANCH   3  14
ATOM     14  C   LIG    1       28.437 -13.389   3.967  0.00  0.00    +0.164 C 
ATOM     15  O   LIG    1       29.299 -13.109   3.127  0.00  0.00    -0.292 OA
ATOM     16  C   LIG    1       28.307 -12.531   5.203  0.00  0.00    +0.091 C 
ENDBRANCH   3  14
BRANCH   4  17
ATOM     17  O   LIG    1       26.099 -13.582   2.270  0.00  0.00    -0.489 OA
BRANCH  17  18
ATOM     18  C   LIG    1       25.605 -12.495   3.049  0.00  0.00    +0.261 C 
BRANCH  18  19
ATOM     19  C   LIG    1       24.114 -12.716   3.345  0.00  0.00    +0.166 C 
BRANCH  19  20
ATOM     20  O   LIG    1       23.492 -11.483   3.714  0.00  0.00    -0.387 OA
ATOM     21  H   LIG    1       23.307 -11.542   4.666  0.00  0.00    +0.210 HD
ENDBRANCH  19  20
BRANCH  19  22
ATOM     22  C   LIG    1       23.864 -13.781   4.432  0.00  0.00    +0.115 C 
BRANCH  22  23
ATOM     23  N   LIG    1       23.077 -14.938   3.954  0.00  0.00    -0.311 NA
ATOM     24  H   LIG    1       23.586 -15.392   3.196  0.00  0.00    +0.122 HD
BRANCH  23  25
ATOM     25  C   LIG    1       22.871 -15.941   5.018  0.00  0.00    +0.048 C 
ATOM     26  C   LIG    1       22.323 -17.241   4.417  0.00  0.00    +0.024 C 
ATOM     27  C   LIG    1       21.909 -15.452   6.103  0.00  0.00    +0.024 C 
ENDBRANCH  23  25
ENDBRANCH  22  23
ENDBRANCH  19  22
ENDBRANCH  18  19
ENDBRANCH  17  18
ENDBRANCH   4  17
TORSDOF 11
ENDMDL
