MODEL 1
REMARK VINA RESULT:      -1.7      0.000      0.000
REMARK  Name = *****
REMARK                            x       y       z     vdW  Elec       q    Type
REMARK                         _______ _______ _______ _____ _____    ______ ____
ROOT
ATOM      1  C   LIG    1       24.734 -18.558   3.374  0.00  0.00    +0.080 C 
ATOM      2  C   LIG    1       25.944 -17.624   3.305  0.00  0.00    +0.097 C 
ATOM      3  C   LIG    1       25.579 -16.149   3.536  0.00  0.00    +0.065 C 
ATOM      4  C   LIG    1       24.437 -15.836   4.196  0.00  0.00    +0.016 C 
ATOM      5  C   LIG    1       23.995 -14.448   4.587  0.00  0.00    +0.061 C 
ATOM      6  N   LIG    1       23.566 -16.854   4.553  0.00  0.00    -0.309 N 
ATOM      7  H   LIG    1       22.675 -16.577   4.968  0.00  0.00    +0.152 HD
ATOM      8  C   LIG    1       23.632 -18.137   4.025  0.00  0.00    +0.120 C 
ENDROOT
BRANCH   2   9
ATOM      9  C   LIG    1       27.028 -18.075   4.308  0.00  0.00    -0.029 A 
ATOM     10  C   LIG    1       26.850 -19.248   5.060  0.00  0.00    +0.088 A 
ATOM     11  C   LIG    1       27.840 -19.667   5.966  0.00  0.00    +0.273 A 
ATOM     12  C   LIG    1       29.011 -18.920   6.146  0.00  0.00    +0.084 A 
ATOM     13  C   LIG    1       29.190 -17.750   5.413  0.00  0.00    +0.007 A 
ATOM     14  C   LIG    1       28.211 -17.332   4.505  0.00  0.00    +0.005 A 
BRANCH  11  15
ATOM     15  N   LIG    1       27.646 -20.905   6.731  0.00  0.00    +0.080 N 
ATOM     16  O   LIG    1       26.486 -21.217   7.038  0.00  0.00    -0.576 OA
ATOM     17  O   LIG    1       28.653 -21.566   7.025  0.00  0.00    +0.041 OA
ENDBRANCH  11  15
ENDBRANCH   2   9
BRANCH   1  18
ATOM     18  C   LIG    1       24.810 -19.889   2.720  0.00  0.00    +0.338 C 
ATOM     19  O   LIG    1       25.569 -20.176   1.812  0.00  0.00    -0.245 OA
BRANCH  18  21
ATOM     20  C   LIG    1       24.532 -21.561   4.351  0.00  0.00    +0.280 C 
ATOM     21  O   LIG    1       23.955 -20.753   3.322  0.00  0.00    -0.465 OA
ENDBRANCH  18  21
ENDBRANCH   1  18
BRANCH   3  22
ATOM     22  C   LIG    1       26.443 -15.097   2.928  0.00  0.00    +0.338 C 
ATOM     23  O   LIG    1       26.282 -14.628   1.813  0.00  0.00    -0.245 OA
BRANCH  22  24
ATOM     24  O   LIG    1       27.488 -14.818   3.744  0.00  0.00    -0.459 OA
BRANCH  24  25
ATOM     25  C   LIG    1       27.586 -13.473   4.254  0.00  0.00    +0.171 C 
ATOM     26  C   LIG    1       29.028 -13.016   4.072  0.00  0.00    +0.051 C 
ATOM     27  C   LIG    1       27.196 -13.496   5.724  0.00  0.00    +0.051 C 
ENDBRANCH  24  25
ENDBRANCH  22  24
ENDBRANCH   3  22
BRANCH   8  28
ATOM     28  C   LIG    1       22.519 -18.919   4.377  0.00  0.00    +0.115 C 
ATOM     29  N   LIG    1       21.607 -19.558   4.667  0.00  0.00    -0.190 NA
ENDBRANCH   8  28
TORSDOF 8
ENDMDL
MODEL 2
REMARK VINA RESULT:       0.9      2.287      6.274
REMARK  Name = *****
REMARK                            x       y       z     vdW  Elec       q    Type
REMARK                         _______ _______ _______ _____ _____    ______ ____
ROOT
ATOM      1  C   LIG    1       26.555 -14.842   3.200  0.00  0.00    +0.080 C 
ATOM      2  C   LIG    1       25.850 -16.195   3.088  0.00  0.00    +0.097 C 
ATOM      3  C   LIG    1       26.708 -17.364   3.596  0.00  0.00    +0.065 C 
ATOM      4  C   LIG    1       27.722 -17.126   4.464  0.00  0.00    +0.016 C 
ATOM      5  C   LIG    1       28.582 -18.172   5.126  0.00  0.00    +0.061 C 
ATOM      6  N   LIG    1       28.030 -15.814   4.792  0.00  0.00    -0.309 N 
ATOM      7  H   LIG    1       28.854 -15.665   5.377  0.00  0.00    +0.152 HD
ATOM      8  C   LIG    1       27.576 -14.718   4.070  0.00  0.00    +0.120 C 
ENDROOT
BRANCH   2   9
ATOM      9  C   LIG    1       24.496 -16.158   3.831  0.00  0.00    -0.029 A 
ATOM     10  C   LIG    1       23.650 -17.280   3.812  0.00  0.00    +0.088 A 
ATOM     11  C   LIG    1       22.422 -17.253   4.495  0.00  0.00    +0.273 A 
ATOM     12  C   LIG    1       22.013 -16.110   5.194  0.00  0.00    +0.084 A 
ATOM     13  C   LIG    1       22.840 -14.990   5.207  0.00  0.00    +0.007 A 
ATOM     14  C   LIG    1       24.066 -15.013   4.534  0.00  0.00    +0.005 A 
BRANCH  11  15
ATOM     15  N   LIG    1       21.557 -18.440   4.481  0.00  0.00    +0.080 N 
ATOM     16  O   LIG    1       21.911 -19.417   5.156  0.00  0.00    -0.576 OA
ATOM     17  O   LIG    1       20.526 -18.396   3.795  0.00  0.00    +0.041 OA
ENDBRANCH  11  15
ENDBRANCH   2   9
BRANCH   1  18
ATOM     18  C   LIG    1       26.098 -13.716   2.347  0.00  0.00    +0.338 C 
ATOM     19  O   LIG    1       26.758 -12.726   2.090  0.00  0.00    -0.245 OA
BRANCH  18  21
ATOM     20  C   LIG    1       23.973 -12.859   1.812  0.00  0.00    +0.280 C 
ATOM     21  O   LIG    1       24.863 -13.978   1.850  0.00  0.00    -0.465 OA
ENDBRANCH  18  21
ENDBRANCH   1  18
BRANCH   3  22
ATOM     22  C   LIG    1       26.470 -18.722   3.028  0.00  0.00    +0.338 C 
ATOM     23  O   LIG    1       26.128 -18.942   1.878  0.00  0.00    -0.245 OA
BRANCH  22  24
ATOM     24  O   LIG    1       26.582 -19.662   3.998  0.00  0.00    -0.459 OA
BRANCH  24  25
ATOM     25  C   LIG    1       25.392 -19.989   4.742  0.00  0.00    +0.171 C 
ATOM     26  C   LIG    1       25.829 -20.475   6.119  0.00  0.00    +0.051 C 
ATOM     27  C   LIG    1       24.646 -21.077   3.985  0.00  0.00    +0.051 C 
ENDBRANCH  24  25
ENDBRANCH  22  24
ENDBRANCH   3  22
BRANCH   8  28
ATOM     28  C   LIG    1       28.197 -13.521   4.468  0.00  0.00    +0.115 C 
ATOM     29  N   LIG    1       28.705 -12.541   4.792  0.00  0.00    -0.190 NA
ENDBRANCH   8  28
TORSDOF 8
ENDMDL
