MODEL 1
REMARK VINA RESULT:      -6.4      0.000      0.000
REMARK  Name = *****
REMARK                            x       y       z     vdW  Elec       q    Type
REMARK                         _______ _______ _______ _____ _____    ______ ____
ROOT
ATOM      1  C   LIG    1       26.589 -19.666   4.925  0.00  0.00    -0.030 A 
ATOM      2  C   LIG    1       26.669 -18.467   4.179  0.00  0.00    +0.050 A 
ATOM      3  C   LIG    1       25.569 -17.997   3.439  0.00  0.00    +0.129 A 
ATOM      4  C   LIG    1       24.349 -18.667   3.505  0.00  0.00    +0.046 A 
ATOM      5  C   LIG    1       24.260 -19.861   4.215  0.00  0.00    +0.004 A 
ATOM      6  C   LIG    1       25.367 -20.358   4.909  0.00  0.00    +0.005 A 
ENDROOT
BRANCH   1   8
ATOM      7  C   LIG    1       27.404 -20.829   7.061  0.00  0.00    +0.024 C 
ATOM      8  C   LIG    1       27.796 -20.199   5.708  0.00  0.00    +0.124 C 
BRANCH   8   9
ATOM      9  C   LIG    1       28.919 -19.187   5.981  0.00  0.00    +0.312 C 
ATOM     10  O   LIG    1       29.475 -19.071   7.059  0.00  0.00    -0.250 OA
BRANCH   9  11
ATOM     11  O   LIG    1       29.335 -18.467   4.915  0.00  0.00    -0.480 OA
ATOM     12  H   LIG    1       28.651 -18.263   4.255  0.00  0.00    +0.295 HD
ENDBRANCH   9  11
ENDBRANCH   8   9
ENDBRANCH   1   8
BRANCH   3  13
ATOM     13  O   LIG    1       25.732 -16.830   2.721  0.00  0.00    -0.456 OA
BRANCH  13  14
ATOM     14  C   LIG    1       25.957 -15.646   3.401  0.00  0.00    +0.128 A 
ATOM     15  C   LIG    1       24.824 -14.967   3.862  0.00  0.00    +0.046 A 
ATOM     16  C   LIG    1       24.954 -13.779   4.589  0.00  0.00    +0.004 A 
ATOM     17  C   LIG    1       26.220 -13.273   4.878  0.00  0.00    +0.000 A 
ATOM     18  C   LIG    1       27.355 -13.960   4.447  0.00  0.00    +0.004 A 
ATOM     19  C   LIG    1       27.227 -15.148   3.717  0.00  0.00    +0.046 A 
ENDBRANCH  13  14
ENDBRANCH   3  13
TORSDOF 5
ENDMDL
MODEL 2
REMARK VINA RESULT:      -6.3      2.631      5.985
REMARK  Name = *****
REMARK                            x       y       z     vdW  Elec       q    Type
REMARK                         _______ _______ _______ _____ _____    ______ ____
ROOT
ATOM      1  C   LIG    1       25.365 -15.583   3.562  0.00  0.00    -0.030 A 
ATOM      2  C   LIG    1       25.204 -16.981   3.415  0.00  0.00    +0.050 A 
ATOM      3  C   LIG    1       24.021 -17.623   3.824  0.00  0.00    +0.129 A 
ATOM      4  C   LIG    1       22.950 -16.869   4.300  0.00  0.00    +0.046 A 
ATOM      5  C   LIG    1       23.101 -15.496   4.474  0.00  0.00    +0.004 A 
ATOM      6  C   LIG    1       24.296 -14.863   4.117  0.00  0.00    +0.005 A 
ENDROOT
BRANCH   1   8
ATOM      7  C   LIG    1       27.681 -14.764   4.303  0.00  0.00    +0.024 C 
ATOM      8  C   LIG    1       26.666 -14.884   3.146  0.00  0.00    +0.124 C 
BRANCH   8   9
ATOM      9  C   LIG    1       26.508 -13.486   2.528  0.00  0.00    +0.312 C 
ATOM     10  O   LIG    1       25.575 -13.166   1.813  0.00  0.00    -0.250 OA
BRANCH   9  11
ATOM     11  O   LIG    1       27.436 -12.573   2.892  0.00  0.00    -0.480 OA
ATOM     12  H   LIG    1       27.085 -11.735   3.237  0.00  0.00    +0.295 HD
ENDBRANCH   9  11
ENDBRANCH   8   9
ENDBRANCH   1   8
BRANCH   3  13
ATOM     13  O   LIG    1       23.948 -18.991   3.667  0.00  0.00    -0.456 OA
BRANCH  13  14
ATOM     14  C   LIG    1       24.060 -19.805   4.781  0.00  0.00    +0.128 A 
ATOM     15  C   LIG    1       25.352 -20.222   5.119  0.00  0.00    +0.046 A 
ATOM     16  C   LIG    1       25.568 -21.019   6.249  0.00  0.00    +0.004 A 
ATOM     17  C   LIG    1       24.496 -21.387   7.059  0.00  0.00    +0.000 A 
ATOM     18  C   LIG    1       23.209 -20.950   6.744  0.00  0.00    +0.004 A 
ATOM     19  C   LIG    1       22.990 -20.154   5.613  0.00  0.00    +0.046 A 
ENDBRANCH  13  14
ENDBRANCH   3  13
TORSDOF 5
ENDMDL
MODEL 3
REMARK VINA RESULT:      -6.3      2.327      3.797
REMARK  Name = *****
REMARK                            x       y       z     vdW  Elec       q    Type
REMARK                         _______ _______ _______ _____ _____    ______ ____
ROOT
ATOM      1  C   LIG    1       24.403 -19.285   4.147  0.00  0.00    -0.030 A 
ATOM      2  C   LIG    1       24.884 -18.119   3.508  0.00  0.00    +0.050 A 
ATOM      3  C   LIG    1       26.248 -17.774   3.554  0.00  0.00    +0.129 A 
ATOM      4  C   LIG    1       27.162 -18.634   4.159  0.00  0.00    +0.046 A 
ATOM      5  C   LIG    1       26.702 -19.774   4.814  0.00  0.00    +0.004 A 
ATOM      6  C   LIG    1       25.340 -20.091   4.814  0.00  0.00    +0.005 A 
ENDROOT
BRANCH   1   8
ATOM      7  C   LIG    1       21.992 -18.410   4.187  0.00  0.00    +0.024 C 
ATOM      8  C   LIG    1       22.913 -19.648   4.126  0.00  0.00    +0.124 C 
BRANCH   8   9
ATOM      9  C   LIG    1       22.444 -20.623   5.216  0.00  0.00    +0.312 C 
ATOM     10  O   LIG    1       22.762 -20.528   6.389  0.00  0.00    -0.250 OA
BRANCH   9  11
ATOM     11  O   LIG    1       21.566 -21.572   4.820  0.00  0.00    -0.480 OA
ATOM     12  H   LIG    1       21.559 -21.763   3.867  0.00  0.00    +0.295 HD
ENDBRANCH   9  11
ENDBRANCH   8   9
ENDBRANCH   1   8
BRANCH   3  13
ATOM     13  O   LIG    1       26.636 -16.610   2.923  0.00  0.00    -0.456 OA
BRANCH  13  14
ATOM     14  C   LIG    1       26.405 -15.396   3.547  0.00  0.00    +0.128 A 
ATOM     15  C   LIG    1       25.067 -15.011   3.684  0.00  0.00    +0.046 A 
ATOM     16  C   LIG    1       24.734 -13.817   4.332  0.00  0.00    +0.004 A 
ATOM     17  C   LIG    1       25.737 -13.009   4.865  0.00  0.00    +0.000 A 
ATOM     18  C   LIG    1       27.071 -13.401   4.757  0.00  0.00    +0.004 A 
ATOM     19  C   LIG    1       27.406 -14.596   4.108  0.00  0.00    +0.046 A 
ENDBRANCH  13  14
ENDBRANCH   3  13
TORSDOF 5
ENDMDL
MODEL 4
REMARK VINA RESULT:      -6.1      2.139      3.433
REMARK  Name = *****
REMARK                            x       y       z     vdW  Elec       q    Type
REMARK                         _______ _______ _______ _____ _____    ______ ____
ROOT
ATOM      1  C   LIG    1       25.562 -19.971   4.689  0.00  0.00    -0.030 A 
ATOM      2  C   LIG    1       25.509 -18.837   3.845  0.00  0.00    +0.050 A 
ATOM      3  C   LIG    1       26.585 -17.934   3.774  0.00  0.00    +0.129 A 
ATOM      4  C   LIG    1       27.762 -18.197   4.473  0.00  0.00    +0.046 A 
ATOM      5  C   LIG    1       27.821 -19.295   5.326  0.00  0.00    +0.004 A 
ATOM      6  C   LIG    1       26.733 -20.166   5.439  0.00  0.00    +0.005 A 
ENDROOT
BRANCH   1   8
ATOM      7  C   LIG    1       23.796 -21.331   3.418  0.00  0.00    +0.024 C 
ATOM      8  C   LIG    1       24.379 -20.942   4.794  0.00  0.00    +0.124 C 
BRANCH   8   9
ATOM      9  C   LIG    1       23.207 -20.480   5.674  0.00  0.00    +0.312 C 
ATOM     10  O   LIG    1       22.348 -19.701   5.299  0.00  0.00    -0.250 OA
BRANCH   9  11
ATOM     11  O   LIG    1       23.122 -21.059   6.893  0.00  0.00    -0.480 OA
ATOM     12  H   LIG    1       23.576 -21.914   6.982  0.00  0.00    +0.295 HD
ENDBRANCH   9  11
ENDBRANCH   8   9
ENDBRANCH   1   8
BRANCH   3  13
ATOM     13  O   LIG    1       26.450 -16.841   2.943  0.00  0.00    -0.456 OA
BRANCH  13  14
ATOM     14  C   LIG    1       26.314 -15.582   3.502  0.00  0.00    +0.128 A 
ATOM     15  C   LIG    1       25.007 -15.139   3.729  0.00  0.00    +0.046 A 
ATOM     16  C   LIG    1       24.771 -13.894   4.321  0.00  0.00    +0.004 A 
ATOM     17  C   LIG    1       25.842 -13.091   4.709  0.00  0.00    +0.000 A 
ATOM     18  C   LIG    1       27.149 -13.540   4.512  0.00  0.00    +0.004 A 
ATOM     19  C   LIG    1       27.387 -14.785   3.918  0.00  0.00    +0.046 A 
ENDBRANCH  13  14
ENDBRANCH   3  13
TORSDOF 5
ENDMDL
MODEL 5
REMARK VINA RESULT:      -6.1      2.335      6.360
REMARK  Name = *****
REMARK                            x       y       z     vdW  Elec       q    Type
REMARK                         _______ _______ _______ _____ _____    ______ ____
ROOT
ATOM      1  C   LIG    1       25.410 -14.500   3.644  0.00  0.00    -0.030 A 
ATOM      2  C   LIG    1       25.079 -15.828   3.288  0.00  0.00    +0.050 A 
ATOM      3  C   LIG    1       26.047 -16.850   3.312  0.00  0.00    +0.129 A 
ATOM      4  C   LIG    1       27.332 -16.579   3.778  0.00  0.00    +0.046 A 
ATOM      5  C   LIG    1       27.681 -15.273   4.109  0.00  0.00    +0.004 A 
ATOM      6  C   LIG    1       26.734 -14.246   4.036  0.00  0.00    +0.005 A 
ENDROOT
BRANCH   1   8
ATOM      7  C   LIG    1       24.386 -12.603   2.254  0.00  0.00    +0.024 C 
ATOM      8  C   LIG    1       24.366 -13.377   3.589  0.00  0.00    +0.124 C 
BRANCH   8   9
ATOM      9  C   LIG    1       24.433 -12.342   4.721  0.00  0.00    +0.312 C 
ATOM     10  O   LIG    1       23.619 -11.447   4.867  0.00  0.00    -0.250 OA
BRANCH   9  11
ATOM     11  O   LIG    1       25.419 -12.525   5.629  0.00  0.00    -0.480 OA
ATOM     12  H   LIG    1       25.608 -11.762   6.201  0.00  0.00    +0.295 HD
ENDBRANCH   9  11
ENDBRANCH   8   9
ENDBRANCH   1   8
BRANCH   3  13
ATOM     13  O   LIG    1       25.652 -18.115   2.931  0.00  0.00    -0.456 OA
BRANCH  13  14
ATOM     14  C   LIG    1       24.804 -18.834   3.757  0.00  0.00    +0.128 A 
ATOM     15  C   LIG    1       25.399 -19.806   4.566  0.00  0.00    +0.046 A 
ATOM     16  C   LIG    1       24.627 -20.559   5.458  0.00  0.00    +0.004 A 
ATOM     17  C   LIG    1       23.256 -20.329   5.560  0.00  0.00    +0.000 A 
ATOM     18  C   LIG    1       22.661 -19.341   4.776  0.00  0.00    +0.004 A 
ATOM     19  C   LIG    1       23.432 -18.587   3.882  0.00  0.00    +0.046 A 
ENDBRANCH  13  14
ENDBRANCH   3  13
TORSDOF 5
ENDMDL
MODEL 6
REMARK VINA RESULT:      -6.1      2.319      6.305
REMARK  Name = *****
REMARK                            x       y       z     vdW  Elec       q    Type
REMARK                         _______ _______ _______ _____ _____    ______ ____
ROOT
ATOM      1  C   LIG    1       25.378 -14.651   3.468  0.00  0.00    -0.030 A 
ATOM      2  C   LIG    1       25.016 -15.990   3.189  0.00  0.00    +0.050 A 
ATOM      3  C   LIG    1       25.949 -17.036   3.315  0.00  0.00    +0.129 A 
ATOM      4  C   LIG    1       27.226 -16.773   3.805  0.00  0.00    +0.046 A 
ATOM      5  C   LIG    1       27.606 -15.458   4.061  0.00  0.00    +0.004 A 
ATOM      6  C   LIG    1       26.696 -14.411   3.887  0.00  0.00    +0.005 A 
ENDROOT
BRANCH   1   8
ATOM      7  C   LIG    1       24.596 -12.691   2.010  0.00  0.00    +0.024 C 
ATOM      8  C   LIG    1       24.373 -13.504   3.302  0.00  0.00    +0.124 C 
BRANCH   8   9
ATOM      9  C   LIG    1       24.298 -12.504   4.466  0.00  0.00    +0.312 C 
ATOM     10  O   LIG    1       24.981 -12.587   5.472  0.00  0.00    -0.250 OA
BRANCH   9  11
ATOM     11  O   LIG    1       23.476 -11.447   4.282  0.00  0.00    -0.480 OA
ATOM     12  H   LIG    1       22.798 -11.319   4.967  0.00  0.00    +0.295 HD
ENDBRANCH   9  11
ENDBRANCH   8   9
ENDBRANCH   1   8
BRANCH   3  13
ATOM     13  O   LIG    1       25.526 -18.312   3.005  0.00  0.00    -0.456 OA
BRANCH  13  14
ATOM     14  C   LIG    1       24.867 -19.056   3.970  0.00  0.00    +0.128 A 
ATOM     15  C   LIG    1       23.480 -18.890   4.045  0.00  0.00    +0.046 A 
ATOM     16  C   LIG    1       22.726 -19.625   4.965  0.00  0.00    +0.004 A 
ATOM     17  C   LIG    1       23.351 -20.546   5.804  0.00  0.00    +0.000 A 
ATOM     18  C   LIG    1       24.730 -20.737   5.714  0.00  0.00    +0.004 A 
ATOM     19  C   LIG    1       25.487 -20.002   4.794  0.00  0.00    +0.046 A 
ENDBRANCH  13  14
ENDBRANCH   3  13
TORSDOF 5
ENDMDL
MODEL 7
REMARK VINA RESULT:      -6.0      2.147      5.899
REMARK  Name = *****
REMARK                            x       y       z     vdW  Elec       q    Type
REMARK                         _______ _______ _______ _____ _____    ______ ____
ROOT
ATOM      1  C   LIG    1       24.191 -15.604   4.076  0.00  0.00    -0.030 A 
ATOM      2  C   LIG    1       24.631 -16.924   3.822  0.00  0.00    +0.050 A 
ATOM      3  C   LIG    1       23.780 -18.026   4.029  0.00  0.00    +0.129 A 
ATOM      4  C   LIG    1       22.454 -17.820   4.403  0.00  0.00    +0.046 A 
ATOM      5  C   LIG    1       22.012 -16.529   4.680  0.00  0.00    +0.004 A 
ATOM      6  C   LIG    1       22.871 -15.436   4.526  0.00  0.00    +0.005 A 
ENDROOT
BRANCH   1   8
ATOM      7  C   LIG    1       24.422 -13.193   3.230  0.00  0.00    +0.024 C 
ATOM      8  C   LIG    1       25.125 -14.402   3.883  0.00  0.00    +0.124 C 
BRANCH   8   9
ATOM      9  C   LIG    1       26.409 -14.672   3.085  0.00  0.00    +0.312 C 
ATOM     10  O   LIG    1       26.549 -14.376   1.911  0.00  0.00    -0.250 OA
BRANCH   9  11
ATOM     11  O   LIG    1       27.441 -15.192   3.788  0.00  0.00    -0.480 OA
ATOM     12  H   LIG    1       28.325 -15.017   3.424  0.00  0.00    +0.295 HD
ENDBRANCH   9  11
ENDBRANCH   8   9
ENDBRANCH   1   8
BRANCH   3  13
ATOM     13  O   LIG    1       24.289 -19.283   3.778  0.00  0.00    -0.456 OA
BRANCH  13  14
ATOM     14  C   LIG    1       24.702 -20.067   4.842  0.00  0.00    +0.128 A 
ATOM     15  C   LIG    1       26.069 -20.044   5.139  0.00  0.00    +0.046 A 
ATOM     16  C   LIG    1       26.574 -20.777   6.217  0.00  0.00    +0.004 A 
ATOM     17  C   LIG    1       25.712 -21.525   7.018  0.00  0.00    +0.000 A 
ATOM     18  C   LIG    1       24.344 -21.530   6.745  0.00  0.00    +0.004 A 
ATOM     19  C   LIG    1       23.837 -20.797   5.665  0.00  0.00    +0.046 A 
ENDBRANCH  13  14
ENDBRANCH   3  13
TORSDOF 5
ENDMDL
MODEL 8
REMARK VINA RESULT:      -5.8      2.424      5.888
REMARK  Name = *****
REMARK                            x       y       z     vdW  Elec       q    Type
REMARK                         _______ _______ _______ _____ _____    ______ ____
ROOT
ATOM      1  C   LIG    1       24.910 -14.820   3.863  0.00  0.00    -0.030 A 
ATOM      2  C   LIG    1       25.190 -16.159   3.504  0.00  0.00    +0.050 A 
ATOM      3  C   LIG    1       24.262 -17.187   3.750  0.00  0.00    +0.129 A 
ATOM      4  C   LIG    1       23.008 -16.880   4.274  0.00  0.00    +0.046 A 
ATOM      5  C   LIG    1       22.725 -15.572   4.656  0.00  0.00    +0.004 A 
ATOM      6  C   LIG    1       23.667 -14.557   4.461  0.00  0.00    +0.005 A 
ENDROOT
BRANCH   1   8
ATOM      7  C   LIG    1       26.491 -13.694   2.187  0.00  0.00    +0.024 C 
ATOM      8  C   LIG    1       25.931 -13.701   3.625  0.00  0.00    +0.124 C 
BRANCH   8   9
ATOM      9  C   LIG    1       27.131 -13.672   4.585  0.00  0.00    +0.312 C 
ATOM     10  O   LIG    1       28.281 -13.868   4.233  0.00  0.00    -0.250 OA
BRANCH   9  11
ATOM     11  O   LIG    1       26.855 -13.323   5.862  0.00  0.00    -0.480 OA
ATOM     12  H   LIG    1       25.938 -13.470   6.147  0.00  0.00    +0.295 HD
ENDBRANCH   9  11
ENDBRANCH   8   9
ENDBRANCH   1   8
BRANCH   3  13
ATOM     13  O   LIG    1       24.617 -18.470   3.389  0.00  0.00    -0.456 OA
BRANCH  13  14
ATOM     14  C   LIG    1       24.374 -19.510   4.270  0.00  0.00    +0.128 A 
ATOM     15  C   LIG    1       25.495 -20.086   4.877  0.00  0.00    +0.046 A 
ATOM     16  C   LIG    1       25.346 -21.120   5.808  0.00  0.00    +0.004 A 
ATOM     17  C   LIG    1       24.073 -21.572   6.152  0.00  0.00    +0.000 A 
ATOM     18  C   LIG    1       22.950 -20.982   5.571  0.00  0.00    +0.004 A 
ATOM     19  C   LIG    1       23.097 -19.948   4.639  0.00  0.00    +0.046 A 
ENDBRANCH  13  14
ENDBRANCH   3  13
TORSDOF 5
ENDMDL
MODEL 9
REMARK VINA RESULT:      -5.7      2.011      3.043
REMARK  Name = *****
REMARK                            x       y       z     vdW  Elec       q    Type
REMARK                         _______ _______ _______ _____ _____    ______ ____
ROOT
ATOM      1  C   LIG    1       24.093 -18.310   4.003  0.00  0.00    -0.030 A 
ATOM      2  C   LIG    1       24.429 -16.948   3.821  0.00  0.00    +0.050 A 
ATOM      3  C   LIG    1       23.503 -15.927   4.107  0.00  0.00    +0.129 A 
ATOM      4  C   LIG    1       22.266 -16.246   4.662  0.00  0.00    +0.046 A 
ATOM      5  C   LIG    1       21.911 -17.582   4.825  0.00  0.00    +0.004 A 
ATOM      6  C   LIG    1       22.810 -18.600   4.492  0.00  0.00    +0.005 A 
ENDROOT
BRANCH   1   8
ATOM      7  C   LIG    1       24.418 -20.644   2.990  0.00  0.00    +0.024 C 
ATOM      8  C   LIG    1       25.088 -19.427   3.664  0.00  0.00    +0.124 C 
BRANCH   8   9
ATOM      9  C   LIG    1       25.929 -19.956   4.835  0.00  0.00    +0.312 C 
ATOM     10  O   LIG    1       25.457 -20.535   5.797  0.00  0.00    -0.250 OA
BRANCH   9  11
ATOM     11  O   LIG    1       27.268 -19.822   4.707  0.00  0.00    -0.480 OA
ATOM     12  H   LIG    1       27.733 -19.488   5.492  0.00  0.00    +0.295 HD
ENDBRANCH   9  11
ENDBRANCH   8   9
ENDBRANCH   1   8
BRANCH   3  13
ATOM     13  O   LIG    1       23.899 -14.624   3.884  0.00  0.00    -0.456 OA
BRANCH  13  14
ATOM     14  C   LIG    1       25.243 -14.305   3.962  0.00  0.00    +0.128 A 
ATOM     15  C   LIG    1       25.973 -14.387   2.771  0.00  0.00    +0.046 A 
ATOM     16  C   LIG    1       27.330 -14.051   2.744  0.00  0.00    +0.004 A 
ATOM     17  C   LIG    1       27.963 -13.611   3.906  0.00  0.00    +0.000 A 
ATOM     18  C   LIG    1       27.235 -13.500   5.090  0.00  0.00    +0.004 A 
ATOM     19  C   LIG    1       25.876 -13.836   5.119  0.00  0.00    +0.046 A 
ENDBRANCH  13  14
ENDBRANCH   3  13
TORSDOF 5
ENDMDL
