MODEL 1
REMARK VINA RESULT:      -9.6      0.000      0.000
REMARK  Name = *****
REMARK                            x       y       z     vdW  Elec       q    Type
REMARK                         _______ _______ _______ _____ _____    ______ ____
ROOT
ATOM      1  C   LIG    1       24.491 -28.925   7.209  0.00  0.00    +0.044 C 
ATOM      2  C   LIG    1       24.713 -30.124   6.254  0.00  0.00    +0.122 C 
ATOM      3  C   LIG    1       25.515 -29.534   5.090  0.00  0.00    +0.036 C 
ATOM      4  C   LIG    1       25.026 -28.079   4.967  0.00  0.00    -0.001 C 
ATOM      5  C   LIG    1       26.127 -27.018   5.043  0.00  0.00    +0.034 C 
ATOM      6  C   LIG    1       25.597 -25.947   5.971  0.00  0.00    -0.073 C 
ATOM      7  C   LIG    1       26.290 -24.826   6.249  0.00  0.00    -0.027 C 
ATOM      8  C   LIG    1       24.262 -26.353   6.535  0.00  0.00    +0.035 C 
ATOM      9  C   LIG    1       24.114 -27.829   6.178  0.00  0.00    +0.006 C 
ENDROOT
BRANCH   1  11
ATOM     10  C   LIG    1       25.779 -29.003   9.391  0.00  0.00    +0.000 C 
ATOM     11  C   LIG    1       25.691 -28.632   8.100  0.00  0.00    -0.022 C 
BRANCH  10  12
ATOM     12  C   LIG    1       26.928 -28.676  10.328  0.00  0.00    +0.141 C 
BRANCH  12  13
ATOM     13  C   LIG    1       26.450 -28.326  11.764  0.00  0.00    +0.030 C 
ATOM     14  C   LIG    1       27.567 -28.576  12.788  0.00  0.00    +0.011 C 
BRANCH  13  15
ATOM     15  C   LIG    1       25.194 -29.133  12.182  0.00  0.00    +0.095 C 
BRANCH  15  18
ATOM     16  C   LIG    1       22.270 -26.520  13.499  0.00  0.00    +0.106 C 
ATOM     17  C   LIG    1       23.261 -27.485  13.057  0.00  0.00    -0.106 C 
ATOM     18  C   LIG    1       24.112 -28.259  12.662  0.00  0.00    -0.102 C 
ENDBRANCH  15  18
ENDBRANCH  13  15
ENDBRANCH  12  13
BRANCH  12  19
ATOM     19  O   LIG    1       27.788 -29.812  10.382  0.00  0.00    -0.388 OA
ATOM     20  H   LIG    1       27.355 -30.495  10.922  0.00  0.00    +0.210 HD
ENDBRANCH  12  19
ENDBRANCH  10  12
ENDBRANCH   1  11
BRANCH   2  21
ATOM     21  O   LIG    1       23.448 -30.593   5.774  0.00  0.00    -0.391 OA
ATOM     22  H   LIG    1       23.616 -31.214   5.045  0.00  0.00    +0.210 HD
ENDBRANCH   2  21
BRANCH   7  23
ATOM     23  C   LIG    1       25.872 -23.657   7.111  0.00  0.00    +0.028 C 
BRANCH  23  24
ATOM     24  C   LIG    1       26.957 -22.583   7.244  0.00  0.00    +0.015 C 
BRANCH  24  25
ATOM     25  C   LIG    1       26.407 -21.149   7.176  0.00  0.00    +0.121 C 
BRANCH  25  26
ATOM     26  C   LIG    1       25.505 -20.870   8.358  0.00  0.00    +0.307 C 
ATOM     27  O   LIG    1       25.833 -21.020   9.526  0.00  0.00    -0.251 OA
BRANCH  26  28
ATOM     28  O   LIG    1       24.272 -20.464   7.946  0.00  0.00    -0.457 OA
BRANCH  28  29
ATOM     29  C   LIG    1       23.284 -21.498   7.872  0.00  0.00    +0.311 C 
BRANCH  29  30
ATOM     30  C   LIG    1       22.966 -21.909   6.425  0.00  0.00    +0.200 C 
ATOM     31  O   LIG    1       22.482 -23.008   6.159  0.00  0.00    -0.288 OA
BRANCH  30  32
ATOM     32  C   LIG    1       23.197 -20.917   5.333  0.00  0.00    +0.021 A 
ATOM     33  C   LIG    1       22.430 -19.748   5.244  0.00  0.00    +0.011 A 
ATOM     34  C   LIG    1       22.768 -18.769   4.297  0.00  0.00    +0.001 A 
ATOM     35  C   LIG    1       23.829 -18.977   3.412  0.00  0.00    +0.000 A 
ATOM     36  C   LIG    1       24.547 -20.165   3.461  0.00  0.00    +0.001 A 
ATOM     37  C   LIG    1       24.231 -21.127   4.416  0.00  0.00    +0.011 A 
ENDBRANCH  30  32
ENDBRANCH  29  30
ENDBRANCH  28  29
ENDBRANCH  26  28
ENDBRANCH  25  26
ENDBRANCH  24  25
ENDBRANCH  23  24
ENDBRANCH   7  23
TORSDOF 15
ENDMDL
MODEL 2
REMARK VINA RESULT:      -9.5      1.426      2.632
REMARK  Name = *****
REMARK                            x       y       z     vdW  Elec       q    Type
REMARK                         _______ _______ _______ _____ _____    ______ ____
ROOT
ATOM      1  C   LIG    1       24.175 -29.691   7.198  0.00  0.00    +0.044 C 
ATOM      2  C   LIG    1       24.523 -30.982   6.419  0.00  0.00    +0.122 C 
ATOM      3  C   LIG    1       25.556 -30.530   5.384  0.00  0.00    +0.036 C 
ATOM      4  C   LIG    1       25.163 -29.082   5.035  0.00  0.00    -0.001 C 
ATOM      5  C   LIG    1       26.274 -28.046   5.225  0.00  0.00    +0.034 C 
ATOM      6  C   LIG    1       25.623 -26.876   5.930  0.00  0.00    -0.073 C 
ATOM      7  C   LIG    1       26.298 -25.751   6.233  0.00  0.00    -0.027 C 
ATOM      8  C   LIG    1       24.189 -27.193   6.260  0.00  0.00    +0.035 C 
ATOM      9  C   LIG    1       24.048 -28.692   6.017  0.00  0.00    +0.006 C 
ENDROOT
BRANCH   1  11
ATOM     10  C   LIG    1       25.453 -30.112   9.347  0.00  0.00    +0.000 C 
ATOM     11  C   LIG    1       25.194 -29.341   8.274  0.00  0.00    -0.022 C 
BRANCH  10  12
ATOM     12  C   LIG    1       26.414 -29.769  10.471  0.00  0.00    +0.141 C 
BRANCH  12  13
ATOM     13  C   LIG    1       25.928 -28.569  11.330  0.00  0.00    +0.030 C 
ATOM     14  C   LIG    1       27.099 -27.645  11.691  0.00  0.00    +0.011 C 
BRANCH  13  15
ATOM     15  C   LIG    1       25.224 -29.024  12.635  0.00  0.00    +0.095 C 
BRANCH  15  18
ATOM     16  C   LIG    1       21.760 -26.824  13.155  0.00  0.00    +0.106 C 
ATOM     17  C   LIG    1       22.972 -27.613  13.032  0.00  0.00    -0.106 C 
ATOM     18  C   LIG    1       23.984 -28.271  12.883  0.00  0.00    -0.102 C 
ENDBRANCH  15  18
ENDBRANCH  13  15
ENDBRANCH  12  13
BRANCH  12  19
ATOM     19  O   LIG    1       26.547 -30.920  11.303  0.00  0.00    -0.388 OA
ATOM     20  H   LIG    1       27.482 -31.186  11.303  0.00  0.00    +0.210 HD
ENDBRANCH  12  19
ENDBRANCH  10  12
ENDBRANCH   1  11
BRANCH   2  21
ATOM     21  O   LIG    1       23.354 -31.465   5.748  0.00  0.00    -0.391 OA
ATOM     22  H   LIG    1       23.531 -31.453   4.792  0.00  0.00    +0.210 HD
ENDBRANCH   2  21
BRANCH   7  23
ATOM     23  C   LIG    1       25.774 -24.493   6.886  0.00  0.00    +0.028 C 
BRANCH  23  24
ATOM     24  C   LIG    1       24.711 -23.773   6.050  0.00  0.00    +0.015 C 
BRANCH  24  25
ATOM     25  C   LIG    1       23.364 -23.622   6.775  0.00  0.00    +0.121 C 
BRANCH  25  26
ATOM     26  C   LIG    1       23.050 -22.161   7.014  0.00  0.00    +0.307 C 
ATOM     27  O   LIG    1       22.974 -21.645   8.120  0.00  0.00    -0.251 OA
BRANCH  26  28
ATOM     28  O   LIG    1       22.829 -21.511   5.839  0.00  0.00    -0.457 OA
BRANCH  28  29
ATOM     29  C   LIG    1       23.525 -20.268   5.692  0.00  0.00    +0.311 C 
BRANCH  29  30
ATOM     30  C   LIG    1       24.922 -20.442   5.074  0.00  0.00    +0.200 C 
ATOM     31  O   LIG    1       25.073 -20.657   3.872  0.00  0.00    -0.288 OA
BRANCH  30  32
ATOM     32  C   LIG    1       26.118 -20.281   5.954  0.00  0.00    +0.021 A 
ATOM     33  C   LIG    1       26.042 -20.529   7.331  0.00  0.00    +0.011 A 
ATOM     34  C   LIG    1       27.213 -20.511   8.103  0.00  0.00    +0.001 A 
ATOM     35  C   LIG    1       28.443 -20.198   7.517  0.00  0.00    +0.000 A 
ATOM     36  C   LIG    1       28.505 -19.890   6.163  0.00  0.00    +0.001 A 
ATOM     37  C   LIG    1       27.349 -19.932   5.390  0.00  0.00    +0.011 A 
ENDBRANCH  30  32
ENDBRANCH  29  30
ENDBRANCH  28  29
ENDBRANCH  26  28
ENDBRANCH  25  26
ENDBRANCH  24  25
ENDBRANCH  23  24
ENDBRANCH   7  23
TORSDOF 15
ENDMDL
MODEL 3
REMARK VINA RESULT:      -9.4      2.847      9.521
REMARK  Name = *****
REMARK                            x       y       z     vdW  Elec       q    Type
REMARK                         _______ _______ _______ _____ _____    ______ ____
ROOT
ATOM      1  C   LIG    1       25.114 -21.020   5.234  0.00  0.00    +0.044 C 
ATOM      2  C   LIG    1       24.026 -20.055   5.764  0.00  0.00    +0.122 C 
ATOM      3  C   LIG    1       23.205 -20.909   6.735  0.00  0.00    +0.036 C 
ATOM      4  C   LIG    1       23.251 -22.332   6.150  0.00  0.00    -0.001 C 
ATOM      5  C   LIG    1       23.773 -23.408   7.105  0.00  0.00    +0.034 C 
ATOM      6  C   LIG    1       24.742 -24.240   6.294  0.00  0.00    -0.073 C 
ATOM      7  C   LIG    1       25.375 -25.313   6.805  0.00  0.00    -0.027 C 
ATOM      8  C   LIG    1       24.903 -23.661   4.914  0.00  0.00    +0.035 C 
ATOM      9  C   LIG    1       24.250 -22.284   4.983  0.00  0.00    +0.006 C 
ENDROOT
BRANCH   1  11
ATOM     10  C   LIG    1       27.383 -20.395   6.178  0.00  0.00    +0.000 C 
ATOM     11  C   LIG    1       26.291 -21.184   6.186  0.00  0.00    -0.022 C 
BRANCH  10  12
ATOM     12  C   LIG    1       28.602 -20.564   7.066  0.00  0.00    +0.141 C 
BRANCH  12  13
ATOM     13  C   LIG    1       29.449 -19.266   7.176  0.00  0.00    +0.030 C 
ATOM     14  C   LIG    1       29.472 -18.513   5.839  0.00  0.00    +0.011 C 
BRANCH  13  15
ATOM     15  C   LIG    1       30.907 -19.548   7.621  0.00  0.00    +0.095 C 
BRANCH  15  18
ATOM     16  C   LIG    1       32.522 -16.281   9.577  0.00  0.00    +0.106 C 
ATOM     17  C   LIG    1       31.964 -17.461   8.943  0.00  0.00    -0.106 C 
ATOM     18  C   LIG    1       31.480 -18.423   8.377  0.00  0.00    -0.102 C 
ENDBRANCH  15  18
ENDBRANCH  13  15
ENDBRANCH  12  13
BRANCH  12  19
ATOM     19  O   LIG    1       28.151 -20.943   8.365  0.00  0.00    -0.388 OA
ATOM     20  H   LIG    1       28.619 -20.398   9.019  0.00  0.00    +0.210 HD
ENDBRANCH  12  19
ENDBRANCH  10  12
ENDBRANCH   1  11
BRANCH   2  21
ATOM     21  O   LIG    1       23.193 -19.632   4.679  0.00  0.00    -0.391 OA
ATOM     22  H   LIG    1       23.757 -19.515   3.895  0.00  0.00    +0.210 HD
ENDBRANCH   2  21
BRANCH   7  23
ATOM     23  C   LIG    1       26.325 -26.259   6.107  0.00  0.00    +0.028 C 
BRANCH  23  24
ATOM     24  C   LIG    1       25.619 -27.251   5.177  0.00  0.00    +0.015 C 
BRANCH  24  25
ATOM     25  C   LIG    1       24.450 -27.991   5.848  0.00  0.00    +0.121 C 
BRANCH  25  26
ATOM     26  C   LIG    1       24.659 -29.488   5.779  0.00  0.00    +0.307 C 
ATOM     27  O   LIG    1       25.571 -30.029   5.169  0.00  0.00    -0.251 OA
BRANCH  26  28
ATOM     28  O   LIG    1       23.680 -30.149   6.455  0.00  0.00    -0.457 OA
BRANCH  28  29
ATOM     29  C   LIG    1       24.140 -31.021   7.494  0.00  0.00    +0.311 C 
BRANCH  29  30
ATOM     30  C   LIG    1       23.759 -30.523   8.897  0.00  0.00    +0.200 C 
ATOM     31  O   LIG    1       22.653 -30.753   9.384  0.00  0.00    -0.288 OA
BRANCH  30  32
ATOM     32  C   LIG    1       24.787 -29.797   9.702  0.00  0.00    +0.021 A 
ATOM     33  C   LIG    1       25.910 -29.224   9.093  0.00  0.00    +0.011 A 
ATOM     34  C   LIG    1       26.778 -28.425   9.853  0.00  0.00    +0.001 A 
ATOM     35  C   LIG    1       26.557 -28.243  11.220  0.00  0.00    +0.000 A 
ATOM     36  C   LIG    1       25.477 -28.866  11.834  0.00  0.00    +0.001 A 
ATOM     37  C   LIG    1       24.599 -29.637  11.078  0.00  0.00    +0.011 A 
ENDBRANCH  30  32
ENDBRANCH  29  30
ENDBRANCH  28  29
ENDBRANCH  26  28
ENDBRANCH  25  26
ENDBRANCH  24  25
ENDBRANCH  23  24
ENDBRANCH   7  23
TORSDOF 15
ENDMDL
MODEL 4
REMARK VINA RESULT:      -9.0      3.312      4.888
REMARK  Name = *****
REMARK                            x       y       z     vdW  Elec       q    Type
REMARK                         _______ _______ _______ _____ _____    ______ ____
ROOT
ATOM      1  C   LIG    1       24.464 -28.961   7.159  0.00  0.00    +0.044 C 
ATOM      2  C   LIG    1       24.804 -30.164   6.246  0.00  0.00    +0.122 C 
ATOM      3  C   LIG    1       25.663 -29.560   5.131  0.00  0.00    +0.036 C 
ATOM      4  C   LIG    1       25.124 -28.129   4.946  0.00  0.00    -0.001 C 
ATOM      5  C   LIG    1       26.171 -27.021   5.080  0.00  0.00    +0.034 C 
ATOM      6  C   LIG    1       25.531 -25.958   5.946  0.00  0.00    -0.073 C 
ATOM      7  C   LIG    1       26.155 -24.805   6.251  0.00  0.00    -0.027 C 
ATOM      8  C   LIG    1       24.177 -26.413   6.422  0.00  0.00    +0.035 C 
ATOM      9  C   LIG    1       24.117 -27.899   6.083  0.00  0.00    +0.006 C 
ENDROOT
BRANCH   1  11
ATOM     10  C   LIG    1       25.789 -29.223   9.305  0.00  0.00    +0.000 C 
ATOM     11  C   LIG    1       25.583 -28.603   8.128  0.00  0.00    -0.022 C 
BRANCH  10  12
ATOM     12  C   LIG    1       26.852 -28.855  10.324  0.00  0.00    +0.141 C 
BRANCH  12  13
ATOM     13  C   LIG    1       26.300 -28.804  11.775  0.00  0.00    +0.030 C 
ATOM     14  C   LIG    1       27.131 -29.698  12.707  0.00  0.00    +0.011 C 
BRANCH  13  15
ATOM     15  C   LIG    1       24.813 -29.235  11.857  0.00  0.00    +0.095 C 
BRANCH  15  18
ATOM     16  C   LIG    1       22.341 -26.542  13.793  0.00  0.00    +0.106 C 
ATOM     17  C   LIG    1       23.257 -27.450  13.127  0.00  0.00    -0.106 C 
ATOM     18  C   LIG    1       23.991 -28.244  12.569  0.00  0.00    -0.102 C 
ENDBRANCH  15  18
ENDBRANCH  13  15
ENDBRANCH  12  13
BRANCH  12  19
ATOM     19  O   LIG    1       27.890 -29.830  10.249  0.00  0.00    -0.388 OA
ATOM     20  H   LIG    1       27.722 -30.393   9.475  0.00  0.00    +0.210 HD
ENDBRANCH  12  19
ENDBRANCH  10  12
ENDBRANCH   1  11
BRANCH   2  21
ATOM     21  O   LIG    1       23.598 -30.695   5.686  0.00  0.00    -0.391 OA
ATOM     22  H   LIG    1       23.264 -31.381   6.289  0.00  0.00    +0.210 HD
ENDBRANCH   2  21
BRANCH   7  23
ATOM     23  C   LIG    1       25.627 -23.641   7.058  0.00  0.00    +0.028 C 
BRANCH  23  24
ATOM     24  C   LIG    1       26.703 -22.606   7.405  0.00  0.00    +0.015 C 
BRANCH  24  25
ATOM     25  C   LIG    1       26.240 -21.154   7.202  0.00  0.00    +0.121 C 
BRANCH  25  26
ATOM     26  C   LIG    1       27.413 -20.268   6.844  0.00  0.00    +0.307 C 
ATOM     27  O   LIG    1       27.703 -19.936   5.703  0.00  0.00    -0.251 OA
BRANCH  26  28
ATOM     28  O   LIG    1       28.120 -19.922   7.955  0.00  0.00    -0.457 OA
BRANCH  28  29
ATOM     29  C   LIG    1       29.536 -20.110   7.859  0.00  0.00    +0.311 C 
BRANCH  29  30
ATOM     30  C   LIG    1       30.290 -18.799   7.587  0.00  0.00    +0.200 C 
ATOM     31  O   LIG    1       30.470 -18.384   6.442  0.00  0.00    -0.288 OA
BRANCH  30  32
ATOM     32  C   LIG    1       30.754 -17.986   8.750  0.00  0.00    +0.021 A 
ATOM     33  C   LIG    1       29.969 -17.859   9.904  0.00  0.00    +0.011 A 
ATOM     34  C   LIG    1       30.496 -17.213  11.032  0.00  0.00    +0.001 A 
ATOM     35  C   LIG    1       31.775 -16.652  10.994  0.00  0.00    +0.000 A 
ATOM     36  C   LIG    1       32.527 -16.725   9.827  0.00  0.00    +0.001 A 
ATOM     37  C   LIG    1       32.017 -17.388   8.715  0.00  0.00    +0.011 A 
ENDBRANCH  30  32
ENDBRANCH  29  30
ENDBRANCH  28  29
ENDBRANCH  26  28
ENDBRANCH  25  26
ENDBRANCH  24  25
ENDBRANCH  23  24
ENDBRANCH   7  23
TORSDOF 15
ENDMDL
MODEL 5
REMARK VINA RESULT:      -8.9      2.500      9.183
REMARK  Name = *****
REMARK                            x       y       z     vdW  Elec       q    Type
REMARK                         _______ _______ _______ _____ _____    ______ ____
ROOT
ATOM      1  C   LIG    1       24.419 -19.864   4.036  0.00  0.00    +0.044 C 
ATOM      2  C   LIG    1       23.240 -18.866   4.144  0.00  0.00    +0.122 C 
ATOM      3  C   LIG    1       22.449 -19.349   5.364  0.00  0.00    +0.036 C 
ATOM      4  C   LIG    1       22.628 -20.878   5.373  0.00  0.00    -0.001 C 
ATOM      5  C   LIG    1       23.191 -21.456   6.674  0.00  0.00    +0.034 C 
ATOM      6  C   LIG    1       24.252 -22.449   6.253  0.00  0.00    -0.073 C 
ATOM      7  C   LIG    1       24.945 -23.184   7.143  0.00  0.00    -0.027 C 
ATOM      8  C   LIG    1       24.424 -22.433   4.758  0.00  0.00    +0.035 C 
ATOM      9  C   LIG    1       23.665 -21.196   4.285  0.00  0.00    +0.006 C 
ENDROOT
BRANCH   1  11
ATOM     10  C   LIG    1       26.778 -20.132   4.925  0.00  0.00    +0.000 C 
ATOM     11  C   LIG    1       25.567 -19.547   4.985  0.00  0.00    -0.022 C 
BRANCH  10  12
ATOM     12  C   LIG    1       27.925 -19.890   5.889  0.00  0.00    +0.141 C 
BRANCH  12  13
ATOM     13  C   LIG    1       27.900 -20.856   7.106  0.00  0.00    +0.030 C 
ATOM     14  C   LIG    1       26.804 -20.452   8.102  0.00  0.00    +0.011 C 
BRANCH  13  15
ATOM     15  C   LIG    1       29.260 -20.909   7.847  0.00  0.00    +0.095 C 
BRANCH  15  18
ATOM     16  C   LIG    1       30.490 -17.257   9.351  0.00  0.00    +0.106 C 
ATOM     17  C   LIG    1       30.036 -18.508   8.774  0.00  0.00    -0.106 C 
ATOM     18  C   LIG    1       29.681 -19.580   8.321  0.00  0.00    -0.102 C 
ENDBRANCH  15  18
ENDBRANCH  13  15
ENDBRANCH  12  13
BRANCH  12  19
ATOM     19  O   LIG    1       29.146 -20.067   5.174  0.00  0.00    -0.388 OA
ATOM     20  H   LIG    1       29.367 -21.014   5.181  0.00  0.00    +0.210 HD
ENDBRANCH  12  19
ENDBRANCH  10  12
ENDBRANCH   1  11
BRANCH   2  21
ATOM     21  O   LIG    1       22.421 -18.966   2.974  0.00  0.00    -0.391 OA
ATOM     22  H   LIG    1       22.210 -19.905   2.834  0.00  0.00    +0.210 HD
ENDBRANCH   2  21
BRANCH   7  23
ATOM     23  C   LIG    1       25.991 -24.241   6.872  0.00  0.00    +0.028 C 
BRANCH  23  24
ATOM     24  C   LIG    1       25.432 -25.667   6.889  0.00  0.00    +0.015 C 
BRANCH  24  25
ATOM     25  C   LIG    1       25.025 -26.180   5.498  0.00  0.00    +0.121 C 
BRANCH  25  26
ATOM     26  C   LIG    1       25.959 -27.281   5.044  0.00  0.00    +0.307 C 
ATOM     27  O   LIG    1       27.144 -27.119   4.791  0.00  0.00    -0.251 OA
BRANCH  26  28
ATOM     28  O   LIG    1       25.295 -28.464   4.922  0.00  0.00    -0.457 OA
BRANCH  28  29
ATOM     29  C   LIG    1       24.095 -28.571   5.696  0.00  0.00    +0.311 C 
BRANCH  29  30
ATOM     30  C   LIG    1       24.089 -29.809   6.607  0.00  0.00    +0.200 C 
ATOM     31  O   LIG    1       23.798 -30.924   6.178  0.00  0.00    -0.288 OA
BRANCH  30  32
ATOM     32  C   LIG    1       24.509 -29.650   8.031  0.00  0.00    +0.021 A 
ATOM     33  C   LIG    1       23.721 -30.145   9.078  0.00  0.00    +0.011 A 
ATOM     34  C   LIG    1       24.213 -30.110  10.392  0.00  0.00    +0.001 A 
ATOM     35  C   LIG    1       25.458 -29.540  10.666  0.00  0.00    +0.000 A 
ATOM     36  C   LIG    1       26.210 -28.992   9.634  0.00  0.00    +0.001 A 
ATOM     37  C   LIG    1       25.737 -29.049   8.326  0.00  0.00    +0.011 A 
ENDBRANCH  30  32
ENDBRANCH  29  30
ENDBRANCH  28  29
ENDBRANCH  26  28
ENDBRANCH  25  26
ENDBRANCH  24  25
ENDBRANCH  23  24
ENDBRANCH   7  23
TORSDOF 15
ENDMDL
MODEL 6
REMARK VINA RESULT:      -8.8      1.878      3.584
REMARK  Name = *****
REMARK                            x       y       z     vdW  Elec       q    Type
REMARK                         _______ _______ _______ _____ _____    ______ ____
ROOT
ATOM      1  C   LIG    1       24.412 -29.284   7.215  0.00  0.00    +0.044 C 
ATOM      2  C   LIG    1       24.664 -30.499   6.290  0.00  0.00    +0.122 C 
ATOM      3  C   LIG    1       25.498 -29.929   5.139  0.00  0.00    +0.036 C 
ATOM      4  C   LIG    1       25.010 -28.478   4.975  0.00  0.00    -0.001 C 
ATOM      5  C   LIG    1       26.106 -27.413   5.064  0.00  0.00    +0.034 C 
ATOM      6  C   LIG    1       25.548 -26.326   5.956  0.00  0.00    -0.073 C 
ATOM      7  C   LIG    1       26.231 -25.199   6.233  0.00  0.00    -0.027 C 
ATOM      8  C   LIG    1       24.198 -26.725   6.489  0.00  0.00    +0.035 C 
ATOM      9  C   LIG    1       24.063 -28.208   6.154  0.00  0.00    +0.006 C 
ENDROOT
BRANCH   1  11
ATOM     10  C   LIG    1       25.627 -29.300   9.441  0.00  0.00    +0.000 C 
ATOM     11  C   LIG    1       25.585 -28.972   8.135  0.00  0.00    -0.022 C 
BRANCH  10  12
ATOM     12  C   LIG    1       26.748 -28.953  10.403  0.00  0.00    +0.141 C 
BRANCH  12  13
ATOM     13  C   LIG    1       26.269 -28.870  11.879  0.00  0.00    +0.030 C 
ATOM     14  C   LIG    1       24.855 -29.449  12.027  0.00  0.00    +0.011 C 
BRANCH  13  15
ATOM     15  C   LIG    1       26.279 -27.419  12.423  0.00  0.00    +0.095 C 
BRANCH  15  18
ATOM     16  C   LIG    1       22.578 -26.476  14.010  0.00  0.00    +0.106 C 
ATOM     17  C   LIG    1       23.903 -26.771  13.497  0.00  0.00    -0.106 C 
ATOM     18  C   LIG    1       24.995 -27.053  13.042  0.00  0.00    -0.102 C 
ENDBRANCH  15  18
ENDBRANCH  13  15
ENDBRANCH  12  13
BRANCH  12  19
ATOM     19  O   LIG    1       27.753 -29.959  10.291  0.00  0.00    -0.388 OA
ATOM     20  H   LIG    1       28.335 -29.893  11.066  0.00  0.00    +0.210 HD
ENDBRANCH  12  19
ENDBRANCH  10  12
ENDBRANCH   1  11
BRANCH   2  21
ATOM     21  O   LIG    1       23.414 -30.980   5.782  0.00  0.00    -0.391 OA
ATOM     22  H   LIG    1       23.117 -31.708   6.355  0.00  0.00    +0.210 HD
ENDBRANCH   2  21
BRANCH   7  23
ATOM     23  C   LIG    1       25.786 -24.016   7.061  0.00  0.00    +0.028 C 
BRANCH  23  24
ATOM     24  C   LIG    1       24.510 -23.351   6.533  0.00  0.00    +0.015 C 
BRANCH  24  25
ATOM     25  C   LIG    1       24.593 -22.964   5.048  0.00  0.00    +0.121 C 
BRANCH  25  26
ATOM     26  C   LIG    1       24.302 -21.490   4.867  0.00  0.00    +0.307 C 
ATOM     27  O   LIG    1       23.733 -21.014   3.895  0.00  0.00    -0.251 OA
BRANCH  26  28
ATOM     28  O   LIG    1       24.789 -20.764   5.911  0.00  0.00    -0.457 OA
BRANCH  28  29
ATOM     29  C   LIG    1       26.153 -20.346   5.778  0.00  0.00    +0.311 C 
BRANCH  29  30
ATOM     30  C   LIG    1       26.912 -20.373   7.114  0.00  0.00    +0.200 C 
ATOM     31  O   LIG    1       26.341 -20.621   8.175  0.00  0.00    -0.288 OA
BRANCH  30  32
ATOM     32  C   LIG    1       28.389 -20.154   7.102  0.00  0.00    +0.021 A 
ATOM     33  C   LIG    1       28.977 -19.236   6.221  0.00  0.00    +0.011 A 
ATOM     34  C   LIG    1       30.345 -18.947   6.335  0.00  0.00    +0.001 A 
ATOM     35  C   LIG    1       31.131 -19.605   7.285  0.00  0.00    +0.000 A 
ATOM     36  C   LIG    1       30.558 -20.561   8.114  0.00  0.00    +0.001 A 
ATOM     37  C   LIG    1       29.196 -20.831   8.021  0.00  0.00    +0.011 A 
ENDBRANCH  30  32
ENDBRANCH  29  30
ENDBRANCH  28  29
ENDBRANCH  26  28
ENDBRANCH  25  26
ENDBRANCH  24  25
ENDBRANCH  23  24
ENDBRANCH   7  23
TORSDOF 15
ENDMDL
MODEL 7
REMARK VINA RESULT:      -8.5      2.095      4.869
REMARK  Name = *****
REMARK                            x       y       z     vdW  Elec       q    Type
REMARK                         _______ _______ _______ _____ _____    ______ ____
ROOT
ATOM      1  C   LIG    1       25.204 -30.061  12.371  0.00  0.00    +0.044 C 
ATOM      2  C   LIG    1       26.362 -30.073  13.397  0.00  0.00    +0.122 C 
ATOM      3  C   LIG    1       27.541 -29.452  12.642  0.00  0.00    +0.036 C 
ATOM      4  C   LIG    1       27.340 -29.873  11.175  0.00  0.00    -0.001 C 
ATOM      5  C   LIG    1       27.292 -28.718  10.171  0.00  0.00    +0.034 C 
ATOM      6  C   LIG    1       26.125 -29.020   9.257  0.00  0.00    -0.073 C 
ATOM      7  C   LIG    1       25.800 -28.228   8.218  0.00  0.00    -0.027 C 
ATOM      8  C   LIG    1       25.404 -30.258   9.717  0.00  0.00    +0.035 C 
ATOM      9  C   LIG    1       25.961 -30.548  11.107  0.00  0.00    +0.006 C 
ENDROOT
BRANCH   1  11
ATOM     10  C   LIG    1       24.167 -27.951  13.322  0.00  0.00    +0.000 C 
ATOM     11  C   LIG    1       24.506 -28.711  12.263  0.00  0.00    -0.022 C 
BRANCH  10  12
ATOM     12  C   LIG    1       23.417 -26.633  13.259  0.00  0.00    +0.141 C 
BRANCH  12  13
ATOM     13  C   LIG    1       22.025 -26.701  13.946  0.00  0.00    +0.030 C 
ATOM     14  C   LIG    1       21.994 -27.807  15.011  0.00  0.00    +0.011 C 
BRANCH  13  15
ATOM     15  C   LIG    1       20.878 -26.945  12.932  0.00  0.00    +0.095 C 
BRANCH  15  18
ATOM     16  C   LIG    1       17.133 -26.246  14.544  0.00  0.00    +0.106 C 
ATOM     17  C   LIG    1       18.453 -26.430  13.970  0.00  0.00    -0.106 C 
ATOM     18  C   LIG    1       19.560 -26.628  13.505  0.00  0.00    -0.102 C 
ENDBRANCH  15  18
ENDBRANCH  13  15
ENDBRANCH  12  13
BRANCH  12  19
ATOM     19  O   LIG    1       24.213 -25.643  13.907  0.00  0.00    -0.388 OA
ATOM     20  H   LIG    1       23.706 -24.813  13.929  0.00  0.00    +0.210 HD
ENDBRANCH  12  19
ENDBRANCH  10  12
ENDBRANCH   1  11
BRANCH   2  21
ATOM     21  O   LIG    1       26.678 -31.426  13.746  0.00  0.00    -0.391 OA
ATOM     22  H   LIG    1       25.843 -31.889  13.933  0.00  0.00    +0.210 HD
ENDBRANCH   2  21
BRANCH   7  23
ATOM     23  C   LIG    1       24.701 -28.426   7.199  0.00  0.00    +0.028 C 
BRANCH  23  24
ATOM     24  C   LIG    1       24.673 -27.341   6.117  0.00  0.00    +0.015 C 
BRANCH  24  25
ATOM     25  C   LIG    1       25.365 -26.037   6.544  0.00  0.00    +0.121 C 
BRANCH  25  26
ATOM     26  C   LIG    1       24.441 -24.855   6.344  0.00  0.00    +0.307 C 
ATOM     27  O   LIG    1       23.251 -24.857   6.623  0.00  0.00    -0.251 OA
BRANCH  26  28
ATOM     28  O   LIG    1       25.104 -23.807   5.781  0.00  0.00    -0.457 OA
BRANCH  28  29
ATOM     29  C   LIG    1       25.469 -22.761   6.688  0.00  0.00    +0.311 C 
BRANCH  29  30
ATOM     30  C   LIG    1       24.338 -21.742   6.901  0.00  0.00    +0.200 C 
ATOM     31  O   LIG    1       23.756 -21.641   7.981  0.00  0.00    -0.288 OA
BRANCH  30  32
ATOM     32  C   LIG    1       23.990 -20.815   5.783  0.00  0.00    +0.021 A 
ATOM     33  C   LIG    1       22.762 -20.142   5.757  0.00  0.00    +0.011 A 
ATOM     34  C   LIG    1       22.526 -19.170   4.774  0.00  0.00    +0.001 A 
ATOM     35  C   LIG    1       23.486 -18.907   3.793  0.00  0.00    +0.000 A 
ATOM     36  C   LIG    1       24.679 -19.621   3.785  0.00  0.00    +0.001 A 
ATOM     37  C   LIG    1       24.926 -20.568   4.775  0.00  0.00    +0.011 A 
ENDBRANCH  30  32
ENDBRANCH  29  30
ENDBRANCH  28  29
ENDBRANCH  26  28
ENDBRANCH  25  26
ENDBRANCH  24  25
ENDBRANCH  23  24
ENDBRANCH   7  23
TORSDOF 15
ENDMDL
MODEL 8
REMARK VINA RESULT:      -8.3      2.110      4.089
REMARK  Name = *****
REMARK                            x       y       z     vdW  Elec       q    Type
REMARK                         _______ _______ _______ _____ _____    ______ ____
ROOT
ATOM      1  C   LIG    1       24.044 -30.536  11.398  0.00  0.00    +0.044 C 
ATOM      2  C   LIG    1       24.731 -31.747  12.073  0.00  0.00    +0.122 C 
ATOM      3  C   LIG    1       25.670 -32.297  10.995  0.00  0.00    +0.036 C 
ATOM      4  C   LIG    1       24.953 -32.015   9.662  0.00  0.00    -0.001 C 
ATOM      5  C   LIG    1       25.768 -31.211   8.646  0.00  0.00    +0.034 C 
ATOM      6  C   LIG    1       24.821 -30.166   8.098  0.00  0.00    -0.073 C 
ATOM      7  C   LIG    1       25.187 -29.291   7.143  0.00  0.00    -0.027 C 
ATOM      8  C   LIG    1       23.493 -30.239   8.804  0.00  0.00    +0.035 C 
ATOM      9  C   LIG    1       23.733 -31.147  10.006  0.00  0.00    +0.006 C 
ENDROOT
BRANCH   1  11
ATOM     10  C   LIG    1       25.542 -28.809  12.494  0.00  0.00    +0.000 C 
ATOM     11  C   LIG    1       24.897 -29.274  11.408  0.00  0.00    -0.022 C 
BRANCH  10  12
ATOM     12  C   LIG    1       26.349 -27.525  12.560  0.00  0.00    +0.141 C 
BRANCH  12  13
ATOM     13  C   LIG    1       26.132 -26.748  13.888  0.00  0.00    +0.030 C 
ATOM     14  C   LIG    1       25.605 -27.680  14.988  0.00  0.00    +0.011 C 
BRANCH  13  15
ATOM     15  C   LIG    1       25.151 -25.558  13.722  0.00  0.00    +0.095 C 
BRANCH  15  18
ATOM     16  C   LIG    1       21.304 -26.982  13.188  0.00  0.00    +0.106 C 
ATOM     17  C   LIG    1       22.630 -26.430  13.399  0.00  0.00    -0.106 C 
ATOM     18  C   LIG    1       23.759 -26.010  13.569  0.00  0.00    -0.102 C 
ENDBRANCH  15  18
ENDBRANCH  13  15
ENDBRANCH  12  13
BRANCH  12  19
ATOM     19  O   LIG    1       27.728 -27.866  12.435  0.00  0.00    -0.388 OA
ATOM     20  H   LIG    1       27.991 -28.362  13.228  0.00  0.00    +0.210 HD
ENDBRANCH  12  19
ENDBRANCH  10  12
ENDBRANCH   1  11
BRANCH   2  21
ATOM     21  O   LIG    1       23.747 -32.736  12.398  0.00  0.00    -0.391 OA
ATOM     22  H   LIG    1       22.928 -32.510  11.924  0.00  0.00    +0.210 HD
ENDBRANCH   2  21
BRANCH   7  23
ATOM     23  C   LIG    1       24.343 -28.232   6.471  0.00  0.00    +0.028 C 
BRANCH  23  24
ATOM     24  C   LIG    1       25.042 -26.872   6.372  0.00  0.00    +0.015 C 
BRANCH  24  25
ATOM     25  C   LIG    1       24.072 -25.704   6.130  0.00  0.00    +0.121 C 
BRANCH  25  26
ATOM     26  C   LIG    1       24.832 -24.403   5.988  0.00  0.00    +0.307 C 
ATOM     27  O   LIG    1       25.017 -23.825   4.926  0.00  0.00    -0.251 OA
BRANCH  26  28
ATOM     28  O   LIG    1       25.311 -23.984   7.192  0.00  0.00    -0.457 OA
BRANCH  28  29
ATOM     29  C   LIG    1       26.086 -22.781   7.153  0.00  0.00    +0.311 C 
BRANCH  29  30
ATOM     30  C   LIG    1       25.258 -21.532   7.494  0.00  0.00    +0.200 C 
ATOM     31  O   LIG    1       25.137 -21.135   8.652  0.00  0.00    -0.288 OA
BRANCH  30  32
ATOM     32  C   LIG    1       24.642 -20.755   6.377  0.00  0.00    +0.021 A 
ATOM     33  C   LIG    1       25.393 -20.382   5.255  0.00  0.00    +0.011 A 
ATOM     34  C   LIG    1       24.751 -19.783   4.161  0.00  0.00    +0.001 A 
ATOM     35  C   LIG    1       23.381 -19.512   4.204  0.00  0.00    +0.000 A 
ATOM     36  C   LIG    1       22.651 -19.826   5.344  0.00  0.00    +0.001 A 
ATOM     37  C   LIG    1       23.280 -20.444   6.421  0.00  0.00    +0.011 A 
ENDBRANCH  30  32
ENDBRANCH  29  30
ENDBRANCH  28  29
ENDBRANCH  26  28
ENDBRANCH  25  26
ENDBRANCH  24  25
ENDBRANCH  23  24
ENDBRANCH   7  23
TORSDOF 15
ENDMDL
MODEL 9
REMARK VINA RESULT:      -8.3      3.320      9.669
REMARK  Name = *****
REMARK                            x       y       z     vdW  Elec       q    Type
REMARK                         _______ _______ _______ _____ _____    ______ ____
ROOT
ATOM      1  C   LIG    1       24.568 -19.956   4.152  0.00  0.00    +0.044 C 
ATOM      2  C   LIG    1       23.390 -18.954   4.220  0.00  0.00    +0.122 C 
ATOM      3  C   LIG    1       22.520 -19.475   5.368  0.00  0.00    +0.036 C 
ATOM      4  C   LIG    1       22.689 -21.005   5.333  0.00  0.00    -0.001 C 
ATOM      5  C   LIG    1       23.164 -21.633   6.646  0.00  0.00    +0.034 C 
ATOM      6  C   LIG    1       24.246 -22.618   6.259  0.00  0.00    -0.073 C 
ATOM      7  C   LIG    1       24.875 -23.390   7.164  0.00  0.00    -0.027 C 
ATOM      8  C   LIG    1       24.514 -22.549   4.779  0.00  0.00    +0.035 C 
ATOM      9  C   LIG    1       23.793 -21.291   4.304  0.00  0.00    +0.006 C 
ENDROOT
BRANCH   1  11
ATOM     10  C   LIG    1       26.974 -19.752   4.928  0.00  0.00    +0.000 C 
ATOM     11  C   LIG    1       25.654 -19.682   5.185  0.00  0.00    -0.022 C 
BRANCH  10  12
ATOM     12  C   LIG    1       28.084 -19.548   5.943  0.00  0.00    +0.141 C 
BRANCH  12  13
ATOM     13  C   LIG    1       28.220 -20.741   6.930  0.00  0.00    +0.030 C 
ATOM     14  C   LIG    1       27.130 -20.685   8.009  0.00  0.00    +0.011 C 
BRANCH  13  15
ATOM     15  C   LIG    1       29.609 -20.782   7.618  0.00  0.00    +0.095 C 
BRANCH  15  18
ATOM     16  C   LIG    1       30.301 -17.182   9.534  0.00  0.00    +0.106 C 
ATOM     17  C   LIG    1       30.108 -18.469   8.891  0.00  0.00    -0.106 C 
ATOM     18  C   LIG    1       29.903 -19.534   8.339  0.00  0.00    -0.102 C 
ENDBRANCH  15  18
ENDBRANCH  13  15
ENDBRANCH  12  13
BRANCH  12  19
ATOM     19  O   LIG    1       29.308 -19.386   5.230  0.00  0.00    -0.388 OA
ATOM     20  H   LIG    1       29.706 -18.541   5.500  0.00  0.00    +0.210 HD
ENDBRANCH  12  19
ENDBRANCH  10  12
ENDBRANCH   1  11
BRANCH   2  21
ATOM     21  O   LIG    1       22.648 -19.005   2.996  0.00  0.00    -0.391 OA
ATOM     22  H   LIG    1       21.762 -19.352   3.197  0.00  0.00    +0.210 HD
ENDBRANCH   2  21
BRANCH   7  23
ATOM     23  C   LIG    1       25.931 -24.443   6.922  0.00  0.00    +0.028 C 
BRANCH  23  24
ATOM     24  C   LIG    1       25.584 -25.400   5.777  0.00  0.00    +0.015 C 
BRANCH  24  25
ATOM     25  C   LIG    1       26.284 -26.764   5.887  0.00  0.00    +0.121 C 
BRANCH  25  26
ATOM     26  C   LIG    1       25.566 -27.650   6.882  0.00  0.00    +0.307 C 
ATOM     27  O   LIG    1       25.979 -27.900   8.006  0.00  0.00    -0.251 OA
BRANCH  26  28
ATOM     28  O   LIG    1       24.421 -28.157   6.347  0.00  0.00    -0.457 OA
BRANCH  28  29
ATOM     29  C   LIG    1       24.602 -29.280   5.476  0.00  0.00    +0.311 C 
BRANCH  29  30
ATOM     30  C   LIG    1       24.547 -30.622   6.224  0.00  0.00    +0.200 C 
ATOM     31  O   LIG    1       23.663 -30.868   7.044  0.00  0.00    -0.288 OA
BRANCH  30  32
ATOM     32  C   LIG    1       25.560 -31.668   5.892  0.00  0.00    +0.021 A 
ATOM     33  C   LIG    1       25.606 -32.251   4.619  0.00  0.00    +0.011 A 
ATOM     34  C   LIG    1       26.658 -33.120   4.293  0.00  0.00    +0.001 A 
ATOM     35  C   LIG    1       27.627 -33.446   5.246  0.00  0.00    +0.000 A 
ATOM     36  C   LIG    1       27.543 -32.916   6.527  0.00  0.00    +0.001 A 
ATOM     37  C   LIG    1       26.515 -32.032   6.845  0.00  0.00    +0.011 A 
ENDBRANCH  30  32
ENDBRANCH  29  30
ENDBRANCH  28  29
ENDBRANCH  26  28
ENDBRANCH  25  26
ENDBRANCH  24  25
ENDBRANCH  23  24
ENDBRANCH   7  23
TORSDOF 15
ENDMDL
