MODEL 1
REMARK VINA RESULT:      -8.8      0.000      0.000
REMARK  Name = *****
REMARK                            x       y       z     vdW  Elec       q    Type
REMARK                         _______ _______ _______ _____ _____    ______ ____
ROOT
ATOM      1  N   LIG    1       25.208 -24.510   5.026  0.00  0.00    -0.087 NA
ATOM      2  C   LIG    1       25.163 -23.558   5.914  0.00  0.00    +0.108 C 
ENDROOT
BRANCH   2   3
ATOM      3  C   LIG    1       24.376 -22.311   5.561  0.00  0.00    +0.020 A 
ATOM      4  C   LIG    1       23.081 -21.998   6.001  0.00  0.00    +0.051 A 
ATOM      5 CL   LIG    1       22.065 -23.083   6.877  0.00  0.00    -0.083 Cl
ATOM      6  C   LIG    1       22.489 -20.770   5.657  0.00  0.00    +0.040 A 
ATOM      7  C   LIG    1       23.161 -19.871   4.835  0.00  0.00    +0.042 A 
ATOM      8 CL   LIG    1       22.408 -18.389   4.390  0.00  0.00    -0.084 Cl
ATOM      9  C   LIG    1       24.425 -20.180   4.352  0.00  0.00    +0.021 A 
ATOM     10  C   LIG    1       25.031 -21.387   4.719  0.00  0.00    +0.013 A 
ENDBRANCH   2   3
BRANCH   1  11
ATOM     11  O   LIG    1       26.007 -25.586   5.455  0.00  0.00    -0.389 OA
BRANCH  11  12
ATOM     12  C   LIG    1       25.322 -26.828   5.267  0.00  0.00    +0.299 C 
BRANCH  12  18
ATOM     13 CL   LIG    1       25.918 -30.058  10.337  0.00  0.00    -0.084 Cl
ATOM     14  C   LIG    1       25.752 -29.162   8.877  0.00  0.00    +0.042 A 
ATOM     15  C   LIG    1       24.910 -29.626   7.871  0.00  0.00    +0.040 A 
ATOM     16  C   LIG    1       24.768 -28.890   6.690  0.00  0.00    +0.049 A 
ATOM     17 CL   LIG    1       23.690 -29.511   5.492  0.00  0.00    -0.083 Cl
ATOM     18  C   LIG    1       25.473 -27.688   6.502  0.00  0.00    +0.011 A 
ATOM     19  C   LIG    1       26.316 -27.241   7.535  0.00  0.00    +0.010 A 
ATOM     20  C   LIG    1       26.455 -27.972   8.715  0.00  0.00    +0.020 A 
ENDBRANCH  12  18
ENDBRANCH  11  12
ENDBRANCH   1  11
BRANCH   2  21
ATOM     21  C   LIG    1       25.960 -23.617   7.221  0.00  0.00    +0.182 C 
BRANCH  21  22
ATOM     22  N   LIG    1       26.439 -22.320   7.667  0.00  0.00    -0.331 N 
ATOM     23  C   LIG    1       25.833 -21.489   8.566  0.00  0.00    +0.199 A 
ATOM     24  N   LIG    1       26.522 -20.382   8.731  0.00  0.00    -0.244 NA
ATOM     25  C   LIG    1       27.579 -20.479   7.864  0.00  0.00    +0.130 A 
ATOM     26  C   LIG    1       27.538 -21.670   7.178  0.00  0.00    +0.107 A 
ENDBRANCH  21  22
ENDBRANCH   2  21
TORSDOF 6
ENDMDL
MODEL 2
REMARK VINA RESULT:      -8.8      3.691      6.968
REMARK  Name = *****
REMARK                            x       y       z     vdW  Elec       q    Type
REMARK                         _______ _______ _______ _____ _____    ______ ____
ROOT
ATOM      1  N   LIG    1       27.168 -20.790   6.542  0.00  0.00    -0.087 NA
ATOM      2  C   LIG    1       26.039 -21.440   6.555  0.00  0.00    +0.108 C 
ENDROOT
BRANCH   2   3
ATOM      3  C   LIG    1       24.842 -20.771   5.908  0.00  0.00    +0.020 A 
ATOM      4  C   LIG    1       23.532 -20.752   6.412  0.00  0.00    +0.051 A 
ATOM      5 CL   LIG    1       23.004 -21.666   7.776  0.00  0.00    -0.083 Cl
ATOM      6  C   LIG    1       22.524 -20.031   5.747  0.00  0.00    +0.040 A 
ATOM      7  C   LIG    1       22.801 -19.368   4.556  0.00  0.00    +0.042 A 
ATOM      8 CL   LIG    1       21.548 -18.524   3.734  0.00  0.00    -0.084 Cl
ATOM      9  C   LIG    1       24.079 -19.411   4.017  0.00  0.00    +0.021 A 
ATOM     10  C   LIG    1       25.094 -20.100   4.692  0.00  0.00    +0.013 A 
ENDBRANCH   2   3
BRANCH   1  11
ATOM     11  O   LIG    1       28.183 -21.495   7.214  0.00  0.00    -0.389 OA
BRANCH  11  12
ATOM     12  C   LIG    1       29.471 -21.122   6.715  0.00  0.00    +0.299 C 
BRANCH  12  18
ATOM     13 CL   LIG    1       31.783 -16.938  10.407  0.00  0.00    -0.084 Cl
ATOM     14  C   LIG    1       31.150 -18.142   9.352  0.00  0.00    +0.042 A 
ATOM     15  C   LIG    1       31.475 -19.480   9.554  0.00  0.00    +0.040 A 
ATOM     16  C   LIG    1       30.950 -20.457   8.702  0.00  0.00    +0.049 A 
ATOM     17 CL   LIG    1       31.375 -22.100   9.023  0.00  0.00    -0.083 Cl
ATOM     18  C   LIG    1       30.104 -20.105   7.636  0.00  0.00    +0.011 A 
ATOM     19  C   LIG    1       29.790 -18.746   7.456  0.00  0.00    +0.010 A 
ATOM     20  C   LIG    1       30.309 -17.770   8.308  0.00  0.00    +0.020 A 
ENDBRANCH  12  18
ENDBRANCH  11  12
ENDBRANCH   1  11
BRANCH   2  21
ATOM     21  C   LIG    1       25.869 -22.773   7.288  0.00  0.00    +0.182 C 
BRANCH  21  22
ATOM     22  N   LIG    1       25.675 -23.904   6.398  0.00  0.00    -0.331 N 
ATOM     23  C   LIG    1       24.989 -23.908   5.216  0.00  0.00    +0.199 A 
ATOM     24  N   LIG    1       24.989 -25.102   4.668  0.00  0.00    -0.244 NA
ATOM     25  C   LIG    1       25.649 -25.910   5.557  0.00  0.00    +0.130 A 
ATOM     26  C   LIG    1       26.070 -25.189   6.650  0.00  0.00    +0.107 A 
ENDBRANCH  21  22
ENDBRANCH   2  21
TORSDOF 6
ENDMDL
MODEL 3
REMARK VINA RESULT:      -8.7      3.947      7.592
REMARK  Name = *****
REMARK                            x       y       z     vdW  Elec       q    Type
REMARK                         _______ _______ _______ _____ _____    ______ ____
ROOT
ATOM      1  N   LIG    1       27.243 -22.058   7.500  0.00  0.00    -0.087 NA
ATOM      2  C   LIG    1       25.983 -22.122   7.176  0.00  0.00    +0.108 C 
ENDROOT
BRANCH   2   3
ATOM      3  C   LIG    1       25.418 -23.489   6.840  0.00  0.00    +0.020 A 
ATOM      4  C   LIG    1       24.058 -23.821   6.745  0.00  0.00    +0.051 A 
ATOM      5 CL   LIG    1       22.769 -22.766   7.192  0.00  0.00    -0.083 Cl
ATOM      6  C   LIG    1       23.667 -25.113   6.354  0.00  0.00    +0.040 A 
ATOM      7  C   LIG    1       24.622 -26.093   6.104  0.00  0.00    +0.042 A 
ATOM      8 CL   LIG    1       24.127 -27.681   5.665  0.00  0.00    -0.084 Cl
ATOM      9  C   LIG    1       25.972 -25.798   6.235  0.00  0.00    +0.021 A 
ATOM     10  C   LIG    1       26.367 -24.503   6.592  0.00  0.00    +0.013 A 
ENDBRANCH   2   3
BRANCH   1  11
ATOM     11  O   LIG    1       27.653 -20.733   7.739  0.00  0.00    -0.389 OA
BRANCH  11  12
ATOM     12  C   LIG    1       28.829 -20.426   6.984  0.00  0.00    +0.299 C 
BRANCH  12  18
ATOM     13 CL   LIG    1       32.485 -17.082  10.439  0.00  0.00    -0.084 Cl
ATOM     14  C   LIG    1       31.466 -18.050   9.446  0.00  0.00    +0.042 A 
ATOM     15  C   LIG    1       31.561 -19.437   9.501  0.00  0.00    +0.040 A 
ATOM     16  C   LIG    1       30.724 -20.223   8.701  0.00  0.00    +0.049 A 
ATOM     17 CL   LIG    1       30.878 -21.937   8.835  0.00  0.00    -0.083 Cl
ATOM     18  C   LIG    1       29.791 -19.627   7.835  0.00  0.00    +0.011 A 
ATOM     19  C   LIG    1       29.713 -18.224   7.801  0.00  0.00    +0.010 A 
ATOM     20  C   LIG    1       30.546 -17.439   8.601  0.00  0.00    +0.020 A 
ENDBRANCH  12  18
ENDBRANCH  11  12
ENDBRANCH   1  11
BRANCH   2  21
ATOM     21  C   LIG    1       25.113 -20.872   7.016  0.00  0.00    +0.182 C 
BRANCH  21  22
ATOM     22  N   LIG    1       24.908 -20.482   5.632  0.00  0.00    -0.331 N 
ATOM     23  C   LIG    1       25.870 -20.116   4.733  0.00  0.00    +0.199 A 
ATOM     24  N   LIG    1       25.343 -19.803   3.570  0.00  0.00    -0.244 NA
ATOM     25  C   LIG    1       23.988 -19.915   3.744  0.00  0.00    +0.130 A 
ATOM     26  C   LIG    1       23.693 -20.319   5.025  0.00  0.00    +0.107 A 
ENDBRANCH  21  22
ENDBRANCH   2  21
TORSDOF 6
ENDMDL
MODEL 4
REMARK VINA RESULT:      -8.7      3.782      7.017
REMARK  Name = *****
REMARK                            x       y       z     vdW  Elec       q    Type
REMARK                         _______ _______ _______ _____ _____    ______ ____
ROOT
ATOM      1  N   LIG    1       26.786 -20.753   6.885  0.00  0.00    -0.087 NA
ATOM      2  C   LIG    1       25.572 -21.224   6.850  0.00  0.00    +0.108 C 
ENDROOT
BRANCH   2   3
ATOM      3  C   LIG    1       24.569 -20.501   5.972  0.00  0.00    +0.020 A 
ATOM      4  C   LIG    1       24.846 -19.859   4.755  0.00  0.00    +0.051 A 
ATOM      5 CL   LIG    1       26.434 -19.605   4.132  0.00  0.00    -0.083 Cl
ATOM      6  C   LIG    1       23.808 -19.286   4.000  0.00  0.00    +0.040 A 
ATOM      7  C   LIG    1       22.500 -19.306   4.473  0.00  0.00    +0.042 A 
ATOM      8 CL   LIG    1       21.245 -18.565   3.557  0.00  0.00    -0.084 Cl
ATOM      9  C   LIG    1       22.210 -19.897   5.696  0.00  0.00    +0.021 A 
ATOM     10  C   LIG    1       23.236 -20.498   6.434  0.00  0.00    +0.013 A 
ENDBRANCH   2   3
BRANCH   1  11
ATOM     11  O   LIG    1       27.602 -21.481   7.771  0.00  0.00    -0.389 OA
BRANCH  11  12
ATOM     12  C   LIG    1       28.922 -21.626   7.237  0.00  0.00    +0.299 C 
BRANCH  12  18
ATOM     13 CL   LIG    1       32.207 -16.931   9.148  0.00  0.00    -0.084 Cl
ATOM     14  C   LIG    1       31.296 -18.284   8.599  0.00  0.00    +0.042 A 
ATOM     15  C   LIG    1       31.559 -19.551   9.111  0.00  0.00    +0.040 A 
ATOM     16  C   LIG    1       30.808 -20.647   8.673  0.00  0.00    +0.049 A 
ATOM     17 CL   LIG    1       31.172 -22.186   9.366  0.00  0.00    -0.083 Cl
ATOM     18  C   LIG    1       29.795 -20.487   7.712  0.00  0.00    +0.011 A 
ATOM     19  C   LIG    1       29.547 -19.196   7.213  0.00  0.00    +0.010 A 
ATOM     20  C   LIG    1       30.293 -18.100   7.653  0.00  0.00    +0.020 A 
ENDBRANCH  12  18
ENDBRANCH  11  12
ENDBRANCH   1  11
BRANCH   2  21
ATOM     21  C   LIG    1       25.117 -22.386   7.737  0.00  0.00    +0.182 C 
BRANCH  21  22
ATOM     22  N   LIG    1       24.887 -23.619   7.005  0.00  0.00    -0.331 N 
ATOM     23  C   LIG    1       23.677 -24.171   6.689  0.00  0.00    +0.199 A 
ATOM     24  N   LIG    1       23.824 -25.302   6.037  0.00  0.00    -0.244 NA
ATOM     25  C   LIG    1       25.177 -25.517   5.983  0.00  0.00    +0.130 A 
ATOM     26  C   LIG    1       25.858 -24.491   6.595  0.00  0.00    +0.107 A 
ENDBRANCH  21  22
ENDBRANCH   2  21
TORSDOF 6
ENDMDL
MODEL 5
REMARK VINA RESULT:      -8.4      0.971      1.868
REMARK  Name = *****
REMARK                            x       y       z     vdW  Elec       q    Type
REMARK                         _______ _______ _______ _____ _____    ______ ____
ROOT
ATOM      1  N   LIG    1       25.111 -24.601   5.097  0.00  0.00    -0.087 NA
ATOM      2  C   LIG    1       25.325 -23.542   5.824  0.00  0.00    +0.108 C 
ENDROOT
BRANCH   2   3
ATOM      3  C   LIG    1       24.479 -22.316   5.537  0.00  0.00    +0.020 A 
ATOM      4  C   LIG    1       23.188 -22.068   6.029  0.00  0.00    +0.051 A 
ATOM      5 CL   LIG    1       22.244 -23.220   6.899  0.00  0.00    -0.083 Cl
ATOM      6  C   LIG    1       22.539 -20.854   5.744  0.00  0.00    +0.040 A 
ATOM      7  C   LIG    1       23.149 -19.904   4.931  0.00  0.00    +0.042 A 
ATOM      8 CL   LIG    1       22.325 -18.440   4.559  0.00  0.00    -0.084 Cl
ATOM      9  C   LIG    1       24.407 -20.148   4.398  0.00  0.00    +0.021 A 
ATOM     10  C   LIG    1       25.070 -21.341   4.706  0.00  0.00    +0.013 A 
ENDBRANCH   2   3
BRANCH   1  11
ATOM     11  O   LIG    1       25.990 -25.648   5.429  0.00  0.00    -0.389 OA
BRANCH  11  12
ATOM     12  C   LIG    1       25.710 -26.144   6.742  0.00  0.00    +0.299 C 
BRANCH  12  18
ATOM     13 CL   LIG    1       23.748 -31.826   6.158  0.00  0.00    -0.084 Cl
ATOM     14  C   LIG    1       24.297 -30.207   6.351  0.00  0.00    +0.042 A 
ATOM     15  C   LIG    1       25.053 -29.861   7.467  0.00  0.00    +0.040 A 
ATOM     16  C   LIG    1       25.509 -28.547   7.616  0.00  0.00    +0.049 A 
ATOM     17 CL   LIG    1       26.462 -28.191   9.012  0.00  0.00    -0.083 Cl
ATOM     18  C   LIG    1       25.205 -27.566   6.656  0.00  0.00    +0.011 A 
ATOM     19  C   LIG    1       24.442 -27.943   5.537  0.00  0.00    +0.010 A 
ATOM     20  C   LIG    1       23.990 -29.254   5.385  0.00  0.00    +0.020 A 
ENDBRANCH  12  18
ENDBRANCH  11  12
ENDBRANCH   1  11
BRANCH   2  21
ATOM     21  C   LIG    1       26.457 -23.468   6.853  0.00  0.00    +0.182 C 
BRANCH  21  22
ATOM     22  N   LIG    1       26.472 -22.229   7.611  0.00  0.00    -0.331 N 
ATOM     23  C   LIG    1       25.654 -21.898   8.655  0.00  0.00    +0.199 A 
ATOM     24  N   LIG    1       25.919 -20.693   9.105  0.00  0.00    -0.244 NA
ATOM     25  C   LIG    1       26.903 -20.207   8.284  0.00  0.00    +0.130 A 
ATOM     26  C   LIG    1       27.251 -21.140   7.336  0.00  0.00    +0.107 A 
ENDBRANCH  21  22
ENDBRANCH   2  21
TORSDOF 6
ENDMDL
MODEL 6
REMARK VINA RESULT:      -8.2      3.613      7.599
REMARK  Name = *****
REMARK                            x       y       z     vdW  Elec       q    Type
REMARK                         _______ _______ _______ _____ _____    ______ ____
ROOT
ATOM      1  N   LIG    1       27.237 -22.621   7.180  0.00  0.00    -0.087 NA
ATOM      2  C   LIG    1       25.965 -22.694   6.910  0.00  0.00    +0.108 C 
ENDROOT
BRANCH   2   3
ATOM      3  C   LIG    1       25.392 -24.066   6.613  0.00  0.00    +0.020 A 
ATOM      4  C   LIG    1       24.030 -24.392   6.520  0.00  0.00    +0.051 A 
ATOM      5 CL   LIG    1       22.746 -23.316   6.927  0.00  0.00    -0.083 Cl
ATOM      6  C   LIG    1       23.633 -25.693   6.167  0.00  0.00    +0.040 A 
ATOM      7  C   LIG    1       24.583 -26.686   5.952  0.00  0.00    +0.042 A 
ATOM      8 CL   LIG    1       24.080 -28.284   5.559  0.00  0.00    -0.084 Cl
ATOM      9  C   LIG    1       25.935 -26.396   6.082  0.00  0.00    +0.021 A 
ATOM     10  C   LIG    1       26.336 -25.094   6.401  0.00  0.00    +0.013 A 
ENDBRANCH   2   3
BRANCH   1  11
ATOM     11  O   LIG    1       27.650 -21.292   7.387  0.00  0.00    -0.389 OA
BRANCH  11  12
ATOM     12  C   LIG    1       28.844 -21.014   6.648  0.00  0.00    +0.299 C 
BRANCH  12  18
ATOM     13 CL   LIG    1       32.461 -17.302   9.750  0.00  0.00    -0.084 Cl
ATOM     14  C   LIG    1       31.410 -18.339   8.866  0.00  0.00    +0.042 A 
ATOM     15  C   LIG    1       30.776 -17.869   7.720  0.00  0.00    +0.040 A 
ATOM     16  C   LIG    1       29.932 -18.717   6.996  0.00  0.00    +0.049 A 
ATOM     17 CL   LIG    1       29.196 -18.077   5.571  0.00  0.00    -0.083 Cl
ATOM     18  C   LIG    1       29.707 -20.040   7.416  0.00  0.00    +0.011 A 
ATOM     19  C   LIG    1       30.362 -20.490   8.576  0.00  0.00    +0.010 A 
ATOM     20  C   LIG    1       31.208 -19.646   9.297  0.00  0.00    +0.020 A 
ENDBRANCH  12  18
ENDBRANCH  11  12
ENDBRANCH   1  11
BRANCH   2  21
ATOM     21  C   LIG    1       25.082 -21.449   6.774  0.00  0.00    +0.182 C 
BRANCH  21  22
ATOM     22  N   LIG    1       24.981 -20.956   5.412  0.00  0.00    -0.331 N 
ATOM     23  C   LIG    1       25.803 -20.048   4.806  0.00  0.00    +0.199 A 
ATOM     24  N   LIG    1       25.420 -19.806   3.573  0.00  0.00    -0.244 NA
ATOM     25  C   LIG    1       24.275 -20.540   3.397  0.00  0.00    +0.130 A 
ATOM     26  C   LIG    1       23.973 -21.251   4.535  0.00  0.00    +0.107 A 
ENDBRANCH  21  22
ENDBRANCH   2  21
TORSDOF 6
ENDMDL
MODEL 7
REMARK VINA RESULT:      -7.3      2.406      3.760
REMARK  Name = *****
REMARK                            x       y       z     vdW  Elec       q    Type
REMARK                         _______ _______ _______ _____ _____    ______ ____
ROOT
ATOM      1  N   LIG    1       26.346 -23.922   6.663  0.00  0.00    -0.087 NA
ATOM      2  C   LIG    1       25.996 -22.719   7.021  0.00  0.00    +0.108 C 
ENDROOT
BRANCH   2   3
ATOM      3  C   LIG    1       27.044 -21.628   6.921  0.00  0.00    +0.020 A 
ATOM      4  C   LIG    1       27.061 -20.579   5.989  0.00  0.00    +0.051 A 
ATOM      5 CL   LIG    1       25.981 -20.455   4.650  0.00  0.00    -0.083 Cl
ATOM      6  C   LIG    1       28.056 -19.588   6.051  0.00  0.00    +0.040 A 
ATOM      7  C   LIG    1       29.065 -19.662   7.005  0.00  0.00    +0.042 A 
ATOM      8 CL   LIG    1       30.299 -18.463   7.043  0.00  0.00    -0.084 Cl
ATOM      9  C   LIG    1       29.093 -20.716   7.908  0.00  0.00    +0.021 A 
ATOM     10  C   LIG    1       28.086 -21.686   7.872  0.00  0.00    +0.013 A 
ENDBRANCH   2   3
BRANCH   1  11
ATOM     11  O   LIG    1       25.301 -24.846   6.849  0.00  0.00    -0.389 OA
BRANCH  11  12
ATOM     12  C   LIG    1       25.505 -26.007   6.037  0.00  0.00    +0.299 C 
BRANCH  12  18
ATOM     13 CL   LIG    1       25.778 -30.779   9.730  0.00  0.00    -0.084 Cl
ATOM     14  C   LIG    1       25.705 -29.437   8.655  0.00  0.00    +0.042 A 
ATOM     15  C   LIG    1       24.910 -29.504   7.515  0.00  0.00    +0.040 A 
ATOM     16  C   LIG    1       24.843 -28.408   6.649  0.00  0.00    +0.049 A 
ATOM     17 CL   LIG    1       23.819 -28.551   5.265  0.00  0.00    -0.083 Cl
ATOM     18  C   LIG    1       25.576 -27.238   6.911  0.00  0.00    +0.011 A 
ATOM     19  C   LIG    1       26.370 -27.194   8.071  0.00  0.00    +0.010 A 
ATOM     20  C   LIG    1       26.435 -28.287   8.938  0.00  0.00    +0.020 A 
ENDBRANCH  12  18
ENDBRANCH  11  12
ENDBRANCH   1  11
BRANCH   2  21
ATOM     21  C   LIG    1       24.626 -22.412   7.634  0.00  0.00    +0.182 C 
BRANCH  21  22
ATOM     22  N   LIG    1       23.755 -21.652   6.755  0.00  0.00    -0.331 N 
ATOM     23  C   LIG    1       23.434 -20.328   6.866  0.00  0.00    +0.199 A 
ATOM     24  N   LIG    1       22.604 -19.957   5.917  0.00  0.00    -0.244 NA
ATOM     25  C   LIG    1       22.335 -21.097   5.204  0.00  0.00    +0.130 A 
ATOM     26  C   LIG    1       23.028 -22.168   5.719  0.00  0.00    +0.107 A 
ENDBRANCH  21  22
ENDBRANCH   2  21
TORSDOF 6
ENDMDL
MODEL 8
REMARK VINA RESULT:      -6.9      1.533      1.894
REMARK  Name = *****
REMARK                            x       y       z     vdW  Elec       q    Type
REMARK                         _______ _______ _______ _____ _____    ______ ____
ROOT
ATOM      1  N   LIG    1       25.017 -24.420   5.034  0.00  0.00    -0.087 NA
ATOM      2  C   LIG    1       25.116 -23.434   5.880  0.00  0.00    +0.108 C 
ENDROOT
BRANCH   2   3
ATOM      3  C   LIG    1       24.364 -22.158   5.556  0.00  0.00    +0.020 A 
ATOM      4  C   LIG    1       23.334 -21.588   6.320  0.00  0.00    +0.051 A 
ATOM      5 CL   LIG    1       22.598 -22.352   7.679  0.00  0.00    -0.083 Cl
ATOM      6  C   LIG    1       22.766 -20.358   5.944  0.00  0.00    +0.040 A 
ATOM      7  C   LIG    1       23.184 -19.715   4.783  0.00  0.00    +0.042 A 
ATOM      8 CL   LIG    1       22.452 -18.231   4.314  0.00  0.00    -0.084 Cl
ATOM      9  C   LIG    1       24.170 -20.284   3.989  0.00  0.00    +0.021 A 
ATOM     10  C   LIG    1       24.761 -21.492   4.377  0.00  0.00    +0.013 A 
ENDBRANCH   2   3
BRANCH   1  11
ATOM     11  O   LIG    1       25.798 -25.523   5.425  0.00  0.00    -0.389 OA
BRANCH  11  12
ATOM     12  C   LIG    1       25.213 -26.180   6.554  0.00  0.00    +0.299 C 
BRANCH  12  18
ATOM     13 CL   LIG    1       24.634 -32.107   5.542  0.00  0.00    -0.084 Cl
ATOM     14  C   LIG    1       24.828 -30.421   5.831  0.00  0.00    +0.042 A 
ATOM     15  C   LIG    1       25.737 -29.688   5.073  0.00  0.00    +0.040 A 
ATOM     16  C   LIG    1       25.884 -28.316   5.302  0.00  0.00    +0.049 A 
ATOM     17 CL   LIG    1       27.012 -27.463   4.311  0.00  0.00    -0.083 Cl
ATOM     18  C   LIG    1       25.130 -27.667   6.295  0.00  0.00    +0.011 A 
ATOM     19  C   LIG    1       24.217 -28.430   7.045  0.00  0.00    +0.010 A 
ATOM     20  C   LIG    1       24.067 -29.799   6.815  0.00  0.00    +0.020 A 
ENDBRANCH  12  18
ENDBRANCH  11  12
ENDBRANCH   1  11
BRANCH   2  21
ATOM     21  C   LIG    1       26.041 -23.490   7.100  0.00  0.00    +0.182 C 
BRANCH  21  22
ATOM     22  N   LIG    1       26.494 -22.184   7.544  0.00  0.00    -0.331 N 
ATOM     23  C   LIG    1       25.997 -21.457   8.590  0.00  0.00    +0.199 A 
ATOM     24  N   LIG    1       26.620 -20.306   8.710  0.00  0.00    -0.244 NA
ATOM     25  C   LIG    1       27.510 -20.265   7.668  0.00  0.00    +0.130 A 
ATOM     26  C   LIG    1       27.437 -21.416   6.919  0.00  0.00    +0.107 A 
ENDBRANCH  21  22
ENDBRANCH   2  21
TORSDOF 6
ENDMDL
MODEL 9
REMARK VINA RESULT:      -6.9      4.478      8.049
REMARK  Name = *****
REMARK                            x       y       z     vdW  Elec       q    Type
REMARK                         _______ _______ _______ _____ _____    ______ ____
ROOT
ATOM      1  N   LIG    1       28.720 -19.369   6.144  0.00  0.00    -0.087 NA
ATOM      2  C   LIG    1       29.030 -19.982   7.251  0.00  0.00    +0.108 C 
ENDROOT
BRANCH   2   3
ATOM      3  C   LIG    1       29.982 -19.274   8.196  0.00  0.00    +0.020 A 
ATOM      4  C   LIG    1       31.077 -19.852   8.855  0.00  0.00    +0.051 A 
ATOM      5 CL   LIG    1       31.424 -21.542   8.859  0.00  0.00    -0.083 Cl
ATOM      6  C   LIG    1       31.927 -19.065   9.651  0.00  0.00    +0.040 A 
ATOM      7  C   LIG    1       31.663 -17.711   9.836  0.00  0.00    +0.042 A 
ATOM      8 CL   LIG    1       32.689 -16.769  10.846  0.00  0.00    -0.084 Cl
ATOM      9  C   LIG    1       30.559 -17.128   9.230  0.00  0.00    +0.021 A 
ATOM     10  C   LIG    1       29.730 -17.901   8.409  0.00  0.00    +0.013 A 
ENDBRANCH   2   3
BRANCH   1  11
ATOM     11  O   LIG    1       27.872 -20.150   5.337  0.00  0.00    -0.389 OA
BRANCH  11  12
ATOM     12  C   LIG    1       27.131 -19.322   4.436  0.00  0.00    +0.299 C 
BRANCH  12  18
ATOM     13 CL   LIG    1       21.352 -21.065   4.678  0.00  0.00    -0.084 Cl
ATOM     14  C   LIG    1       22.995 -20.560   4.581  0.00  0.00    +0.042 A 
ATOM     15  C   LIG    1       23.305 -19.303   4.071  0.00  0.00    +0.040 A 
ATOM     16  C   LIG    1       24.639 -18.890   4.005  0.00  0.00    +0.049 A 
ATOM     17 CL   LIG    1       24.951 -17.309   3.383  0.00  0.00    -0.083 Cl
ATOM     18  C   LIG    1       25.676 -19.734   4.440  0.00  0.00    +0.011 A 
ATOM     19  C   LIG    1       25.336 -20.998   4.953  0.00  0.00    +0.010 A 
ATOM     20  C   LIG    1       24.004 -21.409   5.023  0.00  0.00    +0.020 A 
ENDBRANCH  12  18
ENDBRANCH  11  12
ENDBRANCH   1  11
BRANCH   2  21
ATOM     21  C   LIG    1       28.564 -21.407   7.559  0.00  0.00    +0.182 C 
BRANCH  21  22
ATOM     22  N   LIG    1       27.164 -21.491   7.937  0.00  0.00    -0.331 N 
ATOM     23  C   LIG    1       26.403 -20.497   8.485  0.00  0.00    +0.199 A 
ATOM     24  N   LIG    1       25.179 -20.910   8.725  0.00  0.00    -0.244 NA
ATOM     25  C   LIG    1       25.167 -22.235   8.374  0.00  0.00    +0.130 A 
ATOM     26  C   LIG    1       26.397 -22.623   7.896  0.00  0.00    +0.107 A 
ENDBRANCH  21  22
ENDBRANCH   2  21
TORSDOF 6
ENDMDL
