MODEL 1
REMARK VINA RESULT:      10.0      0.000      0.000
REMARK  Name = *****
REMARK                            x       y       z     vdW  Elec       q    Type
REMARK                         _______ _______ _______ _____ _____    ______ ____
ROOT
ATOM      1  N   LIG    1       28.331 -19.040   5.315  0.00  0.00    -0.302 NA
ATOM      2  C   LIG    1       27.486 -19.156   4.123  0.00  0.00    +0.085 C 
ATOM      3  C   LIG    1       26.666 -17.896   3.867  0.00  0.00    +0.022 C 
ATOM      4  C   LIG    1       27.549 -16.642   3.688  0.00  0.00    +0.032 C 
ATOM      5  C   LIG    1       28.670 -16.589   4.766  0.00  0.00    +0.022 C 
ATOM      6  C   LIG    1       29.302 -17.954   5.085  0.00  0.00    +0.085 C 
ENDROOT
BRANCH   1   7
ATOM      7  C   LIG    1       27.595 -18.849   6.584  0.00  0.00    +0.084 C 
BRANCH   7   8
ATOM      8  C   LIG    1       26.075 -19.111   6.519  0.00  0.00    +0.018 C 
BRANCH   8   9
ATOM      9  C   LIG    1       25.758 -20.576   6.873  0.00  0.00    +0.037 C 
BRANCH   9  10
ATOM     10  C   LIG    1       25.092 -21.366   5.726  0.00  0.00    +0.144 C 
BRANCH  10  14
ATOM     11  C   LIG    1       21.645 -19.306   3.958  0.00  0.00    -0.042 A 
ATOM     12  C   LIG    1       21.625 -19.745   5.290  0.00  0.00    +0.004 A 
ATOM     13  C   LIG    1       22.721 -20.409   5.857  0.00  0.00    +0.006 A 
ATOM     14  C   LIG    1       23.878 -20.692   5.113  0.00  0.00    -0.019 A 
ATOM     15  C   LIG    1       23.894 -20.275   3.777  0.00  0.00    +0.006 A 
ATOM     16  C   LIG    1       22.796 -19.607   3.211  0.00  0.00    +0.004 A 
BRANCH  11  18
ATOM     17  C   LIG    1       19.350 -19.608   3.008  0.00  0.00    +0.015 C 
ATOM     18  C   LIG    1       20.440 -18.571   3.338  0.00  0.00    -0.013 C 
ATOM     19  C   LIG    1       19.836 -17.510   4.287  0.00  0.00    +0.015 C 
ATOM     20  C   LIG    1       20.817 -17.820   2.039  0.00  0.00    +0.015 C 
ENDBRANCH  11  18
ENDBRANCH  10  14
BRANCH  10  21
ATOM     21  O   LIG    1       26.059 -21.572   4.695  0.00  0.00    -0.387 OA
ATOM     22  H   LIG    1       26.677 -20.821   4.727  0.00  0.00    +0.210 HD
ENDBRANCH  10  21
ENDBRANCH   9  10
ENDBRANCH   8   9
ENDBRANCH   7   8
ENDBRANCH   1   7
BRANCH   4  23
ATOM     23  C   LIG    1       26.754 -15.270   3.555  0.00  0.00    +0.119 C 
BRANCH  23  24
ATOM     24  C   LIG    1       27.566 -14.081   4.135  0.00  0.00    -0.011 A 
ATOM     25  C   LIG    1       27.451 -13.703   5.489  0.00  0.00    +0.007 A 
ATOM     26  C   LIG    1       28.204 -12.656   6.026  0.00  0.00    +0.000 A 
ATOM     27  C   LIG    1       29.057 -11.923   5.215  0.00  0.00    +0.000 A 
ATOM     28  C   LIG    1       29.166 -12.248   3.866  0.00  0.00    +0.000 A 
ATOM     29  C   LIG    1       28.432 -13.314   3.333  0.00  0.00    +0.007 A 
ENDBRANCH  23  24
BRANCH  23  30
ATOM     30  C   LIG    1       25.288 -15.295   4.061  0.00  0.00    -0.011 A 
ATOM     31  C   LIG    1       24.446 -16.411   3.875  0.00  0.00    +0.007 A 
ATOM     32  C   LIG    1       23.126 -16.416   4.338  0.00  0.00    +0.000 A 
ATOM     33  C   LIG    1       22.597 -15.296   4.968  0.00  0.00    +0.000 A 
ATOM     34  C   LIG    1       23.385 -14.158   5.110  0.00  0.00    +0.000 A 
ATOM     35  C   LIG    1       24.704 -14.154   4.649  0.00  0.00    +0.007 A 
ENDBRANCH  23  30
BRANCH  23  36
ATOM     36  O   LIG    1       26.640 -15.066   2.124  0.00  0.00    -0.379 OA
ATOM     37  H   LIG    1       25.986 -15.699   1.784  0.00  0.00    +0.211 HD
ENDBRANCH  23  36
ENDBRANCH   4  23
TORSDOF 11
ENDMDL
MODEL 2
REMARK VINA RESULT:      12.1      1.765      2.974
REMARK  Name = *****
REMARK                            x       y       z     vdW  Elec       q    Type
REMARK                         _______ _______ _______ _____ _____    ______ ____
ROOT
ATOM      1  N   LIG    1       27.301 -17.872   4.150  0.00  0.00    -0.302 NA
ATOM      2  C   LIG    1       25.939 -17.346   4.287  0.00  0.00    +0.085 C 
ATOM      3  C   LIG    1       25.907 -15.822   4.317  0.00  0.00    +0.022 C 
ATOM      4  C   LIG    1       26.522 -15.191   3.048  0.00  0.00    +0.032 C 
ATOM      5  C   LIG    1       27.855 -15.895   2.665  0.00  0.00    +0.022 C 
ATOM      6  C   LIG    1       27.839 -17.421   2.854  0.00  0.00    +0.085 C 
ENDROOT
BRANCH   1   7
ATOM      7  C   LIG    1       28.214 -17.534   5.264  0.00  0.00    +0.084 C 
BRANCH   7   8
ATOM      8  C   LIG    1       29.206 -18.645   5.672  0.00  0.00    +0.018 C 
BRANCH   8   9
ATOM      9  C   LIG    1       28.791 -19.282   7.011  0.00  0.00    +0.037 C 
BRANCH   9  10
ATOM     10  C   LIG    1       28.133 -20.671   6.865  0.00  0.00    +0.144 C 
BRANCH  10  14
ATOM     11  C   LIG    1       24.117 -20.495   5.105  0.00  0.00    -0.042 A 
ATOM     12  C   LIG    1       24.310 -20.374   6.489  0.00  0.00    +0.004 A 
ATOM     13  C   LIG    1       25.590 -20.436   7.057  0.00  0.00    +0.006 A 
ATOM     14  C   LIG    1       26.735 -20.651   6.272  0.00  0.00    -0.019 A 
ATOM     15  C   LIG    1       26.545 -20.793   4.893  0.00  0.00    +0.006 A 
ATOM     16  C   LIG    1       25.262 -20.728   4.326  0.00  0.00    +0.004 A 
BRANCH  11  18
ATOM     17  C   LIG    1       22.805 -20.824   3.001  0.00  0.00    +0.015 C 
ATOM     18  C   LIG    1       22.708 -20.422   4.484  0.00  0.00    -0.013 C 
ATOM     19  C   LIG    1       21.698 -21.362   5.182  0.00  0.00    +0.015 C 
ATOM     20  C   LIG    1       22.103 -19.000   4.572  0.00  0.00    +0.015 C 
ENDBRANCH  11  18
ENDBRANCH  10  14
BRANCH  10  21
ATOM     21  O   LIG    1       28.962 -21.481   6.031  0.00  0.00    -0.387 OA
ATOM     22  H   LIG    1       29.884 -21.294   6.275  0.00  0.00    +0.210 HD
ENDBRANCH  10  21
ENDBRANCH   9  10
ENDBRANCH   8   9
ENDBRANCH   7   8
ENDBRANCH   1   7
BRANCH   4  23
ATOM     23  C   LIG    1       26.645 -13.605   3.075  0.00  0.00    +0.119 C 
BRANCH  23  24
ATOM     24  C   LIG    1       27.587 -13.125   4.212  0.00  0.00    -0.011 A 
ATOM     25  C   LIG    1       28.621 -12.197   3.968  0.00  0.00    +0.007 A 
ATOM     26  C   LIG    1       29.450 -11.736   4.993  0.00  0.00    +0.000 A 
ATOM     27  C   LIG    1       29.304 -12.225   6.282  0.00  0.00    +0.000 A 
ATOM     28  C   LIG    1       28.316 -13.168   6.548  0.00  0.00    +0.000 A 
ATOM     29  C   LIG    1       27.467 -13.611   5.527  0.00  0.00    +0.007 A 
ENDBRANCH  23  24
BRANCH  23  30
ATOM     30  C   LIG    1       25.302 -12.829   3.043  0.00  0.00    -0.011 A 
ATOM     31  C   LIG    1       24.763 -12.210   4.189  0.00  0.00    +0.007 A 
ATOM     32  C   LIG    1       23.550 -11.514   4.143  0.00  0.00    +0.000 A 
ATOM     33  C   LIG    1       22.822 -11.447   2.961  0.00  0.00    +0.000 A 
ATOM     34  C   LIG    1       23.299 -12.103   1.829  0.00  0.00    +0.000 A 
ATOM     35  C   LIG    1       24.512 -12.795   1.876  0.00  0.00    +0.007 A 
ENDBRANCH  23  30
BRANCH  23  36
ATOM     36  O   LIG    1       27.281 -13.279   1.813  0.00  0.00    -0.379 OA
ATOM     37  H   LIG    1       27.608 -12.366   1.872  0.00  0.00    +0.211 HD
ENDBRANCH  23  36
ENDBRANCH   4  23
TORSDOF 11
ENDMDL
