MODEL 1
REMARK VINA RESULT:      -6.6      0.000      0.000
REMARK  Name = *****
REMARK                            x       y       z     vdW  Elec       q    Type
REMARK                         _______ _______ _______ _____ _____    ______ ____
ROOT
ATOM      1  C   LIG    1       30.075 -18.538   8.492  0.00  0.00    +0.177 C 
ENDROOT
BRANCH   1   2
ATOM      2  O   LIG    1       30.115 -17.679   7.338  0.00  0.00    -0.387 OA
ATOM      3  H   LIG    1       30.415 -18.224   6.582  0.00  0.00    +0.210 HD
ENDBRANCH   1   2
BRANCH   1   4
ATOM      4  C   LIG    1       31.065 -19.708   8.235  0.00  0.00    +0.185 C 
BRANCH   4   5
ATOM      5  O   LIG    1       32.136 -19.773   9.201  0.00  0.00    -0.386 OA
ATOM      6  H   LIG    1       32.726 -20.503   8.914  0.00  0.00    +0.210 HD
ENDBRANCH   4   5
BRANCH   4   7
ATOM      7  C   LIG    1       30.457 -21.115   8.184  0.00  0.00    +0.254 C 
BRANCH   7   9
ATOM      8  O   LIG    1       30.801 -22.153  10.353  0.00  0.00    -0.248 OA
ATOM      9  C   LIG    1       31.134 -22.033   9.193  0.00  0.00    +0.336 C 
BRANCH   9  10
ATOM     10  O   LIG    1       32.175 -22.707   8.638  0.00  0.00    -0.479 OA
ATOM     11  H   LIG    1       32.785 -22.954   9.378  0.00  0.00    +0.295 HD
ENDBRANCH   9  10
ENDBRANCH   7   9
BRANCH   7  12
ATOM     12  O   LIG    1       29.055 -21.051   8.570  0.00  0.00    -0.378 OA
ATOM     13  H   LIG    1       29.047 -21.233   9.537  0.00  0.00    +0.211 HD
ENDBRANCH   7  12
ENDBRANCH   4   7
ENDBRANCH   1   4
BRANCH   1  14
ATOM     14  C   LIG    1       30.310 -17.735   9.798  0.00  0.00    +0.176 C 
BRANCH  14  15
ATOM     15  O   LIG    1       30.663 -18.651  10.846  0.00  0.00    -0.387 OA
ATOM     16  H   LIG    1       30.063 -19.424  10.767  0.00  0.00    +0.210 HD
ENDBRANCH  14  15
BRANCH  14  17
ATOM     17  C   LIG    1       31.370 -16.607   9.599  0.00  0.00    +0.171 C 
BRANCH  17  18
ATOM     18  O   LIG    1       32.377 -17.022   8.658  0.00  0.00    -0.387 OA
ATOM     19  H   LIG    1       33.186 -17.225   9.164  0.00  0.00    +0.210 HD
ENDBRANCH  17  18
BRANCH  17  20
ATOM     20  C   LIG    1       32.064 -16.200  10.906  0.00  0.00    +0.190 C 
BRANCH  20  21
ATOM     21  O   LIG    1       31.096 -15.947  11.923  0.00  0.00    -0.392 OA
ATOM     22  H   LIG    1       31.169 -16.676  12.570  0.00  0.00    +0.209 HD
ENDBRANCH  20  21
ENDBRANCH  17  20
ENDBRANCH  14  17
ENDBRANCH   1  14
TORSDOF 13
ENDMDL
MODEL 2
REMARK VINA RESULT:      -6.4      1.934      4.873
REMARK  Name = *****
REMARK                            x       y       z     vdW  Elec       q    Type
REMARK                         _______ _______ _______ _____ _____    ______ ____
ROOT
ATOM      1  C   LIG    1       30.736 -19.586   7.289  0.00  0.00    +0.177 C 
ENDROOT
BRANCH   1   2
ATOM      2  O   LIG    1       31.922 -19.214   6.563  0.00  0.00    -0.387 OA
ATOM      3  H   LIG    1       31.987 -19.812   5.789  0.00  0.00    +0.210 HD
ENDBRANCH   1   2
BRANCH   1   4
ATOM      4  C   LIG    1       30.939 -19.146   8.766  0.00  0.00    +0.185 C 
BRANCH   4   5
ATOM      5  O   LIG    1       32.191 -19.594   9.328  0.00  0.00    -0.386 OA
ATOM      6  H   LIG    1       32.783 -18.811   9.348  0.00  0.00    +0.210 HD
ENDBRANCH   4   5
BRANCH   4   7
ATOM      7  C   LIG    1       30.867 -17.639   9.042  0.00  0.00    +0.254 C 
BRANCH   7   9
ATOM      8  O   LIG    1       30.328 -16.283  10.983  0.00  0.00    -0.248 OA
ATOM      9  C   LIG    1       30.575 -17.373  10.514  0.00  0.00    +0.336 C 
BRANCH   9  10
ATOM     10  O   LIG    1       30.631 -18.514  11.250  0.00  0.00    -0.479 OA
ATOM     11  H   LIG    1       31.363 -19.064  10.872  0.00  0.00    +0.295 HD
ENDBRANCH   9  10
ENDBRANCH   7   9
BRANCH   7  12
ATOM     12  O   LIG    1       32.163 -17.034   8.770  0.00  0.00    -0.378 OA
ATOM     13  H   LIG    1       32.771 -17.790   8.613  0.00  0.00    +0.211 HD
ENDBRANCH   7  12
ENDBRANCH   4   7
ENDBRANCH   1   4
BRANCH   1  14
ATOM     14  C   LIG    1       29.460 -19.040   6.596  0.00  0.00    +0.176 C 
BRANCH  14  15
ATOM     15  O   LIG    1       29.851 -18.275   5.446  0.00  0.00    -0.387 OA
ATOM     16  H   LIG    1       29.888 -17.335   5.724  0.00  0.00    +0.210 HD
ENDBRANCH  14  15
BRANCH  14  17
ATOM     17  C   LIG    1       28.458 -20.185   6.250  0.00  0.00    +0.171 C 
BRANCH  17  18
ATOM     18  O   LIG    1       27.806 -19.922   4.994  0.00  0.00    -0.387 OA
ATOM     19  H   LIG    1       28.161 -20.554   4.340  0.00  0.00    +0.210 HD
ENDBRANCH  17  18
BRANCH  17  20
ATOM     20  C   LIG    1       27.380 -20.382   7.325  0.00  0.00    +0.190 C 
BRANCH  20  21
ATOM     21  O   LIG    1       27.846 -21.272   8.337  0.00  0.00    -0.392 OA
ATOM     22  H   LIG    1       27.211 -22.014   8.375  0.00  0.00    +0.209 HD
ENDBRANCH  20  21
ENDBRANCH  17  20
ENDBRANCH  14  17
ENDBRANCH   1  14
TORSDOF 13
ENDMDL
MODEL 3
REMARK VINA RESULT:      -6.3      2.217      5.030
REMARK  Name = *****
REMARK                            x       y       z     vdW  Elec       q    Type
REMARK                         _______ _______ _______ _____ _____    ______ ____
ROOT
ATOM      1  C   LIG    1       29.974 -19.421   6.776  0.00  0.00    +0.177 C 
ENDROOT
BRANCH   1   2
ATOM      2  O   LIG    1       29.387 -18.588   5.759  0.00  0.00    -0.387 OA
ATOM      3  H   LIG    1       29.923 -17.769   5.711  0.00  0.00    +0.210 HD
ENDBRANCH   1   2
BRANCH   1   4
ATOM      4  C   LIG    1       30.399 -18.492   7.948  0.00  0.00    +0.185 C 
BRANCH   4   5
ATOM      5  O   LIG    1       29.600 -18.670   9.137  0.00  0.00    -0.386 OA
ATOM      6  H   LIG    1       29.791 -17.902   9.718  0.00  0.00    +0.210 HD
ENDBRANCH   4   5
BRANCH   4   7
ATOM      7  C   LIG    1       31.860 -18.598   8.402  0.00  0.00    +0.254 C 
BRANCH   7   9
ATOM      8  O   LIG    1       32.211 -17.624  10.599  0.00  0.00    -0.248 OA
ATOM      9  C   LIG    1       32.199 -17.492   9.394  0.00  0.00    +0.336 C 
BRANCH   9  10
ATOM     10  O   LIG    1       32.482 -16.322   8.764  0.00  0.00    -0.479 OA
ATOM     11  H   LIG    1       32.682 -15.657   9.470  0.00  0.00    +0.295 HD
ENDBRANCH   9  10
ENDBRANCH   7   9
BRANCH   7  12
ATOM     12  O   LIG    1       32.059 -19.853   9.110  0.00  0.00    -0.378 OA
ATOM     13  H   LIG    1       31.734 -20.548   8.495  0.00  0.00    +0.211 HD
ENDBRANCH   7  12
ENDBRANCH   4   7
ENDBRANCH   1   4
BRANCH   1  14
ATOM     14  C   LIG    1       29.030 -20.591   7.156  0.00  0.00    +0.176 C 
BRANCH  14  15
ATOM     15  O   LIG    1       29.552 -21.243   8.324  0.00  0.00    -0.387 OA
ATOM     16  H   LIG    1       28.946 -21.986   8.535  0.00  0.00    +0.210 HD
ENDBRANCH  14  15
BRANCH  14  17
ATOM     17  C   LIG    1       27.557 -20.109   7.339  0.00  0.00    +0.171 C 
BRANCH  17  18
ATOM     18  O   LIG    1       27.066 -20.473   8.642  0.00  0.00    -0.387 OA
ATOM     19  H   LIG    1       27.837 -20.698   9.196  0.00  0.00    +0.210 HD
ENDBRANCH  17  18
BRANCH  17  20
ATOM     20  C   LIG    1       26.604 -20.682   6.282  0.00  0.00    +0.190 C 
BRANCH  20  21
ATOM     21  O   LIG    1       26.992 -20.250   4.979  0.00  0.00    -0.392 OA
ATOM     22  H   LIG    1       27.471 -19.406   5.093  0.00  0.00    +0.209 HD
ENDBRANCH  20  21
ENDBRANCH  17  20
ENDBRANCH  14  17
ENDBRANCH   1  14
TORSDOF 13
ENDMDL
MODEL 4
REMARK VINA RESULT:      -6.3      1.741      2.557
REMARK  Name = *****
REMARK                            x       y       z     vdW  Elec       q    Type
REMARK                         _______ _______ _______ _____ _____    ______ ____
ROOT
ATOM      1  C   LIG    1       31.648 -18.454   8.697  0.00  0.00    +0.177 C 
ENDROOT
BRANCH   1   2
ATOM      2  O   LIG    1       32.163 -19.651   9.308  0.00  0.00    -0.387 OA
ATOM      3  H   LIG    1       32.929 -19.943   8.771  0.00  0.00    +0.210 HD
ENDBRANCH   1   2
BRANCH   1   4
ATOM      4  C   LIG    1       30.836 -18.884   7.444  0.00  0.00    +0.185 C 
BRANCH   4   5
ATOM      5  O   LIG    1       31.535 -19.830   6.607  0.00  0.00    -0.386 OA
ATOM      6  H   LIG    1       30.846 -20.340   6.127  0.00  0.00    +0.210 HD
ENDBRANCH   4   5
BRANCH   4   7
ATOM      7  C   LIG    1       29.454 -19.495   7.706  0.00  0.00    +0.254 C 
BRANCH   7   9
ATOM      8  O   LIG    1       28.410 -19.544   5.514  0.00  0.00    -0.248 OA
ATOM      9  C   LIG    1       28.902 -20.146   6.444  0.00  0.00    +0.336 C 
BRANCH   9  10
ATOM     10  O   LIG    1       29.021 -21.499   6.485  0.00  0.00    -0.479 OA
ATOM     11  H   LIG    1       28.185 -21.872   6.108  0.00  0.00    +0.295 HD
ENDBRANCH   9  10
ENDBRANCH   7   9
BRANCH   7  12
ATOM     12  O   LIG    1       29.572 -20.558   8.693  0.00  0.00    -0.378 OA
ATOM     13  H   LIG    1       28.749 -20.504   9.228  0.00  0.00    +0.211 HD
ENDBRANCH   7  12
ENDBRANCH   4   7
ENDBRANCH   1   4
BRANCH   1  14
ATOM     14  C   LIG    1       30.880 -17.585   9.728  0.00  0.00    +0.176 C 
BRANCH  14  15
ATOM     15  O   LIG    1       30.668 -18.359  10.917  0.00  0.00    -0.387 OA
ATOM     16  H   LIG    1       30.138 -19.145  10.660  0.00  0.00    +0.210 HD
ENDBRANCH  14  15
BRANCH  14  17
ATOM     17  C   LIG    1       31.615 -16.236  10.006  0.00  0.00    +0.171 C 
BRANCH  17  18
ATOM     18  O   LIG    1       32.603 -15.982   8.992  0.00  0.00    -0.387 OA
ATOM     19  H   LIG    1       33.355 -15.531   9.420  0.00  0.00    +0.210 HD
ENDBRANCH  17  18
BRANCH  17  20
ATOM     20  C   LIG    1       32.305 -16.204  11.377  0.00  0.00    +0.190 C 
BRANCH  20  21
ATOM     21  O   LIG    1       31.380 -15.808  12.388  0.00  0.00    -0.392 OA
ATOM     22  H   LIG    1       31.908 -15.437  13.123  0.00  0.00    +0.209 HD
ENDBRANCH  20  21
ENDBRANCH  17  20
ENDBRANCH  14  17
ENDBRANCH   1  14
TORSDOF 13
ENDMDL
MODEL 5
REMARK VINA RESULT:      -6.3      1.876      4.958
REMARK  Name = *****
REMARK                            x       y       z     vdW  Elec       q    Type
REMARK                         _______ _______ _______ _____ _____    ______ ____
ROOT
ATOM      1  C   LIG    1       30.453 -19.687   7.438  0.00  0.00    +0.177 C 
ENDROOT
BRANCH   1   2
ATOM      2  O   LIG    1       30.117 -18.535   6.643  0.00  0.00    -0.387 OA
ATOM      3  H   LIG    1       30.676 -18.565   5.839  0.00  0.00    +0.210 HD
ENDBRANCH   1   2
BRANCH   1   4
ATOM      4  C   LIG    1       30.881 -19.175   8.841  0.00  0.00    +0.185 C 
BRANCH   4   5
ATOM      5  O   LIG    1       32.219 -19.571   9.211  0.00  0.00    -0.386 OA
ATOM      6  H   LIG    1       32.136 -20.090  10.041  0.00  0.00    +0.210 HD
ENDBRANCH   4   5
BRANCH   4   7
ATOM      7  C   LIG    1       30.815 -17.658   9.060  0.00  0.00    +0.254 C 
BRANCH   7   9
ATOM      8  O   LIG    1       30.349 -16.232  10.970  0.00  0.00    -0.248 OA
ATOM      9  C   LIG    1       30.605 -17.334  10.534  0.00  0.00    +0.336 C 
BRANCH   9  10
ATOM     10  O   LIG    1       30.749 -18.436  11.316  0.00  0.00    -0.479 OA
ATOM     11  H   LIG    1       30.442 -18.186  12.223  0.00  0.00    +0.295 HD
ENDBRANCH   9  10
ENDBRANCH   7   9
BRANCH   7  12
ATOM     12  O   LIG    1       32.088 -17.058   8.690  0.00  0.00    -0.378 OA
ATOM     13  H   LIG    1       32.042 -16.941   7.714  0.00  0.00    +0.211 HD
ENDBRANCH   7  12
ENDBRANCH   4   7
ENDBRANCH   1   4
BRANCH   1  14
ATOM     14  C   LIG    1       29.305 -20.730   7.426  0.00  0.00    +0.176 C 
BRANCH  14  15
ATOM     15  O   LIG    1       29.478 -21.618   8.541  0.00  0.00    -0.387 OA
ATOM     16  H   LIG    1       29.277 -22.525   8.221  0.00  0.00    +0.210 HD
ENDBRANCH  14  15
BRANCH  14  17
ATOM     17  C   LIG    1       27.903 -20.045   7.410  0.00  0.00    +0.171 C 
BRANCH  17  18
ATOM     18  O   LIG    1       27.135 -20.442   8.560  0.00  0.00    -0.387 OA
ATOM     19  H   LIG    1       27.137 -21.417   8.594  0.00  0.00    +0.210 HD
ENDBRANCH  17  18
BRANCH  17  20
ATOM     20  C   LIG    1       27.093 -20.371   6.148  0.00  0.00    +0.190 C 
BRANCH  20  21
ATOM     21  O   LIG    1       27.821 -19.994   4.980  0.00  0.00    -0.392 OA
ATOM     22  H   LIG    1       28.584 -20.602   4.915  0.00  0.00    +0.209 HD
ENDBRANCH  20  21
ENDBRANCH  17  20
ENDBRANCH  14  17
ENDBRANCH   1  14
TORSDOF 13
ENDMDL
MODEL 6
REMARK VINA RESULT:      -6.2      1.708      2.706
REMARK  Name = *****
REMARK                            x       y       z     vdW  Elec       q    Type
REMARK                         _______ _______ _______ _____ _____    ______ ____
ROOT
ATOM      1  C   LIG    1       29.976 -19.189   8.050  0.00  0.00    +0.177 C 
ENDROOT
BRANCH   1   2
ATOM      2  O   LIG    1       30.389 -18.530   6.839  0.00  0.00    -0.387 OA
ATOM      3  H   LIG    1       30.550 -19.228   6.170  0.00  0.00    +0.210 HD
ENDBRANCH   1   2
BRANCH   1   4
ATOM      4  C   LIG    1       29.892 -20.711   7.746  0.00  0.00    +0.185 C 
BRANCH   4   5
ATOM      5  O   LIG    1       29.925 -21.534   8.931  0.00  0.00    -0.386 OA
ATOM      6  H   LIG    1       29.715 -22.448   8.641  0.00  0.00    +0.210 HD
ENDBRANCH   4   5
BRANCH   4   7
ATOM      7  C   LIG    1       28.673 -21.177   6.942  0.00  0.00    +0.254 C 
BRANCH   7   9
ATOM      8  O   LIG    1       27.176 -21.468   8.832  0.00  0.00    -0.248 OA
ATOM      9  C   LIG    1       27.391 -20.982   7.742  0.00  0.00    +0.336 C 
BRANCH   9  10
ATOM     10  O   LIG    1       26.502 -20.195   7.081  0.00  0.00    -0.479 OA
ATOM     11  H   LIG    1       26.957 -19.872   6.263  0.00  0.00    +0.295 HD
ENDBRANCH   9  10
ENDBRANCH   7   9
BRANCH   7  12
ATOM     12  O   LIG    1       28.535 -20.355   5.748  0.00  0.00    -0.378 OA
ATOM     13  H   LIG    1       29.433 -20.328   5.351  0.00  0.00    +0.211 HD
ENDBRANCH   7  12
ENDBRANCH   4   7
ENDBRANCH   1   4
BRANCH   1  14
ATOM     14  C   LIG    1       30.885 -18.792   9.243  0.00  0.00    +0.176 C 
BRANCH  14  15
ATOM     15  O   LIG    1       32.062 -19.613   9.217  0.00  0.00    -0.387 OA
ATOM     16  H   LIG    1       31.827 -20.441   8.744  0.00  0.00    +0.210 HD
ENDBRANCH  14  15
BRANCH  14  17
ATOM     17  C   LIG    1       31.211 -17.267   9.237  0.00  0.00    +0.171 C 
BRANCH  17  18
ATOM     18  O   LIG    1       32.366 -17.000   8.421  0.00  0.00    -0.387 OA
ATOM     19  H   LIG    1       32.950 -16.402   8.924  0.00  0.00    +0.210 HD
ENDBRANCH  17  18
BRANCH  17  20
ATOM     20  C   LIG    1       31.468 -16.705  10.642  0.00  0.00    +0.190 C 
BRANCH  20  21
ATOM     21  O   LIG    1       30.234 -16.370  11.275  0.00  0.00    -0.392 OA
ATOM     22  H   LIG    1       29.999 -15.470  10.976  0.00  0.00    +0.209 HD
ENDBRANCH  20  21
ENDBRANCH  17  20
ENDBRANCH  14  17
ENDBRANCH   1  14
TORSDOF 13
ENDMDL
MODEL 7
REMARK VINA RESULT:      -6.2      3.036      4.478
REMARK  Name = *****
REMARK                            x       y       z     vdW  Elec       q    Type
REMARK                         _______ _______ _______ _____ _____    ______ ____
ROOT
ATOM      1  C   LIG    1       29.024 -20.272   6.557  0.00  0.00    +0.177 C 
ENDROOT
BRANCH   1   2
ATOM      2  O   LIG    1       29.285 -21.573   7.116  0.00  0.00    -0.387 OA
ATOM      3  H   LIG    1       30.257 -21.667   7.187  0.00  0.00    +0.210 HD
ENDBRANCH   1   2
BRANCH   1   4
ATOM      4  C   LIG    1       27.497 -20.183   6.281  0.00  0.00    +0.185 C 
BRANCH   4   5
ATOM      5  O   LIG    1       27.174 -20.106   4.876  0.00  0.00    -0.386 OA
ATOM      6  H   LIG    1       28.013 -19.903   4.408  0.00  0.00    +0.210 HD
ENDBRANCH   4   5
BRANCH   4   7
ATOM      7  C   LIG    1       26.636 -21.318   6.850  0.00  0.00    +0.254 C 
BRANCH   7   9
ATOM      8  O   LIG    1       24.538 -20.697   7.903  0.00  0.00    -0.248 OA
ATOM      9  C   LIG    1       25.743 -20.807   7.974  0.00  0.00    +0.336 C 
BRANCH   9  10
ATOM     10  O   LIG    1       26.464 -20.477   9.077  0.00  0.00    -0.479 OA
ATOM     11  H   LIG    1       26.627 -19.501   9.032  0.00  0.00    +0.295 HD
ENDBRANCH   9  10
ENDBRANCH   7   9
BRANCH   7  12
ATOM     12  O   LIG    1       25.742 -21.815   5.815  0.00  0.00    -0.378 OA
ATOM     13  H   LIG    1       26.239 -22.540   5.374  0.00  0.00    +0.211 HD
ENDBRANCH   7  12
ENDBRANCH   4   7
ENDBRANCH   1   4
BRANCH   1  14
ATOM     14  C   LIG    1       29.610 -19.149   7.452  0.00  0.00    +0.176 C 
BRANCH  14  15
ATOM     15  O   LIG    1       29.088 -19.298   8.780  0.00  0.00    -0.387 OA
ATOM     16  H   LIG    1       29.653 -19.956   9.240  0.00  0.00    +0.210 HD
ENDBRANCH  14  15
BRANCH  14  17
ATOM     17  C   LIG    1       31.170 -19.135   7.412  0.00  0.00    +0.171 C 
BRANCH  17  18
ATOM     18  O   LIG    1       31.692 -20.458   7.632  0.00  0.00    -0.387 OA
ATOM     19  H   LIG    1       32.450 -20.379   8.241  0.00  0.00    +0.210 HD
ENDBRANCH  17  18
BRANCH  17  20
ATOM     20  C   LIG    1       31.786 -18.191   8.454  0.00  0.00    +0.190 C 
BRANCH  20  21
ATOM     21  O   LIG    1       31.974 -18.874   9.692  0.00  0.00    -0.392 OA
ATOM     22  H   LIG    1       32.647 -18.372  10.192  0.00  0.00    +0.209 HD
ENDBRANCH  20  21
ENDBRANCH  17  20
ENDBRANCH  14  17
ENDBRANCH   1  14
TORSDOF 13
ENDMDL
MODEL 8
REMARK VINA RESULT:      -6.1      2.731      5.248
REMARK  Name = *****
REMARK                            x       y       z     vdW  Elec       q    Type
REMARK                         _______ _______ _______ _____ _____    ______ ____
ROOT
ATOM      1  C   LIG    1       28.772 -19.928   7.469  0.00  0.00    +0.177 C 
ENDROOT
BRANCH   1   2
ATOM      2  O   LIG    1       28.933 -21.093   8.300  0.00  0.00    -0.387 OA
ATOM      3  H   LIG    1       28.217 -21.072   8.969  0.00  0.00    +0.210 HD
ENDBRANCH   1   2
BRANCH   1   4
ATOM      4  C   LIG    1       30.122 -19.690   6.737  0.00  0.00    +0.185 C 
BRANCH   4   5
ATOM      5  O   LIG    1       30.149 -18.467   5.970  0.00  0.00    -0.386 OA
ATOM      6  H   LIG    1       30.713 -18.642   5.186  0.00  0.00    +0.210 HD
ENDBRANCH   4   5
BRANCH   4   7
ATOM      7  C   LIG    1       31.377 -19.662   7.619  0.00  0.00    +0.254 C 
BRANCH   7   9
ATOM      8  O   LIG    1       30.858 -19.132   9.932  0.00  0.00    -0.248 OA
ATOM      9  C   LIG    1       31.170 -18.752   8.824  0.00  0.00    +0.336 C 
BRANCH   9  10
ATOM     10  O   LIG    1       31.372 -17.446   8.506  0.00  0.00    -0.479 OA
ATOM     11  H   LIG    1       31.094 -16.913   9.293  0.00  0.00    +0.295 HD
ENDBRANCH   9  10
ENDBRANCH   7   9
BRANCH   7  12
ATOM     12  O   LIG    1       31.624 -20.993   8.154  0.00  0.00    -0.378 OA
ATOM     13  H   LIG    1       32.598 -21.043   8.274  0.00  0.00    +0.211 HD
ENDBRANCH   7  12
ENDBRANCH   4   7
ENDBRANCH   1   4
BRANCH   1  14
ATOM     14  C   LIG    1       27.527 -20.061   6.553  0.00  0.00    +0.176 C 
BRANCH  14  15
ATOM     15  O   LIG    1       27.969 -20.229   5.197  0.00  0.00    -0.387 OA
ATOM     16  H   LIG    1       28.387 -19.384   4.923  0.00  0.00    +0.210 HD
ENDBRANCH  14  15
BRANCH  14  17
ATOM     17  C   LIG    1       26.581 -21.208   7.027  0.00  0.00    +0.171 C 
BRANCH  17  18
ATOM     18  O   LIG    1       25.957 -21.847   5.898  0.00  0.00    -0.387 OA
ATOM     19  H   LIG    1       25.512 -22.651   6.224  0.00  0.00    +0.210 HD
ENDBRANCH  17  18
BRANCH  17  20
ATOM     20  C   LIG    1       25.481 -20.721   7.980  0.00  0.00    +0.190 C 
BRANCH  20  21
ATOM     21  O   LIG    1       25.951 -20.731   9.326  0.00  0.00    -0.392 OA
ATOM     22  H   LIG    1       25.166 -20.841   9.899  0.00  0.00    +0.209 HD
ENDBRANCH  20  21
ENDBRANCH  17  20
ENDBRANCH  14  17
ENDBRANCH   1  14
TORSDOF 13
ENDMDL
MODEL 9
REMARK VINA RESULT:      -6.0      2.423      5.415
REMARK  Name = *****
REMARK                            x       y       z     vdW  Elec       q    Type
REMARK                         _______ _______ _______ _____ _____    ______ ____
ROOT
ATOM      1  C   LIG    1       29.335 -20.171   7.775  0.00  0.00    +0.177 C 
ENDROOT
BRANCH   1   2
ATOM      2  O   LIG    1       29.738 -21.553   7.769  0.00  0.00    -0.387 OA
ATOM      3  H   LIG    1       29.033 -22.061   8.223  0.00  0.00    +0.210 HD
ENDBRANCH   1   2
BRANCH   1   4
ATOM      4  C   LIG    1       30.579 -19.323   7.385  0.00  0.00    +0.185 C 
BRANCH   4   5
ATOM      5  O   LIG    1       30.252 -18.157   6.599  0.00  0.00    -0.386 OA
ATOM      6  H   LIG    1       30.445 -18.389   5.664  0.00  0.00    +0.210 HD
ENDBRANCH   4   5
BRANCH   4   7
ATOM      7  C   LIG    1       31.449 -18.821   8.544  0.00  0.00    +0.254 C 
BRANCH   7   9
ATOM      8  O   LIG    1       30.003 -17.043   9.348  0.00  0.00    -0.248 OA
ATOM      9  C   LIG    1       30.605 -18.072   9.568  0.00  0.00    +0.336 C 
BRANCH   9  10
ATOM     10  O   LIG    1       30.610 -18.696  10.775  0.00  0.00    -0.479 OA
ATOM     11  H   LIG    1       29.720 -19.116  10.884  0.00  0.00    +0.295 HD
ENDBRANCH   9  10
ENDBRANCH   7   9
BRANCH   7  12
ATOM     12  O   LIG    1       32.025 -19.958   9.246  0.00  0.00    -0.378 OA
ATOM     13  H   LIG    1       32.678 -20.342   8.620  0.00  0.00    +0.211 HD
ENDBRANCH   7  12
ENDBRANCH   4   7
ENDBRANCH   1   4
BRANCH   1  14
ATOM     14  C   LIG    1       28.073 -19.950   6.900  0.00  0.00    +0.176 C 
BRANCH  14  15
ATOM     15  O   LIG    1       28.354 -20.395   5.565  0.00  0.00    -0.387 OA
ATOM     16  H   LIG    1       28.835 -19.668   5.114  0.00  0.00    +0.210 HD
ENDBRANCH  14  15
BRANCH  14  17
ATOM     17  C   LIG    1       26.817 -20.641   7.516  0.00  0.00    +0.171 C 
BRANCH  17  18
ATOM     18  O   LIG    1       27.086 -21.069   8.864  0.00  0.00    -0.387 OA
ATOM     19  H   LIG    1       26.463 -20.602   9.451  0.00  0.00    +0.210 HD
ENDBRANCH  17  18
BRANCH  17  20
ATOM     20  C   LIG    1       26.345 -21.857   6.706  0.00  0.00    +0.190 C 
BRANCH  20  21
ATOM     21  O   LIG    1       25.739 -21.434   5.486  0.00  0.00    -0.392 OA
ATOM     22  H   LIG    1       25.289 -22.216   5.109  0.00  0.00    +0.209 HD
ENDBRANCH  20  21
ENDBRANCH  17  20
ENDBRANCH  14  17
ENDBRANCH   1  14
TORSDOF 13
ENDMDL
