MODEL 1
REMARK VINA RESULT:      -6.4      0.000      0.000
REMARK  Name = *****
REMARK                            x       y       z     vdW  Elec       q    Type
REMARK                         _______ _______ _______ _____ _____    ______ ____
ROOT
ATOM      1  C   LIG    1       22.233 -20.838   4.994  0.00  0.00    +0.150 C 
ATOM      2  N   LIG    1       23.654 -20.596   4.987  0.00  0.00    -0.328 N 
ATOM      3  C   LIG    1       24.492 -20.650   6.061  0.00  0.00    +0.151 A 
ATOM      4  C   LIG    1       24.264 -20.936   7.433  0.00  0.00    +0.280 C 
ATOM      5  N   LIG    1       25.420 -20.876   8.179  0.00  0.00    -0.273 N 
ATOM      6  H   LIG    1       25.335 -21.068   9.163  0.00  0.00    +0.173 HD
ATOM      7  C   LIG    1       26.695 -20.580   7.729  0.00  0.00    +0.331 C 
ATOM      8  N   LIG    1       26.844 -20.310   6.371  0.00  0.00    -0.280 N 
ATOM      9  C   LIG    1       28.145 -19.992   5.818  0.00  0.00    +0.155 C 
ATOM     10  O   LIG    1       27.622 -20.570   8.539  0.00  0.00    -0.246 OA
ATOM     11  O   LIG    1       23.175 -21.206   7.925  0.00  0.00    -0.265 OA
ATOM     12  C   LIG    1       25.727 -20.352   5.563  0.00  0.00    +0.168 A 
ATOM     13  N   LIG    1       25.689 -20.116   4.222  0.00  0.00    -0.218 NA
ATOM     14  C   LIG    1       24.418 -20.271   3.898  0.00  0.00    +0.202 A 
ENDROOT
TORSDOF 0
ENDMDL
MODEL 2
REMARK VINA RESULT:      -6.3      1.813      2.831
REMARK  Name = *****
REMARK                            x       y       z     vdW  Elec       q    Type
REMARK                         _______ _______ _______ _____ _____    ______ ____
ROOT
ATOM      1  C   LIG    1       22.208 -21.023   5.033  0.00  0.00    +0.150 C 
ATOM      2  N   LIG    1       23.333 -20.943   5.929  0.00  0.00    -0.328 N 
ATOM      3  C   LIG    1       24.612 -20.608   5.600  0.00  0.00    +0.151 A 
ATOM      4  C   LIG    1       25.216 -20.257   4.363  0.00  0.00    +0.280 C 
ATOM      5  N   LIG    1       26.560 -19.991   4.494  0.00  0.00    -0.273 N 
ATOM      6  H   LIG    1       27.056 -19.734   3.657  0.00  0.00    +0.173 HD
ATOM      7  C   LIG    1       27.316 -20.036   5.653  0.00  0.00    +0.331 C 
ATOM      8  N   LIG    1       26.658 -20.389   6.828  0.00  0.00    -0.280 N 
ATOM      9  C   LIG    1       27.375 -20.459   8.086  0.00  0.00    +0.155 C 
ATOM     10  O   LIG    1       28.516 -19.767   5.589  0.00  0.00    -0.246 OA
ATOM     11  O   LIG    1       24.632 -20.191   3.288  0.00  0.00    -0.265 OA
ATOM     12  C   LIG    1       25.309 -20.668   6.772  0.00  0.00    +0.168 A 
ATOM     13  N   LIG    1       24.512 -21.027   7.816  0.00  0.00    -0.218 NA
ATOM     14  C   LIG    1       23.318 -21.188   7.277  0.00  0.00    +0.202 A 
ENDROOT
TORSDOF 0
ENDMDL
MODEL 3
REMARK VINA RESULT:      -6.0      2.280      3.400
REMARK  Name = *****
REMARK                            x       y       z     vdW  Elec       q    Type
REMARK                         _______ _______ _______ _____ _____    ______ ____
ROOT
ATOM      1  C   LIG    1       23.980 -21.952   6.933  0.00  0.00    +0.150 C 
ATOM      2  N   LIG    1       25.277 -21.500   7.368  0.00  0.00    -0.328 N 
ATOM      3  C   LIG    1       26.184 -20.803   6.628  0.00  0.00    +0.151 A 
ATOM      4  C   LIG    1       26.158 -20.329   5.290  0.00  0.00    +0.280 C 
ATOM      5  N   LIG    1       27.313 -19.661   4.950  0.00  0.00    -0.273 N 
ATOM      6  H   LIG    1       27.366 -19.295   4.014  0.00  0.00    +0.173 HD
ATOM      7  C   LIG    1       28.418 -19.432   5.751  0.00  0.00    +0.331 C 
ATOM      8  N   LIG    1       28.374 -19.926   7.052  0.00  0.00    -0.280 N 
ATOM      9  C   LIG    1       29.488 -19.729   7.957  0.00  0.00    +0.155 C 
ATOM     10  O   LIG    1       29.373 -18.812   5.282  0.00  0.00    -0.246 OA
ATOM     11  O   LIG    1       25.230 -20.483   4.506  0.00  0.00    -0.265 OA
ATOM     12  C   LIG    1       27.247 -20.605   7.462  0.00  0.00    +0.168 A 
ATOM     13  N   LIG    1       27.034 -21.153   8.691  0.00  0.00    -0.218 NA
ATOM     14  C   LIG    1       25.830 -21.690   8.607  0.00  0.00    +0.202 A 
ENDROOT
TORSDOF 0
ENDMDL
MODEL 4
REMARK VINA RESULT:      -6.0      1.268      3.698
REMARK  Name = *****
REMARK                            x       y       z     vdW  Elec       q    Type
REMARK                         _______ _______ _______ _____ _____    ______ ____
ROOT
ATOM      1  C   LIG    1       28.767 -19.850   8.203  0.00  0.00    +0.150 C 
ATOM      2  N   LIG    1       27.865 -20.025   7.093  0.00  0.00    -0.328 N 
ATOM      3  C   LIG    1       26.550 -20.378   7.162  0.00  0.00    +0.151 A 
ATOM      4  C   LIG    1       25.700 -20.669   8.261  0.00  0.00    +0.280 C 
ATOM      5  N   LIG    1       24.420 -20.985   7.862  0.00  0.00    -0.273 N 
ATOM      6  H   LIG    1       23.759 -21.203   8.589  0.00  0.00    +0.173 HD
ATOM      7  C   LIG    1       23.933 -21.038   6.567  0.00  0.00    +0.331 C 
ATOM      8  N   LIG    1       24.824 -20.741   5.540  0.00  0.00    -0.280 N 
ATOM      9  C   LIG    1       24.395 -20.772   4.156  0.00  0.00    +0.155 C 
ATOM     10  O   LIG    1       22.753 -21.341   6.390  0.00  0.00    -0.246 OA
ATOM     11  O   LIG    1       26.038 -20.650   9.438  0.00  0.00    -0.265 OA
ATOM     12  C   LIG    1       26.123 -20.414   5.866  0.00  0.00    +0.168 A 
ATOM     13  N   LIG    1       27.122 -20.098   4.995  0.00  0.00    -0.218 NA
ATOM     14  C   LIG    1       28.168 -19.866   5.766  0.00  0.00    +0.202 A 
ENDROOT
TORSDOF 0
ENDMDL
MODEL 5
REMARK VINA RESULT:      -6.0      2.964      5.663
REMARK  Name = *****
REMARK                            x       y       z     vdW  Elec       q    Type
REMARK                         _______ _______ _______ _____ _____    ______ ____
ROOT
ATOM      1  C   LIG    1       31.707 -19.022   7.573  0.00  0.00    +0.150 C 
ATOM      2  N   LIG    1       30.572 -19.904   7.668  0.00  0.00    -0.328 N 
ATOM      3  C   LIG    1       29.448 -19.869   6.897  0.00  0.00    +0.151 A 
ATOM      4  C   LIG    1       29.052 -19.020   5.831  0.00  0.00    +0.280 C 
ATOM      5  N   LIG    1       27.813 -19.351   5.331  0.00  0.00    -0.273 N 
ATOM      6  H   LIG    1       27.465 -18.791   4.571  0.00  0.00    +0.173 HD
ATOM      7  C   LIG    1       26.981 -20.372   5.758  0.00  0.00    +0.331 C 
ATOM      8  N   LIG    1       27.434 -21.164   6.809  0.00  0.00    -0.280 N 
ATOM      9  C   LIG    1       26.626 -22.256   7.315  0.00  0.00    +0.155 C 
ATOM     10  O   LIG    1       25.897 -20.528   5.195  0.00  0.00    -0.246 OA
ATOM     11  O   LIG    1       29.716 -18.091   5.385  0.00  0.00    -0.265 OA
ATOM     12  C   LIG    1       28.669 -20.890   7.358  0.00  0.00    +0.168 A 
ATOM     13  N   LIG    1       29.265 -21.558   8.384  0.00  0.00    -0.218 NA
ATOM     14  C   LIG    1       30.419 -20.939   8.553  0.00  0.00    +0.202 A 
ENDROOT
TORSDOF 0
ENDMDL
MODEL 6
REMARK VINA RESULT:      -5.9      3.323      4.759
REMARK  Name = *****
REMARK                            x       y       z     vdW  Elec       q    Type
REMARK                         _______ _______ _______ _____ _____    ______ ____
ROOT
ATOM      1  C   LIG    1       27.070 -20.129   5.230  0.00  0.00    +0.150 C 
ATOM      2  N   LIG    1       28.276 -19.556   5.771  0.00  0.00    -0.328 N 
ATOM      3  C   LIG    1       29.069 -20.095   6.739  0.00  0.00    +0.151 A 
ATOM      4  C   LIG    1       28.978 -21.303   7.480  0.00  0.00    +0.280 C 
ATOM      5  N   LIG    1       30.016 -21.449   8.372  0.00  0.00    -0.273 N 
ATOM      6  H   LIG    1       30.019 -22.284   8.934  0.00  0.00    +0.173 HD
ATOM      7  C   LIG    1       31.065 -20.572   8.590  0.00  0.00    +0.331 C 
ATOM      8  N   LIG    1       31.090 -19.407   7.828  0.00  0.00    -0.280 N 
ATOM      9  C   LIG    1       32.153 -18.437   7.992  0.00  0.00    +0.155 C 
ATOM     10  O   LIG    1       31.914 -20.861   9.434  0.00  0.00    -0.246 OA
ATOM     11  O   LIG    1       28.089 -22.138   7.360  0.00  0.00    -0.265 OA
ATOM     12  C   LIG    1       30.081 -19.196   6.912  0.00  0.00    +0.168 A 
ATOM     13  N   LIG    1       29.947 -18.119   6.089  0.00  0.00    -0.218 NA
ATOM     14  C   LIG    1       28.843 -18.363   5.407  0.00  0.00    +0.202 A 
ENDROOT
TORSDOF 0
ENDMDL
MODEL 7
REMARK VINA RESULT:      -5.9      3.070      4.679
REMARK  Name = *****
REMARK                            x       y       z     vdW  Elec       q    Type
REMARK                         _______ _______ _______ _____ _____    ______ ____
ROOT
ATOM      1  C   LIG    1       26.042 -20.307   5.580  0.00  0.00    +0.150 C 
ATOM      2  N   LIG    1       27.095 -20.666   6.496  0.00  0.00    -0.328 N 
ATOM      3  C   LIG    1       28.336 -20.108   6.566  0.00  0.00    +0.151 A 
ATOM      4  C   LIG    1       28.957 -19.071   5.821  0.00  0.00    +0.280 C 
ATOM      5  N   LIG    1       30.245 -18.826   6.239  0.00  0.00    -0.273 N 
ATOM      6  H   LIG    1       30.749 -18.102   5.755  0.00  0.00    +0.173 HD
ATOM      7  C   LIG    1       30.934 -19.465   7.255  0.00  0.00    +0.331 C 
ATOM      8  N   LIG    1       30.263 -20.472   7.943  0.00  0.00    -0.280 N 
ATOM      9  C   LIG    1       30.911 -21.191   9.022  0.00  0.00    +0.155 C 
ATOM     10  O   LIG    1       32.090 -19.118   7.498  0.00  0.00    -0.246 OA
ATOM     11  O   LIG    1       28.431 -18.450   4.905  0.00  0.00    -0.265 OA
ATOM     12  C   LIG    1       28.967 -20.771   7.578  0.00  0.00    +0.168 A 
ATOM     13  N   LIG    1       28.167 -21.719   8.139  0.00  0.00    -0.218 NA
ATOM     14  C   LIG    1       27.035 -21.635   7.463  0.00  0.00    +0.202 A 
ENDROOT
TORSDOF 0
ENDMDL
MODEL 8
REMARK VINA RESULT:      -5.9      1.925      4.542
REMARK  Name = *****
REMARK                            x       y       z     vdW  Elec       q    Type
REMARK                         _______ _______ _______ _____ _____    ______ ____
ROOT
ATOM      1  C   LIG    1       28.267 -20.080   8.305  0.00  0.00    +0.150 C 
ATOM      2  N   LIG    1       26.919 -20.392   7.905  0.00  0.00    -0.328 N 
ATOM      3  C   LIG    1       26.424 -20.375   6.635  0.00  0.00    +0.151 A 
ATOM      4  C   LIG    1       27.021 -20.068   5.385  0.00  0.00    +0.280 C 
ATOM      5  N   LIG    1       26.134 -20.183   4.338  0.00  0.00    -0.273 N 
ATOM      6  H   LIG    1       26.488 -19.980   3.419  0.00  0.00    +0.173 HD
ATOM      7  C   LIG    1       24.800 -20.547   4.405  0.00  0.00    +0.331 C 
ATOM      8  N   LIG    1       24.281 -20.833   5.664  0.00  0.00    -0.280 N 
ATOM      9  C   LIG    1       22.894 -21.223   5.823  0.00  0.00    +0.155 C 
ATOM     10  O   LIG    1       24.147 -20.598   3.363  0.00  0.00    -0.246 OA
ATOM     11  O   LIG    1       28.190 -19.736   5.225  0.00  0.00    -0.265 OA
ATOM     12  C   LIG    1       25.114 -20.740   6.759  0.00  0.00    +0.168 A 
ATOM     13  N   LIG    1       24.777 -20.982   8.056  0.00  0.00    -0.218 NA
ATOM     14  C   LIG    1       25.891 -20.764   8.731  0.00  0.00    +0.202 A 
ENDROOT
TORSDOF 0
ENDMDL
MODEL 9
REMARK VINA RESULT:      -5.7      2.251      4.795
REMARK  Name = *****
REMARK                            x       y       z     vdW  Elec       q    Type
REMARK                         _______ _______ _______ _____ _____    ______ ____
ROOT
ATOM      1  C   LIG    1       31.317 -19.199   7.472  0.00  0.00    +0.150 C 
ATOM      2  N   LIG    1       30.077 -19.262   6.740  0.00  0.00    -0.328 N 
ATOM      3  C   LIG    1       29.052 -20.134   6.952  0.00  0.00    +0.151 A 
ATOM      4  C   LIG    1       28.877 -21.188   7.887  0.00  0.00    +0.280 C 
ATOM      5  N   LIG    1       27.663 -21.821   7.740  0.00  0.00    -0.273 N 
ATOM      6  H   LIG    1       27.468 -22.581   8.371  0.00  0.00    +0.173 HD
ATOM      7  C   LIG    1       26.671 -21.533   6.819  0.00  0.00    +0.331 C 
ATOM      8  N   LIG    1       26.912 -20.487   5.932  0.00  0.00    -0.280 N 
ATOM      9  C   LIG    1       25.925 -20.118   4.937  0.00  0.00    +0.155 C 
ATOM     10  O   LIG    1       25.640 -22.205   6.827  0.00  0.00    -0.246 OA
ATOM     11  O   LIG    1       29.695 -21.519   8.737  0.00  0.00    -0.265 OA
ATOM     12  C   LIG    1       28.108 -19.806   6.022  0.00  0.00    +0.168 A 
ATOM     13  N   LIG    1       28.507 -18.764   5.242  0.00  0.00    -0.218 NA
ATOM     14  C   LIG    1       29.706 -18.453   5.699  0.00  0.00    +0.202 A 
ENDROOT
TORSDOF 0
ENDMDL
