MODEL 1
REMARK VINA RESULT:      -9.5      0.000      0.000
REMARK  Name = *****
REMARK                            x       y       z     vdW  Elec       q    Type
REMARK                         _______ _______ _______ _____ _____    ______ ____
ROOT
ATOM      1  C   LIG    1       26.652 -20.626   5.277  0.00  0.00    +0.185 C 
ATOM      2  C   LIG    1       26.428 -21.774   6.286  0.00  0.00    +0.063 C 
ATOM      3  C   LIG    1       26.540 -21.244   7.702  0.00  0.00    -0.044 C 
ATOM      4  C   LIG    1       25.464 -21.462   8.637  0.00  0.00    -0.000 C 
ATOM      5  C   LIG    1       24.255 -21.876   8.230  0.00  0.00    -0.023 C 
ATOM      6  C   LIG    1       23.950 -22.136   6.773  0.00  0.00    +0.012 C 
ATOM      7  C   LIG    1       22.703 -23.004   6.593  0.00  0.00    +0.012 C 
ATOM      8  C   LIG    1       27.644 -20.546   8.014  0.00  0.00    -0.020 C 
ATOM      9  C   LIG    1       28.659 -20.243   6.939  0.00  0.00    +0.012 C 
ATOM     10  C   LIG    1       29.599 -19.118   7.367  0.00  0.00    +0.012 C 
ATOM     11  C   LIG    1       25.199 -22.687   6.022  0.00  0.00    +0.007 C 
ATOM     12  C   LIG    1       27.994 -19.900   5.576  0.00  0.00    +0.052 C 
ENDROOT
BRANCH   1  13
ATOM     13  O   LIG    1       25.546 -19.699   5.304  0.00  0.00    -0.461 OA
BRANCH  13  14
ATOM     14  C   LIG    1       25.182 -19.159   4.103  0.00  0.00    +0.310 C 
ATOM     15  O   LIG    1       25.880 -18.421   3.431  0.00  0.00    -0.251 OA
BRANCH  14  16
ATOM     16  C   LIG    1       23.814 -19.660   3.646  0.00  0.00    +0.094 C 
ATOM     17  C   LIG    1       23.935 -21.133   3.258  0.00  0.00    +0.019 C 
BRANCH  16  19
ATOM     18  C   LIG    1       22.106 -18.061   4.670  0.00  0.00    +0.004 C 
ATOM     19  C   LIG    1       22.698 -19.465   4.680  0.00  0.00    +0.011 C 
ENDBRANCH  16  19
ENDBRANCH  14  16
ENDBRANCH  13  14
ENDBRANCH   1  13
BRANCH  11  20
ATOM     20  C   LIG    1       25.506 -24.180   6.393  0.00  0.00    +0.008 C 
BRANCH  20  21
ATOM     21  C   LIG    1       25.246 -25.194   5.255  0.00  0.00    +0.045 C 
BRANCH  21  22
ATOM     22  C   LIG    1       25.808 -26.600   5.527  0.00  0.00    +0.179 C 
ATOM     23  O   LIG    1       26.100 -26.682   6.938  0.00  0.00    -0.461 OA
ATOM     24  C   LIG    1       25.924 -27.783   7.699  0.00  0.00    +0.310 C 
ATOM     25  O   LIG    1       26.359 -27.832   8.843  0.00  0.00    -0.251 OA
ATOM     26  C   LIG    1       25.207 -28.932   7.070  0.00  0.00    +0.152 C 
ATOM     27  C   LIG    1       24.157 -28.413   6.116  0.00  0.00    +0.129 C 
ATOM     28  C   LIG    1       24.854 -27.674   4.994  0.00  0.00    +0.076 C 
BRANCH  27  29
ATOM     29  O   LIG    1       23.423 -29.511   5.581  0.00  0.00    -0.391 OA
ATOM     30  H   LIG    1       22.528 -29.490   5.961  0.00  0.00    +0.210 HD
ENDBRANCH  27  29
ENDBRANCH  21  22
ENDBRANCH  20  21
ENDBRANCH  11  20
TORSDOF 8
ENDMDL
MODEL 2
REMARK VINA RESULT:      -9.3      1.110      1.718
REMARK  Name = *****
REMARK                            x       y       z     vdW  Elec       q    Type
REMARK                         _______ _______ _______ _____ _____    ______ ____
ROOT
ATOM      1  C   LIG    1       26.738 -20.382   5.225  0.00  0.00    +0.185 C 
ATOM      2  C   LIG    1       26.562 -21.353   6.415  0.00  0.00    +0.063 C 
ATOM      3  C   LIG    1       26.807 -20.619   7.718  0.00  0.00    -0.044 C 
ATOM      4  C   LIG    1       25.805 -20.645   8.755  0.00  0.00    -0.000 C 
ATOM      5  C   LIG    1       24.555 -21.063   8.511  0.00  0.00    -0.023 C 
ATOM      6  C   LIG    1       24.123 -21.529   7.140  0.00  0.00    +0.012 C 
ATOM      7  C   LIG    1       22.838 -22.358   7.193  0.00  0.00    +0.012 C 
ATOM      8  C   LIG    1       27.954 -19.930   7.833  0.00  0.00    -0.020 C 
ATOM      9  C   LIG    1       28.886 -19.839   6.650  0.00  0.00    +0.012 C 
ATOM     10  C   LIG    1       29.893 -18.704   6.825  0.00  0.00    +0.012 C 
ATOM     11  C   LIG    1       25.288 -22.241   6.391  0.00  0.00    +0.007 C 
ATOM     12  C   LIG    1       28.122 -19.679   5.304  0.00  0.00    +0.052 C 
ENDROOT
BRANCH   1  13
ATOM     13  O   LIG    1       25.668 -19.414   5.193  0.00  0.00    -0.461 OA
BRANCH  13  14
ATOM     14  C   LIG    1       25.235 -19.035   3.955  0.00  0.00    +0.310 C 
ATOM     15  O   LIG    1       25.876 -18.358   3.170  0.00  0.00    -0.251 OA
BRANCH  14  16
ATOM     16  C   LIG    1       23.871 -19.635   3.620  0.00  0.00    +0.094 C 
ATOM     17  C   LIG    1       24.040 -21.134   3.379  0.00  0.00    +0.019 C 
BRANCH  16  19
ATOM     18  C   LIG    1       22.130 -18.014   4.551  0.00  0.00    +0.004 C 
ATOM     19  C   LIG    1       22.796 -19.377   4.684  0.00  0.00    +0.011 C 
ENDBRANCH  16  19
ENDBRANCH  14  16
ENDBRANCH  13  14
ENDBRANCH   1  13
BRANCH  11  20
ATOM     20  C   LIG    1       25.577 -23.672   6.964  0.00  0.00    +0.008 C 
BRANCH  20  21
ATOM     21  C   LIG    1       24.591 -24.766   6.494  0.00  0.00    +0.045 C 
BRANCH  21  22
ATOM     22  C   LIG    1       25.093 -26.203   6.723  0.00  0.00    +0.179 C 
ATOM     23  O   LIG    1       24.066 -27.100   6.248  0.00  0.00    -0.461 OA
ATOM     24  C   LIG    1       24.297 -28.273   5.621  0.00  0.00    +0.310 C 
ATOM     25  O   LIG    1       23.384 -29.061   5.407  0.00  0.00    -0.251 OA
ATOM     26  C   LIG    1       25.709 -28.566   5.234  0.00  0.00    +0.152 C 
ATOM     27  C   LIG    1       26.410 -27.280   4.862  0.00  0.00    +0.129 C 
ATOM     28  C   LIG    1       26.475 -26.399   6.090  0.00  0.00    +0.076 C 
BRANCH  27  29
ATOM     29  O   LIG    1       27.731 -27.576   4.417  0.00  0.00    -0.391 OA
ATOM     30  H   LIG    1       27.664 -28.144   3.629  0.00  0.00    +0.210 HD
ENDBRANCH  27  29
ENDBRANCH  21  22
ENDBRANCH  20  21
ENDBRANCH  11  20
TORSDOF 8
ENDMDL
MODEL 3
REMARK VINA RESULT:      -8.1      2.687      7.387
REMARK  Name = *****
REMARK                            x       y       z     vdW  Elec       q    Type
REMARK                         _______ _______ _______ _____ _____    ______ ____
ROOT
ATOM      1  C   LIG    1       25.184 -22.053   5.069  0.00  0.00    +0.185 C 
ATOM      2  C   LIG    1       25.673 -20.904   5.979  0.00  0.00    +0.063 C 
ATOM      3  C   LIG    1       24.597 -20.550   6.985  0.00  0.00    -0.044 C 
ATOM      4  C   LIG    1       24.906 -20.548   8.394  0.00  0.00    -0.000 C 
ATOM      5  C   LIG    1       26.028 -21.108   8.867  0.00  0.00    -0.023 C 
ATOM      6  C   LIG    1       27.032 -21.774   7.954  0.00  0.00    +0.012 C 
ATOM      7  C   LIG    1       28.399 -21.934   8.623  0.00  0.00    +0.012 C 
ATOM      8  C   LIG    1       23.369 -20.288   6.510  0.00  0.00    -0.020 C 
ATOM      9  C   LIG    1       23.095 -20.448   5.034  0.00  0.00    +0.012 C 
ATOM     10  C   LIG    1       21.595 -20.519   4.755  0.00  0.00    +0.012 C 
ATOM     11  C   LIG    1       27.101 -21.061   6.571  0.00  0.00    +0.007 C 
ATOM     12  C   LIG    1       23.815 -21.687   4.429  0.00  0.00    +0.052 C 
ENDROOT
BRANCH   1  13
ATOM     13  O   LIG    1       25.094 -23.288   5.811  0.00  0.00    -0.461 OA
BRANCH  13  14
ATOM     14  C   LIG    1       25.069 -24.435   5.070  0.00  0.00    +0.310 C 
ATOM     15  O   LIG    1       24.854 -24.486   3.871  0.00  0.00    -0.251 OA
BRANCH  14  16
ATOM     16  C   LIG    1       25.433 -25.661   5.905  0.00  0.00    +0.094 C 
ATOM     17  C   LIG    1       25.820 -25.199   7.310  0.00  0.00    +0.019 C 
BRANCH  16  19
ATOM     18  C   LIG    1       24.784 -28.098   5.506  0.00  0.00    +0.004 C 
ATOM     19  C   LIG    1       24.327 -26.722   5.973  0.00  0.00    +0.011 C 
ENDBRANCH  16  19
ENDBRANCH  14  16
ENDBRANCH  13  14
ENDBRANCH   1  13
BRANCH  11  20
ATOM     20  C   LIG    1       27.843 -19.681   6.649  0.00  0.00    +0.008 C 
BRANCH  20  21
ATOM     21  C   LIG    1       29.183 -19.626   5.879  0.00  0.00    +0.045 C 
BRANCH  21  22
ATOM     22  C   LIG    1       30.320 -18.931   6.649  0.00  0.00    +0.179 C 
ATOM     23  O   LIG    1       29.711 -18.040   7.607  0.00  0.00    -0.461 OA
ATOM     24  C   LIG    1       30.183 -17.804   8.850  0.00  0.00    +0.310 C 
ATOM     25  O   LIG    1       29.717 -16.905   9.539  0.00  0.00    -0.251 OA
ATOM     26  C   LIG    1       31.308 -18.667   9.320  0.00  0.00    +0.152 C 
ATOM     27  C   LIG    1       31.156 -20.056   8.746  0.00  0.00    +0.129 C 
ATOM     28  C   LIG    1       31.282 -19.967   7.240  0.00  0.00    +0.076 C 
BRANCH  27  29
ATOM     29  O   LIG    1       32.185 -20.894   9.262  0.00  0.00    -0.391 OA
ATOM     30  H   LIG    1       33.006 -20.373   9.305  0.00  0.00    +0.210 HD
ENDBRANCH  27  29
ENDBRANCH  21  22
ENDBRANCH  20  21
ENDBRANCH  11  20
TORSDOF 8
ENDMDL
MODEL 4
REMARK VINA RESULT:      -7.3      4.818      9.251
REMARK  Name = *****
REMARK                            x       y       z     vdW  Elec       q    Type
REMARK                         _______ _______ _______ _____ _____    ______ ____
ROOT
ATOM      1  C   LIG    1       24.204 -30.244   7.168  0.00  0.00    +0.185 C 
ATOM      2  C   LIG    1       24.600 -30.747   8.575  0.00  0.00    +0.063 C 
ATOM      3  C   LIG    1       25.727 -31.754   8.463  0.00  0.00    -0.044 C 
ATOM      4  C   LIG    1       26.943 -31.556   9.212  0.00  0.00    -0.000 C 
ATOM      5  C   LIG    1       27.225 -30.380   9.792  0.00  0.00    -0.023 C 
ATOM      6  C   LIG    1       26.290 -29.198   9.693  0.00  0.00    +0.012 C 
ATOM      7  C   LIG    1       26.579 -28.146  10.767  0.00  0.00    +0.012 C 
ATOM      8  C   LIG    1       25.551 -32.786   7.621  0.00  0.00    -0.020 C 
ATOM      9  C   LIG    1       24.307 -32.845   6.769  0.00  0.00    +0.012 C 
ATOM     10  C   LIG    1       24.476 -33.825   5.610  0.00  0.00    +0.012 C 
ATOM     11  C   LIG    1       24.801 -29.654   9.661  0.00  0.00    +0.007 C 
ATOM     12  C   LIG    1       23.887 -31.446   6.236  0.00  0.00    +0.052 C 
ENDROOT
BRANCH   1  13
ATOM     13  O   LIG    1       25.248 -29.417   6.610  0.00  0.00    -0.461 OA
BRANCH  13  14
ATOM     14  C   LIG    1       24.840 -28.413   5.778  0.00  0.00    +0.310 C 
ATOM     15  O   LIG    1       24.498 -28.565   4.618  0.00  0.00    -0.251 OA
BRANCH  14  16
ATOM     16  C   LIG    1       24.779 -27.068   6.498  0.00  0.00    +0.094 C 
ATOM     17  C   LIG    1       26.195 -26.663   6.904  0.00  0.00    +0.019 C 
BRANCH  16  19
ATOM     18  C   LIG    1       23.967 -24.646   6.454  0.00  0.00    +0.004 C 
ATOM     19  C   LIG    1       24.113 -25.952   5.682  0.00  0.00    +0.011 C 
ENDBRANCH  16  19
ENDBRANCH  14  16
ENDBRANCH  13  14
ENDBRANCH   1  13
BRANCH  11  20
ATOM     20  C   LIG    1       24.298 -30.144  11.064  0.00  0.00    +0.008 C 
BRANCH  20  21
ATOM     21  C   LIG    1       22.813 -29.829  11.361  0.00  0.00    +0.045 C 
BRANCH  21  22
ATOM     22  C   LIG    1       22.579 -29.125  12.710  0.00  0.00    +0.179 C 
ATOM     23  O   LIG    1       23.495 -28.012  12.779  0.00  0.00    -0.461 OA
ATOM     24  C   LIG    1       23.212 -26.814  13.334  0.00  0.00    +0.310 C 
ATOM     25  O   LIG    1       24.092 -25.981  13.515  0.00  0.00    -0.251 OA
ATOM     26  C   LIG    1       21.793 -26.574  13.735  0.00  0.00    +0.152 C 
ATOM     27  C   LIG    1       20.867 -27.274  12.768  0.00  0.00    +0.129 C 
ATOM     28  C   LIG    1       21.100 -28.766  12.880  0.00  0.00    +0.076 C 
BRANCH  27  29
ATOM     29  O   LIG    1       19.517 -26.975  13.109  0.00  0.00    -0.391 OA
ATOM     30  H   LIG    1       19.107 -26.525  12.350  0.00  0.00    +0.210 HD
ENDBRANCH  27  29
ENDBRANCH  21  22
ENDBRANCH  20  21
ENDBRANCH  11  20
TORSDOF 8
ENDMDL
MODEL 5
REMARK VINA RESULT:      -6.7      2.855      6.989
REMARK  Name = *****
REMARK                            x       y       z     vdW  Elec       q    Type
REMARK                         _______ _______ _______ _____ _____    ______ ____
ROOT
ATOM      1  C   LIG    1       24.307 -21.626   4.391  0.00  0.00    +0.185 C 
ATOM      2  C   LIG    1       24.854 -20.733   5.527  0.00  0.00    +0.063 C 
ATOM      3  C   LIG    1       23.704 -20.152   6.325  0.00  0.00    -0.044 C 
ATOM      4  C   LIG    1       23.658 -20.335   7.755  0.00  0.00    -0.000 C 
ATOM      5  C   LIG    1       24.446 -21.227   8.372  0.00  0.00    -0.023 C 
ATOM      6  C   LIG    1       25.423 -22.091   7.610  0.00  0.00    +0.012 C 
ATOM      7  C   LIG    1       26.499 -22.685   8.522  0.00  0.00    +0.012 C 
ATOM      8  C   LIG    1       22.739 -19.515   5.643  0.00  0.00    -0.020 C 
ATOM      9  C   LIG    1       22.790 -19.488   4.134  0.00  0.00    +0.012 C 
ATOM     10  C   LIG    1       21.437 -19.103   3.541  0.00  0.00    +0.012 C 
ATOM     11  C   LIG    1       26.006 -21.336   6.378  0.00  0.00    +0.007 C 
ATOM     12  C   LIG    1       23.278 -20.838   3.534  0.00  0.00    +0.052 C 
ENDROOT
BRANCH   1  13
ATOM     13  O   LIG    1       23.718 -22.830   4.928  0.00  0.00    -0.461 OA
BRANCH  13  14
ATOM     14  C   LIG    1       24.474 -23.964   4.833  0.00  0.00    +0.310 C 
ATOM     15  O   LIG    1       25.193 -24.246   3.891  0.00  0.00    -0.251 OA
BRANCH  14  16
ATOM     16  C   LIG    1       24.384 -24.816   6.098  0.00  0.00    +0.094 C 
ATOM     17  C   LIG    1       23.097 -24.456   6.841  0.00  0.00    +0.019 C 
BRANCH  16  19
ATOM     18  C   LIG    1       25.523 -27.030   6.668  0.00  0.00    +0.004 C 
ATOM     19  C   LIG    1       24.454 -26.327   5.841  0.00  0.00    +0.011 C 
ENDBRANCH  16  19
ENDBRANCH  14  16
ENDBRANCH  13  14
ENDBRANCH   1  13
BRANCH  11  20
ATOM     20  C   LIG    1       27.047 -20.238   6.791  0.00  0.00    +0.008 C 
BRANCH  20  21
ATOM     21  C   LIG    1       28.506 -20.740   6.892  0.00  0.00    +0.045 C 
BRANCH  21  22
ATOM     22  C   LIG    1       29.227 -20.317   8.185  0.00  0.00    +0.179 C 
ATOM     23  O   LIG    1       30.176 -21.355   8.509  0.00  0.00    -0.461 OA
ATOM     24  C   LIG    1       31.399 -21.143   9.040  0.00  0.00    +0.310 C 
ATOM     25  O   LIG    1       32.075 -22.078   9.453  0.00  0.00    -0.251 OA
ATOM     26  C   LIG    1       31.863 -19.726   9.124  0.00  0.00    +0.152 C 
ATOM     27  C   LIG    1       31.331 -18.948   7.943  0.00  0.00    +0.129 C 
ATOM     28  C   LIG    1       29.821 -18.913   8.036  0.00  0.00    +0.076 C 
BRANCH  27  29
ATOM     29  O   LIG    1       31.843 -17.620   7.985  0.00  0.00    -0.391 OA
ATOM     30  H   LIG    1       32.558 -17.592   8.646  0.00  0.00    +0.210 HD
ENDBRANCH  27  29
ENDBRANCH  21  22
ENDBRANCH  20  21
ENDBRANCH  11  20
TORSDOF 8
ENDMDL
MODEL 6
REMARK VINA RESULT:      -6.6      5.927      8.936
REMARK  Name = *****
REMARK                            x       y       z     vdW  Elec       q    Type
REMARK                         _______ _______ _______ _____ _____    ______ ____
ROOT
ATOM      1  C   LIG    1       25.259 -26.744  12.937  0.00  0.00    +0.185 C 
ATOM      2  C   LIG    1       26.405 -27.678  12.488  0.00  0.00    +0.063 C 
ATOM      3  C   LIG    1       27.376 -27.889  13.633  0.00  0.00    -0.044 C 
ATOM      4  C   LIG    1       27.704 -29.227  14.058  0.00  0.00    -0.000 C 
ATOM      5  C   LIG    1       26.980 -30.285  13.664  0.00  0.00    -0.023 C 
ATOM      6  C   LIG    1       25.781 -30.137  12.756  0.00  0.00    +0.012 C 
ATOM      7  C   LIG    1       25.397 -31.462  12.092  0.00  0.00    +0.012 C 
ATOM      8  C   LIG    1       27.865 -26.794  14.237  0.00  0.00    -0.020 C 
ATOM      9  C   LIG    1       27.364 -25.432  13.822  0.00  0.00    +0.012 C 
ATOM     10  C   LIG    1       27.703 -24.375  14.872  0.00  0.00    +0.012 C 
ATOM     11  C   LIG    1       25.980 -28.973  11.741  0.00  0.00    +0.007 C 
ATOM     12  C   LIG    1       25.837 -25.427  13.526  0.00  0.00    +0.052 C 
ENDROOT
BRANCH   1  13
ATOM     13  O   LIG    1       24.405 -27.407  13.894  0.00  0.00    -0.461 OA
BRANCH  13  14
ATOM     14  C   LIG    1       23.161 -26.870  14.066  0.00  0.00    +0.310 C 
ATOM     15  O   LIG    1       22.840 -26.135  14.983  0.00  0.00    -0.251 OA
BRANCH  14  16
ATOM     16  C   LIG    1       22.223 -27.228  12.915  0.00  0.00    +0.094 C 
ATOM     17  C   LIG    1       22.323 -28.730  12.650  0.00  0.00    +0.019 C 
BRANCH  16  19
ATOM     18  C   LIG    1       19.957 -27.861  13.908  0.00  0.00    +0.004 C 
ATOM     19  C   LIG    1       20.763 -26.817  13.146  0.00  0.00    +0.011 C 
ENDBRANCH  16  19
ENDBRANCH  14  16
ENDBRANCH  13  14
ENDBRANCH   1  13
BRANCH  11  20
ATOM     20  C   LIG    1       26.999 -29.339  10.606  0.00  0.00    +0.008 C 
BRANCH  20  21
ATOM     21  C   LIG    1       26.350 -29.799   9.281  0.00  0.00    +0.045 C 
BRANCH  21  22
ATOM     22  C   LIG    1       25.350 -28.789   8.689  0.00  0.00    +0.179 C 
ATOM     23  O   LIG    1       26.114 -27.799   7.968  0.00  0.00    -0.461 OA
ATOM     24  C   LIG    1       25.727 -27.217   6.813  0.00  0.00    +0.310 C 
ATOM     25  O   LIG    1       26.340 -26.260   6.355  0.00  0.00    -0.251 OA
ATOM     26  C   LIG    1       24.512 -27.778   6.148  0.00  0.00    +0.152 C 
ATOM     27  C   LIG    1       24.448 -29.269   6.383  0.00  0.00    +0.129 C 
ATOM     28  C   LIG    1       24.277 -29.512   7.867  0.00  0.00    +0.076 C 
BRANCH  27  29
ATOM     29  O   LIG    1       23.333 -29.808   5.679  0.00  0.00    -0.391 OA
ATOM     30  H   LIG    1       23.278 -30.758   5.883  0.00  0.00    +0.210 HD
ENDBRANCH  27  29
ENDBRANCH  21  22
ENDBRANCH  20  21
ENDBRANCH  11  20
TORSDOF 8
ENDMDL
MODEL 7
REMARK VINA RESULT:      -6.6      4.892      9.397
REMARK  Name = *****
REMARK                            x       y       z     vdW  Elec       q    Type
REMARK                         _______ _______ _______ _____ _____    ______ ____
ROOT
ATOM      1  C   LIG    1       24.275 -30.273   7.088  0.00  0.00    +0.185 C 
ATOM      2  C   LIG    1       24.638 -30.792   8.497  0.00  0.00    +0.063 C 
ATOM      3  C   LIG    1       25.784 -31.780   8.402  0.00  0.00    -0.044 C 
ATOM      4  C   LIG    1       26.975 -31.574   9.189  0.00  0.00    -0.000 C 
ATOM      5  C   LIG    1       27.222 -30.404   9.794  0.00  0.00    -0.023 C 
ATOM      6  C   LIG    1       26.271 -29.235   9.687  0.00  0.00    +0.012 C 
ATOM      7  C   LIG    1       26.512 -28.195  10.784  0.00  0.00    +0.012 C 
ATOM      8  C   LIG    1       25.649 -32.801   7.541  0.00  0.00    -0.020 C 
ATOM      9  C   LIG    1       24.430 -32.866   6.653  0.00  0.00    +0.012 C 
ATOM     10  C   LIG    1       24.648 -33.825   5.484  0.00  0.00    +0.012 C 
ATOM     11  C   LIG    1       24.791 -29.714   9.605  0.00  0.00    +0.007 C 
ATOM     12  C   LIG    1       24.003 -31.465   6.128  0.00  0.00    +0.052 C 
ENDROOT
BRANCH   1  13
ATOM     13  O   LIG    1       25.320 -29.422   6.572  0.00  0.00    -0.461 OA
BRANCH  13  14
ATOM     14  C   LIG    1       24.917 -28.389   5.775  0.00  0.00    +0.310 C 
ATOM     15  O   LIG    1       24.616 -28.493   4.598  0.00  0.00    -0.251 OA
BRANCH  14  16
ATOM     16  C   LIG    1       24.800 -27.081   6.554  0.00  0.00    +0.094 C 
ATOM     17  C   LIG    1       26.194 -26.659   7.016  0.00  0.00    +0.019 C 
BRANCH  16  19
ATOM     18  C   LIG    1       25.117 -24.989   5.122  0.00  0.00    +0.004 C 
ATOM     19  C   LIG    1       24.125 -25.945   5.773  0.00  0.00    +0.011 C 
ENDBRANCH  16  19
ENDBRANCH  14  16
ENDBRANCH  13  14
ENDBRANCH   1  13
BRANCH  11  20
ATOM     20  C   LIG    1       24.256 -30.233  10.986  0.00  0.00    +0.008 C 
BRANCH  20  21
ATOM     21  C   LIG    1       23.225 -31.381  10.886  0.00  0.00    +0.045 C 
BRANCH  21  22
ATOM     22  C   LIG    1       21.837 -30.936  10.391  0.00  0.00    +0.179 C 
ATOM     23  O   LIG    1       21.115 -32.125  10.007  0.00  0.00    -0.461 OA
ATOM     24  C   LIG    1       19.792 -32.318  10.194  0.00  0.00    +0.310 C 
ATOM     25  O   LIG    1       19.217 -33.272   9.684  0.00  0.00    -0.251 OA
ATOM     26  C   LIG    1       19.071 -31.303  11.020  0.00  0.00    +0.152 C 
ATOM     27  C   LIG    1       19.990 -30.785  12.102  0.00  0.00    +0.129 C 
ATOM     28  C   LIG    1       21.144 -30.062  11.442  0.00  0.00    +0.076 C 
BRANCH  27  29
ATOM     29  O   LIG    1       19.273 -29.879  12.934  0.00  0.00    -0.391 OA
ATOM     30  H   LIG    1       19.759 -29.036  12.953  0.00  0.00    +0.210 HD
ENDBRANCH  27  29
ENDBRANCH  21  22
ENDBRANCH  20  21
ENDBRANCH  11  20
TORSDOF 8
ENDMDL
MODEL 8
REMARK VINA RESULT:      -6.5      1.843      2.522
REMARK  Name = *****
REMARK                            x       y       z     vdW  Elec       q    Type
REMARK                         _______ _______ _______ _____ _____    ______ ____
ROOT
ATOM      1  C   LIG    1       27.172 -20.494   5.344  0.00  0.00    +0.185 C 
ATOM      2  C   LIG    1       26.099 -21.354   6.047  0.00  0.00    +0.063 C 
ATOM      3  C   LIG    1       26.013 -20.975   7.512  0.00  0.00    -0.044 C 
ATOM      4  C   LIG    1       24.743 -20.595   8.081  0.00  0.00    -0.000 C 
ATOM      5  C   LIG    1       23.689 -20.300   7.307  0.00  0.00    -0.023 C 
ATOM      6  C   LIG    1       23.768 -20.348   5.799  0.00  0.00    +0.012 C 
ATOM      7  C   LIG    1       22.382 -20.419   5.153  0.00  0.00    +0.012 C 
ATOM      8  C   LIG    1       27.155 -20.973   8.217  0.00  0.00    -0.020 C 
ATOM      9  C   LIG    1       28.462 -21.248   7.513  0.00  0.00    +0.012 C 
ATOM     10  C   LIG    1       29.651 -20.798   8.359  0.00  0.00    +0.012 C 
ATOM     11  C   LIG    1       24.731 -21.473   5.318  0.00  0.00    +0.007 C 
ATOM     12  C   LIG    1       28.525 -20.594   6.103  0.00  0.00    +0.052 C 
ENDROOT
BRANCH   1  13
ATOM     13  O   LIG    1       26.739 -19.121   5.241  0.00  0.00    -0.461 OA
BRANCH  13  14
ATOM     14  C   LIG    1       27.613 -18.256   4.646  0.00  0.00    +0.310 C 
ATOM     15  O   LIG    1       28.799 -18.171   4.913  0.00  0.00    -0.251 OA
BRANCH  14  16
ATOM     16  C   LIG    1       26.949 -17.452   3.531  0.00  0.00    +0.094 C 
ATOM     17  C   LIG    1       25.487 -17.883   3.419  0.00  0.00    +0.019 C 
BRANCH  16  19
ATOM     18  C   LIG    1       25.731 -15.207   3.473  0.00  0.00    +0.004 C 
ATOM     19  C   LIG    1       27.051 -15.931   3.709  0.00  0.00    +0.011 C 
ENDBRANCH  16  19
ENDBRANCH  14  16
ENDBRANCH  13  14
ENDBRANCH   1  13
BRANCH  11  20
ATOM     20  C   LIG    1       24.112 -22.903   5.494  0.00  0.00    +0.008 C 
BRANCH  20  21
ATOM     21  C   LIG    1       25.130 -24.004   5.872  0.00  0.00    +0.045 C 
BRANCH  21  22
ATOM     22  C   LIG    1       25.021 -25.279   5.017  0.00  0.00    +0.179 C 
ATOM     23  O   LIG    1       26.350 -25.828   4.889  0.00  0.00    -0.461 OA
ATOM     24  C   LIG    1       26.642 -27.146   4.878  0.00  0.00    +0.310 C 
ATOM     25  O   LIG    1       27.766 -27.538   4.588  0.00  0.00    -0.251 OA
ATOM     26  C   LIG    1       25.530 -28.087   5.206  0.00  0.00    +0.152 C 
ATOM     27  C   LIG    1       24.615 -27.454   6.228  0.00  0.00    +0.129 C 
ATOM     28  C   LIG    1       23.975 -26.233   5.603  0.00  0.00    +0.076 C 
BRANCH  27  29
ATOM     29  O   LIG    1       23.604 -28.388   6.596  0.00  0.00    -0.391 OA
ATOM     30  H   LIG    1       23.199 -28.083   7.427  0.00  0.00    +0.210 HD
ENDBRANCH  27  29
ENDBRANCH  21  22
ENDBRANCH  20  21
ENDBRANCH  11  20
TORSDOF 8
ENDMDL
