MODEL 1
REMARK VINA RESULT:      -1.1      0.000      0.000
REMARK  Name = *****
REMARK                            x       y       z     vdW  Elec       q    Type
REMARK                         _______ _______ _______ _____ _____    ______ ____
ROOT
ATOM      1  N   LIG    1       23.342 -16.565   4.699  0.00  0.00    -0.302 NA
ATOM      2  C   LIG    1       24.638 -16.770   4.019  0.00  0.00    +0.087 C 
ATOM      3  C   LIG    1       24.847 -15.896   2.780  0.00  0.00    +0.055 C 
ATOM      4  C   LIG    1       24.668 -14.395   3.086  0.00  0.00    +0.093 C 
ATOM      5  C   LIG    1       23.305 -14.217   3.783  0.00  0.00    +0.055 C 
ATOM      6  C   LIG    1       23.140 -15.142   4.993  0.00  0.00    +0.087 C 
ENDROOT
BRANCH   4   7
ATOM      7  C   LIG    1       25.875 -13.776   3.807  0.00  0.00    -0.016 A 
ATOM      8  C   LIG    1       26.950 -13.254   3.059  0.00  0.00    +0.008 A 
ATOM      9  C   LIG    1       28.061 -12.671   3.682  0.00  0.00    +0.020 A 
ATOM     10  C   LIG    1       28.115 -12.592   5.068  0.00  0.00    +0.041 A 
ATOM     11 CL   LIG    1       29.471 -11.872   5.843  0.00  0.00    -0.084 Cl
ATOM     12  C   LIG    1       27.065 -13.082   5.833  0.00  0.00    +0.020 A 
ATOM     13  C   LIG    1       25.954 -13.656   5.206  0.00  0.00    +0.008 A 
ENDBRANCH   4   7
BRANCH   4  14
ATOM     14  O   LIG    1       24.604 -13.729   1.812  0.00  0.00    -0.384 OA
ATOM     15  H   LIG    1       24.315 -14.378   1.150  0.00  0.00    +0.211 HD
ENDBRANCH   4  14
BRANCH   1  16
ATOM     16  C   LIG    1       22.239 -17.176   3.941  0.00  0.00    +0.085 C 
BRANCH  16  17
ATOM     17  C   LIG    1       22.170 -18.705   4.086  0.00  0.00    +0.023 C 
BRANCH  17  18
ATOM     18  C   LIG    1       22.351 -19.142   5.540  0.00  0.00    +0.081 C 
BRANCH  18  20
ATOM     19  O   LIG    1       22.502 -21.531   5.641  0.00  0.00    -0.292 OA
ATOM     20  C   LIG    1       23.102 -20.461   5.641  0.00  0.00    +0.163 C 
BRANCH  20  21
ATOM     21  C   LIG    1       24.597 -20.450   5.789  0.00  0.00    +0.018 A 
ATOM     22  C   LIG    1       25.375 -19.959   4.726  0.00  0.00    +0.014 A 
ATOM     23  C   LIG    1       26.769 -19.934   4.831  0.00  0.00    +0.039 A 
ATOM     24  C   LIG    1       27.380 -20.412   5.983  0.00  0.00    +0.123 A 
ATOM     25  F   LIG    1       28.714 -20.399   6.083  0.00  0.00    -0.205 F 
ATOM     26  C   LIG    1       26.623 -20.910   7.036  0.00  0.00    +0.039 A 
ATOM     27  C   LIG    1       25.230 -20.929   6.937  0.00  0.00    +0.014 A 
ENDBRANCH  20  21
ENDBRANCH  18  20
ENDBRANCH  17  18
ENDBRANCH  16  17
ENDBRANCH   1  16
TORSDOF 7
ENDMDL
