MODEL 1
REMARK VINA RESULT:      -8.9      0.000      0.000
REMARK  Name = *****
REMARK                            x       y       z     vdW  Elec       q    Type
REMARK                         _______ _______ _______ _____ _____    ______ ____
ROOT
ATOM      1  O   LIG    1       29.678 -20.118   6.456  0.00  0.00    -0.273 OA
ATOM      2  C   LIG    1       28.451 -20.204   6.399  0.00  0.00    +0.239 C 
ATOM      3  N   LIG    1       27.816 -19.967   5.208  0.00  0.00    -0.283 N 
ATOM      4  H   LIG    1       28.439 -19.606   4.496  0.00  0.00    +0.155 HD
ATOM      5  C   LIG    1       26.431 -19.946   4.982  0.00  0.00    +0.043 A 
ATOM      6  C   LIG    1       25.495 -20.702   5.709  0.00  0.00    +0.024 A 
ATOM      7  C   LIG    1       24.122 -20.494   5.493  0.00  0.00    +0.027 A 
ATOM      8  C   LIG    1       23.694 -19.605   4.510  0.00  0.00    +0.019 A 
ATOM      9  C   LIG    1       24.618 -18.918   3.730  0.00  0.00    +0.017 A 
ATOM     10 BR   LIG    1       21.844 -19.353   4.212  0.00  0.00    -0.050 Br
ATOM     11  C   LIG    1       25.919 -21.801   6.634  0.00  0.00    +0.093 C 
ATOM     12  N   LIG    1       26.863 -21.690   7.513  0.00  0.00    -0.272 NA
ATOM     13  C   LIG    1       25.983 -19.093   3.963  0.00  0.00    +0.025 A 
ATOM     14  C   LIG    1       27.589 -20.432   7.629  0.00  0.00    +0.238 C 
ENDROOT
BRANCH  11  15
ATOM     15  C   LIG    1       25.235 -23.141   6.518  0.00  0.00    +0.089 A 
ATOM     16  N   LIG    1       26.021 -24.213   6.251  0.00  0.00    -0.253 NA
ATOM     17  C   LIG    1       25.411 -25.416   6.174  0.00  0.00    +0.111 A 
ATOM     18  C   LIG    1       24.051 -25.605   6.353  0.00  0.00    +0.020 A 
ATOM     19  C   LIG    1       23.263 -24.494   6.632  0.00  0.00    +0.004 A 
ATOM     20  C   LIG    1       23.861 -23.240   6.720  0.00  0.00    +0.030 A 
ENDBRANCH  11  15
TORSDOF 1
ENDMDL
MODEL 2
REMARK VINA RESULT:      -7.5      3.308      5.338
REMARK  Name = *****
REMARK                            x       y       z     vdW  Elec       q    Type
REMARK                         _______ _______ _______ _____ _____    ______ ____
ROOT
ATOM      1  O   LIG    1       22.460 -19.762   5.267  0.00  0.00    -0.273 OA
ATOM      2  C   LIG    1       23.216 -20.611   5.741  0.00  0.00    +0.239 C 
ATOM      3  N   LIG    1       23.694 -21.610   4.935  0.00  0.00    -0.283 N 
ATOM      4  H   LIG    1       23.257 -21.620   4.022  0.00  0.00    +0.155 HD
ATOM      5  C   LIG    1       24.496 -22.693   5.324  0.00  0.00    +0.043 A 
ATOM      6  C   LIG    1       25.414 -22.662   6.387  0.00  0.00    +0.024 A 
ATOM      7  C   LIG    1       26.059 -23.849   6.779  0.00  0.00    +0.027 A 
ATOM      8  C   LIG    1       25.851 -25.027   6.066  0.00  0.00    +0.019 A 
ATOM      9  C   LIG    1       25.009 -25.042   4.959  0.00  0.00    +0.017 A 
ATOM     10 BR   LIG    1       26.744 -26.610   6.586  0.00  0.00    -0.050 Br
ATOM     11  C   LIG    1       25.806 -21.378   7.052  0.00  0.00    +0.093 C 
ATOM     12  N   LIG    1       24.967 -20.473   7.441  0.00  0.00    -0.272 NA
ATOM     13  C   LIG    1       24.338 -23.876   4.587  0.00  0.00    +0.025 A 
ATOM     14  C   LIG    1       23.541 -20.679   7.224  0.00  0.00    +0.238 C 
ENDROOT
BRANCH  11  15
ATOM     15  C   LIG    1       27.274 -21.093   7.252  0.00  0.00    +0.089 A 
ATOM     16  N   LIG    1       27.862 -21.626   8.352  0.00  0.00    -0.253 NA
ATOM     17  C   LIG    1       29.182 -21.392   8.516  0.00  0.00    +0.111 A 
ATOM     18  C   LIG    1       29.950 -20.651   7.634  0.00  0.00    +0.020 A 
ATOM     19  C   LIG    1       29.331 -20.118   6.509  0.00  0.00    +0.004 A 
ATOM     20  C   LIG    1       27.972 -20.343   6.309  0.00  0.00    +0.030 A 
ENDBRANCH  11  15
TORSDOF 1
ENDMDL
MODEL 3
REMARK VINA RESULT:      -7.4      3.451      4.429
REMARK  Name = *****
REMARK                            x       y       z     vdW  Elec       q    Type
REMARK                         _______ _______ _______ _____ _____    ______ ____
ROOT
ATOM      1  O   LIG    1       21.897 -20.402   5.202  0.00  0.00    -0.273 OA
ATOM      2  C   LIG    1       23.044 -20.803   5.404  0.00  0.00    +0.239 C 
ATOM      3  N   LIG    1       23.577 -20.707   6.663  0.00  0.00    -0.283 N 
ATOM      4  H   LIG    1       22.992 -20.176   7.297  0.00  0.00    +0.155 HD
ATOM      5  C   LIG    1       24.883 -21.041   7.051  0.00  0.00    +0.043 A 
ATOM      6  C   LIG    1       25.665 -22.035   6.438  0.00  0.00    +0.024 A 
ATOM      7  C   LIG    1       27.011 -22.186   6.816  0.00  0.00    +0.027 A 
ATOM      8  C   LIG    1       27.540 -21.412   7.846  0.00  0.00    +0.019 A 
ATOM      9  C   LIG    1       26.745 -20.486   8.513  0.00  0.00    +0.017 A 
ATOM     10 BR   LIG    1       29.344 -21.642   8.362  0.00  0.00    -0.050 Br
ATOM     11  C   LIG    1       25.078 -23.011   5.466  0.00  0.00    +0.093 C 
ATOM     12  N   LIG    1       24.304 -22.683   4.482  0.00  0.00    -0.272 NA
ATOM     13  C   LIG    1       25.418 -20.306   8.119  0.00  0.00    +0.025 A 
ATOM     14  C   LIG    1       23.951 -21.283   4.284  0.00  0.00    +0.238 C 
ENDROOT
BRANCH  11  15
ATOM     15  C   LIG    1       25.369 -24.479   5.658  0.00  0.00    +0.089 A 
ATOM     16  N   LIG    1       25.326 -25.266   4.554  0.00  0.00    -0.253 NA
ATOM     17  C   LIG    1       25.614 -26.574   4.722  0.00  0.00    +0.111 A 
ATOM     18  C   LIG    1       25.944 -27.142   5.942  0.00  0.00    +0.020 A 
ATOM     19  C   LIG    1       25.988 -26.318   7.061  0.00  0.00    +0.004 A 
ATOM     20  C   LIG    1       25.700 -24.963   6.920  0.00  0.00    +0.030 A 
ENDBRANCH  11  15
TORSDOF 1
ENDMDL
MODEL 4
REMARK VINA RESULT:      -7.3      2.129      4.509
REMARK  Name = *****
REMARK                            x       y       z     vdW  Elec       q    Type
REMARK                         _______ _______ _______ _____ _____    ______ ____
ROOT
ATOM      1  O   LIG    1       28.949 -19.579   8.286  0.00  0.00    -0.273 OA
ATOM      2  C   LIG    1       28.215 -20.265   7.574  0.00  0.00    +0.239 C 
ATOM      3  N   LIG    1       27.396 -21.198   8.154  0.00  0.00    -0.283 N 
ATOM      4  H   LIG    1       27.579 -21.320   9.142  0.00  0.00    +0.155 HD
ATOM      5  C   LIG    1       26.559 -22.109   7.493  0.00  0.00    +0.043 A 
ATOM      6  C   LIG    1       25.959 -21.878   6.245  0.00  0.00    +0.024 A 
ATOM      7  C   LIG    1       25.256 -22.918   5.612  0.00  0.00    +0.027 A 
ATOM      8  C   LIG    1       25.087 -24.142   6.254  0.00  0.00    +0.019 A 
ATOM      9  C   LIG    1       25.607 -24.347   7.528  0.00  0.00    +0.017 A 
ATOM     10 BR   LIG    1       24.118 -25.524   5.403  0.00  0.00    -0.050 Br
ATOM     11  C   LIG    1       25.955 -20.520   5.613  0.00  0.00    +0.093 C 
ATOM     12  N   LIG    1       26.998 -19.759   5.515  0.00  0.00    -0.272 NA
ATOM     13  C   LIG    1       26.336 -23.331   8.147  0.00  0.00    +0.025 A 
ATOM     14  C   LIG    1       28.271 -20.217   6.056  0.00  0.00    +0.238 C 
ENDROOT
BRANCH  11  15
ATOM     15  C   LIG    1       24.650 -19.976   5.085  0.00  0.00    +0.089 A 
ATOM     16  N   LIG    1       24.702 -19.254   3.938  0.00  0.00    -0.253 NA
ATOM     17  C   LIG    1       23.530 -18.791   3.451  0.00  0.00    +0.111 A 
ATOM     18  C   LIG    1       22.303 -19.013   4.054  0.00  0.00    +0.020 A 
ATOM     19  C   LIG    1       22.270 -19.761   5.225  0.00  0.00    +0.004 A 
ATOM     20  C   LIG    1       23.461 -20.255   5.751  0.00  0.00    +0.030 A 
ENDBRANCH  11  15
TORSDOF 1
ENDMDL
MODEL 5
REMARK VINA RESULT:      -7.3      2.486      4.532
REMARK  Name = *****
REMARK                            x       y       z     vdW  Elec       q    Type
REMARK                         _______ _______ _______ _____ _____    ______ ____
ROOT
ATOM      1  O   LIG    1       22.715 -24.456   6.877  0.00  0.00    -0.273 OA
ATOM      2  C   LIG    1       23.450 -23.615   6.357  0.00  0.00    +0.239 C 
ATOM      3  N   LIG    1       23.009 -22.324   6.232  0.00  0.00    -0.283 N 
ATOM      4  H   LIG    1       22.033 -22.217   6.477  0.00  0.00    +0.155 HD
ATOM      5  C   LIG    1       23.679 -21.264   5.602  0.00  0.00    +0.043 A 
ATOM      6  C   LIG    1       25.076 -21.144   5.517  0.00  0.00    +0.024 A 
ATOM      7  C   LIG    1       25.635 -20.116   4.738  0.00  0.00    +0.027 A 
ATOM      8  C   LIG    1       24.812 -19.176   4.122  0.00  0.00    +0.019 A 
ATOM      9  C   LIG    1       23.431 -19.242   4.274  0.00  0.00    +0.017 A 
ATOM     10 BR   LIG    1       25.578 -17.784   3.098  0.00  0.00    -0.050 Br
ATOM     11  C   LIG    1       25.991 -22.017   6.319  0.00  0.00    +0.093 C 
ATOM     12  N   LIG    1       25.873 -23.302   6.416  0.00  0.00    -0.272 NA
ATOM     13  C   LIG    1       22.867 -20.280   5.017  0.00  0.00    +0.025 A 
ATOM     14  C   LIG    1       24.782 -23.974   5.722  0.00  0.00    +0.238 C 
ENDROOT
BRANCH  11  15
ATOM     15  C   LIG    1       27.105 -21.363   7.100  0.00  0.00    +0.089 A 
ATOM     16  N   LIG    1       28.371 -21.759   6.815  0.00  0.00    -0.253 NA
ATOM     17  C   LIG    1       29.369 -21.154   7.495  0.00  0.00    +0.111 A 
ATOM     18  C   LIG    1       29.168 -20.170   8.449  0.00  0.00    +0.020 A 
ATOM     19  C   LIG    1       27.864 -19.775   8.722  0.00  0.00    +0.004 A 
ATOM     20  C   LIG    1       26.812 -20.377   8.036  0.00  0.00    +0.030 A 
ENDBRANCH  11  15
TORSDOF 1
ENDMDL
MODEL 6
REMARK VINA RESULT:      -6.8      6.618      9.922
REMARK  Name = *****
REMARK                            x       y       z     vdW  Elec       q    Type
REMARK                         _______ _______ _______ _____ _____    ______ ____
ROOT
ATOM      1  O   LIG    1       24.820 -33.629   5.726  0.00  0.00    -0.273 OA
ATOM      2  C   LIG    1       24.844 -32.610   6.417  0.00  0.00    +0.239 C 
ATOM      3  N   LIG    1       25.991 -32.282   7.090  0.00  0.00    -0.283 N 
ATOM      4  H   LIG    1       26.692 -33.011   7.048  0.00  0.00    +0.155 HD
ATOM      5  C   LIG    1       26.169 -31.207   7.974  0.00  0.00    +0.043 A 
ATOM      6  C   LIG    1       25.475 -29.989   7.897  0.00  0.00    +0.024 A 
ATOM      7  C   LIG    1       25.629 -29.038   8.921  0.00  0.00    +0.027 A 
ATOM      8  C   LIG    1       26.525 -29.269   9.962  0.00  0.00    +0.019 A 
ATOM      9  C   LIG    1       27.279 -30.438   9.997  0.00  0.00    +0.017 A 
ATOM     10 BR   LIG    1       26.743 -27.972  11.320  0.00  0.00    -0.050 Br
ATOM     11  C   LIG    1       24.652 -29.626   6.698  0.00  0.00    +0.093 C 
ATOM     12  N   LIG    1       23.798 -30.418   6.134  0.00  0.00    -0.272 NA
ATOM     13  C   LIG    1       27.105 -31.401   9.002  0.00  0.00    +0.025 A 
ATOM     14  C   LIG    1       23.608 -31.762   6.666  0.00  0.00    +0.238 C 
ENDROOT
BRANCH  11  15
ATOM     15  C   LIG    1       24.850 -28.266   6.076  0.00  0.00    +0.089 A 
ATOM     16  N   LIG    1       24.002 -27.282   6.464  0.00  0.00    -0.253 NA
ATOM     17  C   LIG    1       24.197 -26.058   5.927  0.00  0.00    +0.111 A 
ATOM     18  C   LIG    1       25.201 -25.764   5.019  0.00  0.00    +0.020 A 
ATOM     19  C   LIG    1       26.064 -26.785   4.639  0.00  0.00    +0.004 A 
ATOM     20  C   LIG    1       25.892 -28.058   5.176  0.00  0.00    +0.030 A 
ENDBRANCH  11  15
TORSDOF 1
ENDMDL
MODEL 7
REMARK VINA RESULT:      -6.6      7.346      9.187
REMARK  Name = *****
REMARK                            x       y       z     vdW  Elec       q    Type
REMARK                         _______ _______ _______ _____ _____    ______ ____
ROOT
ATOM      1  O   LIG    1       24.624 -33.196   6.847  0.00  0.00    -0.273 OA
ATOM      2  C   LIG    1       25.036 -32.050   7.036  0.00  0.00    +0.239 C 
ATOM      3  N   LIG    1       24.261 -30.987   6.653  0.00  0.00    -0.283 N 
ATOM      4  H   LIG    1       23.449 -31.266   6.116  0.00  0.00    +0.155 HD
ATOM      5  C   LIG    1       24.604 -29.629   6.722  0.00  0.00    +0.043 A 
ATOM      6  C   LIG    1       25.472 -29.075   7.678  0.00  0.00    +0.024 A 
ATOM      7  C   LIG    1       25.856 -27.727   7.564  0.00  0.00    +0.027 A 
ATOM      8  C   LIG    1       25.317 -26.927   6.560  0.00  0.00    +0.019 A 
ATOM      9  C   LIG    1       24.391 -27.450   5.663  0.00  0.00    +0.017 A 
ATOM     10 BR   LIG    1       25.822 -25.110   6.433  0.00  0.00    -0.050 Br
ATOM     11  C   LIG    1       25.919 -29.850   8.879  0.00  0.00    +0.093 C 
ATOM     12  N   LIG    1       26.362 -31.066   8.837  0.00  0.00    -0.272 NA
ATOM     13  C   LIG    1       24.032 -28.796   5.749  0.00  0.00    +0.025 A 
ATOM     14  C   LIG    1       26.432 -31.759   7.557  0.00  0.00    +0.238 C 
ENDROOT
BRANCH  11  15
ATOM     15  C   LIG    1       25.816 -29.197  10.235  0.00  0.00    +0.089 A 
ATOM     16  N   LIG    1       24.731 -29.508  10.988  0.00  0.00    -0.253 NA
ATOM     17  C   LIG    1       24.653 -28.945  12.213  0.00  0.00    +0.111 A 
ATOM     18  C   LIG    1       25.607 -28.083  12.728  0.00  0.00    +0.020 A 
ATOM     19  C   LIG    1       26.714 -27.781  11.943  0.00  0.00    +0.004 A 
ATOM     20  C   LIG    1       26.826 -28.348  10.677  0.00  0.00    +0.030 A 
ENDBRANCH  11  15
TORSDOF 1
ENDMDL
MODEL 8
REMARK VINA RESULT:      -6.2      3.018      5.437
REMARK  Name = *****
REMARK                            x       y       z     vdW  Elec       q    Type
REMARK                         _______ _______ _______ _____ _____    ______ ____
ROOT
ATOM      1  O   LIG    1       23.330 -25.496   6.205  0.00  0.00    -0.273 OA
ATOM      2  C   LIG    1       23.787 -24.391   6.502  0.00  0.00    +0.239 C 
ATOM      3  N   LIG    1       25.115 -24.133   6.286  0.00  0.00    -0.283 N 
ATOM      4  H   LIG    1       25.635 -24.957   6.009  0.00  0.00    +0.155 HD
ATOM      5  C   LIG    1       25.813 -22.966   6.631  0.00  0.00    +0.043 A 
ATOM      6  C   LIG    1       25.238 -21.687   6.701  0.00  0.00    +0.024 A 
ATOM      7  C   LIG    1       25.998 -20.613   7.197  0.00  0.00    +0.027 A 
ATOM      8  C   LIG    1       27.334 -20.801   7.541  0.00  0.00    +0.019 A 
ATOM      9  C   LIG    1       27.932 -22.048   7.392  0.00  0.00    +0.017 A 
ATOM     10 BR   LIG    1       28.353 -19.343   8.183  0.00  0.00    -0.050 Br
ATOM     11  C   LIG    1       23.868 -21.408   6.161  0.00  0.00    +0.093 C 
ATOM     12  N   LIG    1       22.830 -22.144   6.396  0.00  0.00    -0.272 NA
ATOM     13  C   LIG    1       27.174 -23.126   6.934  0.00  0.00    +0.025 A 
ATOM     14  C   LIG    1       22.968 -23.335   7.225  0.00  0.00    +0.238 C 
ENDROOT
BRANCH  11  15
ATOM     15  C   LIG    1       23.682 -20.217   5.254  0.00  0.00    +0.089 A 
ATOM     16  N   LIG    1       24.673 -19.959   4.365  0.00  0.00    -0.253 NA
ATOM     17  C   LIG    1       24.493 -18.909   3.535  0.00  0.00    +0.111 A 
ATOM     18  C   LIG    1       23.369 -18.100   3.545  0.00  0.00    +0.020 A 
ATOM     19  C   LIG    1       22.361 -18.386   4.459  0.00  0.00    +0.004 A 
ATOM     20  C   LIG    1       22.515 -19.463   5.328  0.00  0.00    +0.030 A 
ENDBRANCH  11  15
TORSDOF 1
ENDMDL
MODEL 9
REMARK VINA RESULT:      -5.9      6.538      9.880
REMARK  Name = *****
REMARK                            x       y       z     vdW  Elec       q    Type
REMARK                         _______ _______ _______ _____ _____    ______ ____
ROOT
ATOM      1  O   LIG    1       23.667 -30.601  11.337  0.00  0.00    -0.273 OA
ATOM      2  C   LIG    1       24.202 -30.625  10.227  0.00  0.00    +0.239 C 
ATOM      3  N   LIG    1       23.546 -31.213   9.178  0.00  0.00    -0.283 N 
ATOM      4  H   LIG    1       22.705 -31.699   9.464  0.00  0.00    +0.155 HD
ATOM      5  C   LIG    1       24.035 -31.395   7.876  0.00  0.00    +0.043 A 
ATOM      6  C   LIG    1       24.964 -30.548   7.249  0.00  0.00    +0.024 A 
ATOM      7  C   LIG    1       25.493 -30.908   5.997  0.00  0.00    +0.027 A 
ATOM      8  C   LIG    1       25.038 -32.053   5.347  0.00  0.00    +0.019 A 
ATOM      9  C   LIG    1       24.055 -32.848   5.926  0.00  0.00    +0.017 A 
ATOM     10 BR   LIG    1       25.738 -32.512   3.652  0.00  0.00    -0.050 Br
ATOM     11  C   LIG    1       25.332 -29.217   7.828  0.00  0.00    +0.093 C 
ATOM     12  N   LIG    1       25.639 -29.022   9.071  0.00  0.00    -0.272 NA
ATOM     13  C   LIG    1       23.552 -32.517   7.185  0.00  0.00    +0.025 A 
ATOM     14  C   LIG    1       25.626 -30.148   9.996  0.00  0.00    +0.238 C 
ENDROOT
BRANCH  11  15
ATOM     15  C   LIG    1       25.309 -28.009   6.924  0.00  0.00    +0.089 A 
ATOM     16  N   LIG    1       26.351 -27.146   7.022  0.00  0.00    -0.253 NA
ATOM     17  C   LIG    1       26.343 -26.080   6.193  0.00  0.00    +0.111 A 
ATOM     18  C   LIG    1       25.345 -25.830   5.266  0.00  0.00    +0.020 A 
ATOM     19  C   LIG    1       24.289 -26.729   5.177  0.00  0.00    +0.004 A 
ATOM     20  C   LIG    1       24.269 -27.840   6.015  0.00  0.00    +0.030 A 
ENDBRANCH  11  15
TORSDOF 1
ENDMDL
