MODEL 1
REMARK VINA RESULT:      -8.9      0.000      0.000
REMARK  Name = *****
REMARK                            x       y       z     vdW  Elec       q    Type
REMARK                         _______ _______ _______ _____ _____    ______ ____
ROOT
ATOM      1  C   LIG    1       25.253 -24.812   6.602  0.00  0.00    +0.058 C 
ATOM      2  C   LIG    1       26.348 -23.745   6.762  0.00  0.00    +0.081 C 
ATOM      3  C   LIG    1       25.834 -22.399   6.203  0.00  0.00    +0.100 C 
ATOM      4  C   LIG    1       26.760 -21.142   6.313  0.00  0.00    +0.094 C 
ATOM      5  N   LIG    1       27.179 -20.965   7.721  0.00  0.00    -0.296 NA
ATOM      6  C   LIG    1       26.037 -20.573   8.556  0.00  0.00    +0.086 C 
ATOM      7  C   LIG    1       24.864 -21.556   8.421  0.00  0.00    +0.034 C 
ATOM      8  C   LIG    1       26.047 -19.863   5.660  0.00  0.00    +0.057 C 
ATOM      9  C   LIG    1       24.536 -19.954   5.513  0.00  0.00    -0.038 A 
ATOM     10  C   LIG    1       23.793 -19.180   4.618  0.00  0.00    +0.008 A 
ATOM     11  C   LIG    1       22.461 -19.531   4.304  0.00  0.00    +0.049 A 
ATOM     12  C   LIG    1       21.888 -20.686   4.845  0.00  0.00    +0.159 A 
ATOM     13  C   LIG    1       22.624 -21.423   5.749  0.00  0.00    +0.167 A 
ATOM     14  O   LIG    1       22.321 -22.690   6.181  0.00  0.00    -0.476 OA
ATOM     15  C   LIG    1       23.456 -23.095   7.001  0.00  0.00    +0.252 C 
ATOM     16  C   LIG    1       23.878 -21.001   6.139  0.00  0.00    +0.014 A 
ATOM     17  C   LIG    1       24.551 -22.021   6.973  0.00  0.00    +0.075 C 
ATOM     18  C   LIG    1       23.942 -24.469   6.590  0.00  0.00    +0.143 C 
ENDROOT
BRANCH   1  21
ATOM     19  N   LIG    1       24.821 -27.200   6.555  0.00  0.00    -0.298 N 
ATOM     20  H   LIG    1       23.860 -26.913   6.746  0.00  0.00    +0.150 HD
ATOM     21  C   LIG    1       25.736 -26.207   6.350  0.00  0.00    +0.244 C 
ATOM     22  O   LIG    1       26.916 -26.417   6.054  0.00  0.00    -0.270 OA
BRANCH  19  24
ATOM     23  C   LIG    1       23.769 -29.410   6.133  0.00  0.00    +0.041 C 
ATOM     24  C   LIG    1       25.068 -28.645   6.445  0.00  0.00    +0.108 C 
ATOM     25  C   LIG    1       26.091 -28.934   5.330  0.00  0.00    +0.041 C 
BRANCH  24  26
ATOM     26  C   LIG    1       25.627 -29.110   7.782  0.00  0.00    +0.251 A 
ATOM     27  O   LIG    1       25.941 -30.435   7.890  0.00  0.00    -0.335 OA
ATOM     28  N   LIG    1       26.486 -30.618   9.157  0.00  0.00    -0.056 NA
ATOM     29  C   LIG    1       26.453 -29.393   9.708  0.00  0.00    +0.202 A 
ATOM     30  N   LIG    1       25.899 -28.430   8.883  0.00  0.00    -0.190 NA
BRANCH  29  31
ATOM     31  C   LIG    1       26.992 -29.105  11.039  0.00  0.00    +0.022 A 
ATOM     32  C   LIG    1       26.319 -28.217  11.898  0.00  0.00    +0.012 A 
ATOM     33  C   LIG    1       26.823 -27.921  13.170  0.00  0.00    +0.001 A 
ATOM     34  C   LIG    1       28.011 -28.505  13.600  0.00  0.00    +0.000 A 
ATOM     35  C   LIG    1       28.688 -29.393  12.763  0.00  0.00    +0.001 A 
ATOM     36  C   LIG    1       28.180 -29.695  11.492  0.00  0.00    +0.012 A 
ENDBRANCH  29  31
ENDBRANCH  24  26
ENDBRANCH  19  24
ENDBRANCH   1  21
BRANCH  12  37
ATOM     37  O   LIG    1       20.661 -21.126   4.451  0.00  0.00    -0.503 OA
ATOM     38  H   LIG    1       20.201 -20.401   3.998  0.00  0.00    +0.292 HD
ENDBRANCH  12  37
BRANCH   3  39
ATOM     39  O   LIG    1       25.655 -22.602   4.775  0.00  0.00    -0.386 OA
ATOM     40  H   LIG    1       25.269 -23.478   4.609  0.00  0.00    +0.210 HD
ENDBRANCH   3  39
BRANCH  18  41
ATOM     41  O   LIG    1       22.949 -25.332   6.162  0.00  0.00    -0.507 OA
ATOM     42  H   LIG    1       23.195 -25.606   5.249  0.00  0.00    +0.292 HD
ENDBRANCH  18  41
BRANCH   5  43
ATOM     43  C   LIG    1       28.311 -20.043   7.899  0.00  0.00    +0.088 C 
BRANCH  43  44
ATOM     44  C   LIG    1       29.265 -20.037   6.734  0.00  0.00    +0.003 C 
ATOM     45  C   LIG    1       29.586 -18.736   6.033  0.00  0.00    +0.005 C 
ATOM     46  C   LIG    1       30.657 -19.453   6.803  0.00  0.00    +0.005 C 
ENDBRANCH  43  44
ENDBRANCH   5  43
TORSDOF 9
ENDMDL
MODEL 2
REMARK VINA RESULT:      -8.5      3.740     10.942
REMARK  Name = *****
REMARK                            x       y       z     vdW  Elec       q    Type
REMARK                         _______ _______ _______ _____ _____    ______ ____
ROOT
ATOM      1  C   LIG    1       24.954 -29.262   8.737  0.00  0.00    +0.058 C 
ATOM      2  C   LIG    1       23.708 -30.162   8.759  0.00  0.00    +0.081 C 
ATOM      3  C   LIG    1       23.818 -31.156   9.937  0.00  0.00    +0.100 C 
ATOM      4  C   LIG    1       22.629 -32.140  10.197  0.00  0.00    +0.094 C 
ATOM      5  N   LIG    1       21.372 -31.367  10.316  0.00  0.00    -0.296 NA
ATOM      6  C   LIG    1       21.373 -30.563  11.545  0.00  0.00    +0.086 C 
ATOM      7  C   LIG    1       22.615 -29.665  11.641  0.00  0.00    +0.034 C 
ATOM      8  C   LIG    1       22.952 -33.091  11.447  0.00  0.00    +0.057 C 
ATOM      9  C   LIG    1       24.031 -32.590  12.394  0.00  0.00    -0.038 A 
ATOM     10  C   LIG    1       24.748 -33.416  13.264  0.00  0.00    +0.008 A 
ATOM     11  C   LIG    1       25.936 -32.953  13.872  0.00  0.00    +0.049 A 
ATOM     12  C   LIG    1       26.435 -31.682  13.572  0.00  0.00    +0.159 A 
ATOM     13  C   LIG    1       25.702 -30.869  12.735  0.00  0.00    +0.167 A 
ATOM     14  O   LIG    1       26.152 -29.712  12.148  0.00  0.00    -0.476 OA
ATOM     15  C   LIG    1       25.081 -29.298  11.251  0.00  0.00    +0.252 C 
ATOM     16  C   LIG    1       24.482 -31.289  12.244  0.00  0.00    +0.014 A 
ATOM     17  C   LIG    1       23.955 -30.339  11.239  0.00  0.00    +0.075 C 
ATOM     18  C   LIG    1       25.634 -28.986   9.877  0.00  0.00    +0.143 C 
ENDROOT
BRANCH   1  21
ATOM     19  N   LIG    1       25.457 -27.471   7.179  0.00  0.00    -0.298 N 
ATOM     20  H   LIG    1       25.289 -26.873   7.990  0.00  0.00    +0.150 HD
ATOM     21  C   LIG    1       25.414 -28.820   7.382  0.00  0.00    +0.244 C 
ATOM     22  O   LIG    1       25.655 -29.651   6.501  0.00  0.00    -0.270 OA
BRANCH  19  24
ATOM     23  C   LIG    1       27.297 -26.962   5.590  0.00  0.00    +0.041 C 
ATOM     24  C   LIG    1       25.805 -26.791   5.922  0.00  0.00    +0.108 C 
ATOM     25  C   LIG    1       24.971 -27.356   4.756  0.00  0.00    +0.041 C 
BRANCH  24  26
ATOM     26  C   LIG    1       25.487 -25.314   6.106  0.00  0.00    +0.251 A 
ATOM     27  O   LIG    1       26.108 -24.676   7.141  0.00  0.00    -0.335 OA
ATOM     28  N   LIG    1       25.725 -23.340   7.080  0.00  0.00    -0.056 NA
ATOM     29  C   LIG    1       24.904 -23.283   6.018  0.00  0.00    +0.202 A 
ATOM     30  N   LIG    1       24.714 -24.506   5.399  0.00  0.00    -0.190 NA
BRANCH  29  31
ATOM     31  C   LIG    1       24.303 -22.034   5.543  0.00  0.00    +0.022 A 
ATOM     32  C   LIG    1       23.349 -21.363   6.329  0.00  0.00    +0.012 A 
ATOM     33  C   LIG    1       22.757 -20.175   5.887  0.00  0.00    +0.001 A 
ATOM     34  C   LIG    1       23.107 -19.641   4.650  0.00  0.00    +0.000 A 
ATOM     35  C   LIG    1       24.057 -20.290   3.861  0.00  0.00    +0.001 A 
ATOM     36  C   LIG    1       24.656 -21.478   4.305  0.00  0.00    +0.012 A 
ENDBRANCH  29  31
ENDBRANCH  24  26
ENDBRANCH  19  24
ENDBRANCH   1  21
BRANCH  12  37
ATOM     37  O   LIG    1       27.648 -31.265  14.031  0.00  0.00    -0.503 OA
ATOM     38  H   LIG    1       28.046 -31.981  14.553  0.00  0.00    +0.292 HD
ENDBRANCH  12  37
BRANCH   3  39
ATOM     39  O   LIG    1       24.948 -32.016   9.631  0.00  0.00    -0.386 OA
ATOM     40  H   LIG    1       24.905 -32.826  10.165  0.00  0.00    +0.210 HD
ENDBRANCH   3  39
BRANCH  18  41
ATOM     41  O   LIG    1       26.904 -28.436   9.872  0.00  0.00    -0.507 OA
ATOM     42  H   LIG    1       27.240 -28.509  10.794  0.00  0.00    +0.292 HD
ENDBRANCH  18  41
BRANCH   5  43
ATOM     43  C   LIG    1       20.153 -32.185  10.215  0.00  0.00    +0.088 C 
BRANCH  43  44
ATOM     44  C   LIG    1       18.915 -31.471  10.691  0.00  0.00    +0.003 C 
ATOM     45  C   LIG    1       17.775 -31.221   9.728  0.00  0.00    +0.005 C 
ATOM     46  C   LIG    1       17.583 -32.158  10.886  0.00  0.00    +0.005 C 
ENDBRANCH  43  44
ENDBRANCH   5  43
TORSDOF 9
ENDMDL
MODEL 3
REMARK VINA RESULT:      -8.5      5.348      9.429
REMARK  Name = *****
REMARK                            x       y       z     vdW  Elec       q    Type
REMARK                         _______ _______ _______ _____ _____    ______ ____
ROOT
ATOM      1  C   LIG    1       22.044 -30.646  11.661  0.00  0.00    +0.058 C 
ATOM      2  C   LIG    1       22.644 -29.297  12.090  0.00  0.00    +0.081 C 
ATOM      3  C   LIG    1       21.566 -28.470  12.825  0.00  0.00    +0.100 C 
ATOM      4  C   LIG    1       21.965 -27.075  13.411  0.00  0.00    +0.094 C 
ATOM      5  N   LIG    1       23.150 -27.232  14.285  0.00  0.00    -0.296 NA
ATOM      6  C   LIG    1       22.802 -27.981  15.499  0.00  0.00    +0.086 C 
ATOM      7  C   LIG    1       22.142 -29.329  15.171  0.00  0.00    +0.034 C 
ATOM      8  C   LIG    1       20.702 -26.380  14.114  0.00  0.00    +0.057 C 
ATOM      9  C   LIG    1       19.568 -27.316  14.503  0.00  0.00    -0.038 A 
ATOM     10  C   LIG    1       18.252 -26.896  14.719  0.00  0.00    +0.008 A 
ATOM     11  C   LIG    1       17.200 -27.837  14.760  0.00  0.00    +0.049 A 
ATOM     12  C   LIG    1       17.455 -29.193  14.535  0.00  0.00    +0.159 A 
ATOM     13  C   LIG    1       18.761 -29.595  14.352  0.00  0.00    +0.167 A 
ATOM     14  O   LIG    1       19.162 -30.821  13.883  0.00  0.00    -0.476 OA
ATOM     15  C   LIG    1       20.607 -30.716  13.727  0.00  0.00    +0.252 C 
ATOM     16  C   LIG    1       19.791 -28.681  14.435  0.00  0.00    +0.014 A 
ATOM     17  C   LIG    1       21.080 -29.291  14.039  0.00  0.00    +0.075 C 
ATOM     18  C   LIG    1       21.028 -31.210  12.359  0.00  0.00    +0.143 C 
ENDROOT
BRANCH   1  21
ATOM     19  N   LIG    1       23.934 -31.223  10.252  0.00  0.00    -0.298 N 
ATOM     20  H   LIG    1       24.480 -30.951  11.071  0.00  0.00    +0.150 HD
ATOM     21  C   LIG    1       22.575 -31.217  10.383  0.00  0.00    +0.244 C 
ATOM     22  O   LIG    1       21.802 -31.578   9.490  0.00  0.00    -0.270 OA
BRANCH  19  24
ATOM     23  C   LIG    1       26.167 -31.928   9.423  0.00  0.00    +0.041 C 
ATOM     24  C   LIG    1       24.692 -31.663   9.072  0.00  0.00    +0.108 C 
ATOM     25  C   LIG    1       24.083 -32.953   8.490  0.00  0.00    +0.041 C 
BRANCH  24  26
ATOM     26  C   LIG    1       24.604 -30.548   8.039  0.00  0.00    +0.251 A 
ATOM     27  O   LIG    1       23.809 -30.778   6.952  0.00  0.00    -0.335 OA
ATOM     28  N   LIG    1       23.828 -29.618   6.186  0.00  0.00    -0.056 NA
ATOM     29  C   LIG    1       24.634 -28.787   6.868  0.00  0.00    +0.202 A 
ATOM     30  N   LIG    1       25.156 -29.347   8.022  0.00  0.00    -0.190 NA
BRANCH  29  31
ATOM     31  C   LIG    1       24.896 -27.409   6.448  0.00  0.00    +0.022 A 
ATOM     32  C   LIG    1       25.939 -26.674   7.041  0.00  0.00    +0.012 A 
ATOM     33  C   LIG    1       26.198 -25.353   6.660  0.00  0.00    +0.001 A 
ATOM     34  C   LIG    1       25.416 -24.744   5.682  0.00  0.00    +0.000 A 
ATOM     35  C   LIG    1       24.382 -25.461   5.080  0.00  0.00    +0.001 A 
ATOM     36  C   LIG    1       24.125 -26.787   5.456  0.00  0.00    +0.012 A 
ENDBRANCH  29  31
ENDBRANCH  24  26
ENDBRANCH  19  24
ENDBRANCH   1  21
BRANCH  12  37
ATOM     37  O   LIG    1       16.445 -30.101  14.428  0.00  0.00    -0.503 OA
ATOM     38  H   LIG    1       16.610 -30.825  15.053  0.00  0.00    +0.292 HD
ENDBRANCH  12  37
BRANCH   3  39
ATOM     39  O   LIG    1       20.543 -28.176  11.836  0.00  0.00    -0.386 OA
ATOM     40  H   LIG    1       19.673 -28.118  12.263  0.00  0.00    +0.210 HD
ENDBRANCH   3  39
BRANCH  18  41
ATOM     41  O   LIG    1       20.269 -32.253  11.859  0.00  0.00    -0.507 OA
ATOM     42  H   LIG    1       20.612 -32.435  10.954  0.00  0.00    +0.292 HD
ENDBRANCH  18  41
BRANCH   5  43
ATOM     43  C   LIG    1       23.825 -25.967  14.613  0.00  0.00    +0.088 C 
BRANCH  43  44
ATOM     44  C   LIG    1       24.903 -25.593  13.630  0.00  0.00    +0.003 C 
ATOM     45  C   LIG    1       26.354 -25.631  14.056  0.00  0.00    +0.005 C 
ATOM     46  C   LIG    1       25.854 -26.596  13.019  0.00  0.00    +0.005 C 
ENDBRANCH  43  44
ENDBRANCH   5  43
TORSDOF 9
ENDMDL
MODEL 4
REMARK VINA RESULT:      -8.4      1.874      2.258
REMARK  Name = *****
REMARK                            x       y       z     vdW  Elec       q    Type
REMARK                         _______ _______ _______ _____ _____    ______ ____
ROOT
ATOM      1  C   LIG    1       25.150 -24.757   6.654  0.00  0.00    +0.058 C 
ATOM      2  C   LIG    1       26.278 -23.724   6.802  0.00  0.00    +0.081 C 
ATOM      3  C   LIG    1       25.812 -22.372   6.217  0.00  0.00    +0.100 C 
ATOM      4  C   LIG    1       26.778 -21.144   6.311  0.00  0.00    +0.094 C 
ATOM      5  N   LIG    1       27.195 -20.957   7.719  0.00  0.00    -0.296 NA
ATOM      6  C   LIG    1       26.061 -20.513   8.540  0.00  0.00    +0.086 C 
ATOM      7  C   LIG    1       24.857 -21.459   8.414  0.00  0.00    +0.034 C 
ATOM      8  C   LIG    1       26.111 -19.854   5.632  0.00  0.00    +0.057 C 
ATOM      9  C   LIG    1       24.599 -19.899   5.477  0.00  0.00    -0.038 A 
ATOM     10  C   LIG    1       23.886 -19.116   4.564  0.00  0.00    +0.008 A 
ATOM     11  C   LIG    1       22.546 -19.430   4.248  0.00  0.00    +0.049 A 
ATOM     12  C   LIG    1       21.932 -20.555   4.805  0.00  0.00    +0.159 A 
ATOM     13  C   LIG    1       22.638 -21.300   5.726  0.00  0.00    +0.167 A 
ATOM     14  O   LIG    1       22.292 -22.549   6.178  0.00  0.00    -0.476 OA
ATOM     15  C   LIG    1       23.408 -22.976   7.012  0.00  0.00    +0.252 C 
ATOM     16  C   LIG    1       23.904 -20.912   6.116  0.00  0.00    +0.014 A 
ATOM     17  C   LIG    1       24.538 -21.939   6.973  0.00  0.00    +0.075 C 
ATOM     18  C   LIG    1       23.851 -24.372   6.628  0.00  0.00    +0.143 C 
ENDROOT
BRANCH   1  21
ATOM     19  N   LIG    1       24.591 -27.101   6.366  0.00  0.00    -0.298 N 
ATOM     20  H   LIG    1       23.631 -26.753   6.357  0.00  0.00    +0.150 HD
ATOM     21  C   LIG    1       25.589 -26.172   6.430  0.00  0.00    +0.244 C 
ATOM     22  O   LIG    1       26.790 -26.455   6.389  0.00  0.00    -0.270 OA
BRANCH  19  24
ATOM     23  C   LIG    1       23.646 -29.168   5.363  0.00  0.00    +0.041 C 
ATOM     24  C   LIG    1       24.764 -28.555   6.223  0.00  0.00    +0.108 C 
ATOM     25  C   LIG    1       26.122 -28.874   5.570  0.00  0.00    +0.041 C 
BRANCH  24  26
ATOM     26  C   LIG    1       24.720 -29.153   7.623  0.00  0.00    +0.251 A 
ATOM     27  O   LIG    1       25.822 -28.961   8.408  0.00  0.00    -0.335 OA
ATOM     28  N   LIG    1       25.538 -29.529   9.645  0.00  0.00    -0.056 NA
ATOM     29  C   LIG    1       24.294 -30.017   9.505  0.00  0.00    +0.202 A 
ATOM     30  N   LIG    1       23.762 -29.820   8.243  0.00  0.00    -0.190 NA
BRANCH  29  31
ATOM     31  C   LIG    1       23.563 -30.659  10.600  0.00  0.00    +0.022 A 
ATOM     32  C   LIG    1       24.259 -31.196  11.698  0.00  0.00    +0.012 A 
ATOM     33  C   LIG    1       23.579 -31.822  12.748  0.00  0.00    +0.001 A 
ATOM     34  C   LIG    1       22.191 -31.925  12.715  0.00  0.00    +0.000 A 
ATOM     35  C   LIG    1       21.484 -31.392  11.637  0.00  0.00    +0.001 A 
ATOM     36  C   LIG    1       22.164 -30.758  10.587  0.00  0.00    +0.012 A 
ENDBRANCH  29  31
ENDBRANCH  24  26
ENDBRANCH  19  24
ENDBRANCH   1  21
BRANCH  12  37
ATOM     37  O   LIG    1       20.693 -20.962   4.411  0.00  0.00    -0.503 OA
ATOM     38  H   LIG    1       20.255 -20.226   3.955  0.00  0.00    +0.292 HD
ENDBRANCH  12  37
BRANCH   3  39
ATOM     39  O   LIG    1       25.634 -22.594   4.792  0.00  0.00    -0.386 OA
ATOM     40  H   LIG    1       25.057 -21.908   4.417  0.00  0.00    +0.210 HD
ENDBRANCH   3  39
BRANCH  18  41
ATOM     41  O   LIG    1       22.833 -25.210   6.209  0.00  0.00    -0.507 OA
ATOM     42  H   LIG    1       22.046 -24.984   6.755  0.00  0.00    +0.292 HD
ENDBRANCH  18  41
BRANCH   5  43
ATOM     43  C   LIG    1       28.355 -20.069   7.888  0.00  0.00    +0.088 C 
BRANCH  43  44
ATOM     44  C   LIG    1       29.262 -20.037   6.686  0.00  0.00    +0.003 C 
ATOM     45  C   LIG    1       29.554 -18.720   6.001  0.00  0.00    +0.005 C 
ATOM     46  C   LIG    1       30.655 -19.452   6.712  0.00  0.00    +0.005 C 
ENDBRANCH  43  44
ENDBRANCH   5  43
TORSDOF 9
ENDMDL
MODEL 5
REMARK VINA RESULT:      -8.4      4.668      9.749
REMARK  Name = *****
REMARK                            x       y       z     vdW  Elec       q    Type
REMARK                         _______ _______ _______ _____ _____    ______ ____
ROOT
ATOM      1  C   LIG    1       23.582 -31.554  10.725  0.00  0.00    +0.058 C 
ATOM      2  C   LIG    1       23.548 -30.065  11.106  0.00  0.00    +0.081 C 
ATOM      3  C   LIG    1       22.274 -29.778  11.932  0.00  0.00    +0.100 C 
ATOM      4  C   LIG    1       22.053 -28.332  12.487  0.00  0.00    +0.094 C 
ATOM      5  N   LIG    1       23.246 -27.915  13.257  0.00  0.00    -0.296 NA
ATOM      6  C   LIG    1       23.363 -28.699  14.494  0.00  0.00    +0.086 C 
ATOM      7  C   LIG    1       23.350 -30.210  14.219  0.00  0.00    +0.034 C 
ATOM      8  C   LIG    1       20.671 -28.247  13.295  0.00  0.00    +0.057 C 
ATOM      9  C   LIG    1       20.106 -29.574  13.775  0.00  0.00    -0.038 A 
ATOM     10  C   LIG    1       18.762 -29.776  14.101  0.00  0.00    +0.008 A 
ATOM     11  C   LIG    1       18.246 -31.085  14.227  0.00  0.00    +0.049 A 
ATOM     12  C   LIG    1       19.060 -32.193  13.978  0.00  0.00    +0.159 A 
ATOM     13  C   LIG    1       20.390 -31.978  13.685  0.00  0.00    +0.167 A 
ATOM     14  O   LIG    1       21.258 -32.914  13.180  0.00  0.00    -0.476 OA
ATOM     15  C   LIG    1       22.489 -32.184  12.904  0.00  0.00    +0.252 C 
ATOM     16  C   LIG    1       20.908 -30.700  13.684  0.00  0.00    +0.014 A 
ATOM     17  C   LIG    1       22.300 -30.686  13.180  0.00  0.00    +0.075 C 
ATOM     18  C   LIG    1       22.980 -32.486  11.504  0.00  0.00    +0.143 C 
ENDROOT
BRANCH   1  21
ATOM     19  N   LIG    1       24.246 -30.853   8.499  0.00  0.00    -0.298 N 
ATOM     20  H   LIG    1       23.950 -29.932   8.826  0.00  0.00    +0.150 HD
ATOM     21  C   LIG    1       24.212 -31.874   9.405  0.00  0.00    +0.244 C 
ATOM     22  O   LIG    1       24.596 -33.021   9.156  0.00  0.00    -0.270 OA
BRANCH  19  24
ATOM     23  C   LIG    1       26.126 -31.609   7.063  0.00  0.00    +0.041 C 
ATOM     24  C   LIG    1       24.745 -30.933   7.118  0.00  0.00    +0.108 C 
ATOM     25  C   LIG    1       23.768 -31.733   6.237  0.00  0.00    +0.041 C 
BRANCH  24  26
ATOM     26  C   LIG    1       24.851 -29.507   6.595  0.00  0.00    +0.251 A 
ATOM     27  O   LIG    1       24.914 -29.352   5.239  0.00  0.00    -0.335 OA
ATOM     28  N   LIG    1       24.942 -27.984   4.990  0.00  0.00    -0.056 NA
ATOM     29  C   LIG    1       24.897 -27.427   6.212  0.00  0.00    +0.202 A 
ATOM     30  N   LIG    1       24.864 -28.353   7.241  0.00  0.00    -0.190 NA
BRANCH  29  31
ATOM     31  C   LIG    1       24.846 -25.979   6.425  0.00  0.00    +0.022 A 
ATOM     32  C   LIG    1       26.025 -25.263   6.703  0.00  0.00    +0.012 A 
ATOM     33  C   LIG    1       25.995 -23.881   6.920  0.00  0.00    +0.001 A 
ATOM     34  C   LIG    1       24.786 -23.194   6.867  0.00  0.00    +0.000 A 
ATOM     35  C   LIG    1       23.608 -23.888   6.586  0.00  0.00    +0.001 A 
ATOM     36  C   LIG    1       23.638 -25.272   6.362  0.00  0.00    +0.012 A 
ENDBRANCH  29  31
ENDBRANCH  24  26
ENDBRANCH  19  24
ENDBRANCH   1  21
BRANCH  12  37
ATOM     37  O   LIG    1       18.556 -33.458  13.953  0.00  0.00    -0.503 OA
ATOM     38  H   LIG    1       17.745 -33.459  13.419  0.00  0.00    +0.292 HD
ENDBRANCH  12  37
BRANCH   3  39
ATOM     39  O   LIG    1       21.156 -30.003  11.033  0.00  0.00    -0.386 OA
ATOM     40  H   LIG    1       20.395 -30.353  11.527  0.00  0.00    +0.210 HD
ENDBRANCH   3  39
BRANCH  18  41
ATOM     41  O   LIG    1       22.730 -33.774  11.066  0.00  0.00    -0.507 OA
ATOM     42  H   LIG    1       21.810 -33.987  11.343  0.00  0.00    +0.292 HD
ENDBRANCH  18  41
BRANCH   5  43
ATOM     43  C   LIG    1       23.310 -26.472  13.532  0.00  0.00    +0.088 C 
BRANCH  43  44
ATOM     44  C   LIG    1       24.618 -26.038  14.141  0.00  0.00    +0.003 C 
ATOM     45  C   LIG    1       25.818 -25.802  13.252  0.00  0.00    +0.005 C 
ATOM     46  C   LIG    1       25.189 -24.648  13.979  0.00  0.00    +0.005 C 
ENDBRANCH  43  44
ENDBRANCH   5  43
TORSDOF 9
ENDMDL
MODEL 6
REMARK VINA RESULT:      -8.3      3.808     10.648
REMARK  Name = *****
REMARK                            x       y       z     vdW  Elec       q    Type
REMARK                         _______ _______ _______ _____ _____    ______ ____
ROOT
ATOM      1  C   LIG    1       24.829 -29.529   9.192  0.00  0.00    +0.058 C 
ATOM      2  C   LIG    1       23.447 -30.139   9.479  0.00  0.00    +0.081 C 
ATOM      3  C   LIG    1       23.524 -30.994  10.764  0.00  0.00    +0.100 C 
ATOM      4  C   LIG    1       22.215 -31.671  11.291  0.00  0.00    +0.094 C 
ATOM      5  N   LIG    1       21.161 -30.643  11.443  0.00  0.00    -0.296 NA
ATOM      6  C   LIG    1       21.488 -29.723  12.539  0.00  0.00    +0.086 C 
ATOM      7  C   LIG    1       22.882 -29.100  12.369  0.00  0.00    +0.034 C 
ATOM      8  C   LIG    1       22.519 -32.520  12.616  0.00  0.00    +0.057 C 
ATOM      9  C   LIG    1       23.795 -32.153  13.356  0.00  0.00    -0.038 A 
ATOM     10  C   LIG    1       24.452 -33.007  14.246  0.00  0.00    +0.008 A 
ATOM     11  C   LIG    1       25.780 -32.738  14.646  0.00  0.00    +0.049 A 
ATOM     12  C   LIG    1       26.469 -31.643  14.118  0.00  0.00    +0.159 A 
ATOM     13  C   LIG    1       25.798 -30.794  13.264  0.00  0.00    +0.167 A 
ATOM     14  O   LIG    1       26.378 -29.831  12.475  0.00  0.00    -0.476 OA
ATOM     15  C   LIG    1       25.294 -29.305  11.656  0.00  0.00    +0.252 C 
ATOM     16  C   LIG    1       24.465 -31.001  12.977  0.00  0.00    +0.014 A 
ATOM     17  C   LIG    1       23.996 -30.082  11.916  0.00  0.00    +0.075 C 
ATOM     18  C   LIG    1       25.700 -29.274  10.198  0.00  0.00    +0.143 C 
ENDROOT
BRANCH   1  21
ATOM     19  N   LIG    1       25.137 -28.067   7.280  0.00  0.00    -0.298 N 
ATOM     20  H   LIG    1       24.997 -27.326   7.969  0.00  0.00    +0.150 HD
ATOM     21  C   LIG    1       25.173 -29.350   7.745  0.00  0.00    +0.244 C 
ATOM     22  O   LIG    1       25.392 -30.330   7.028  0.00  0.00    -0.270 OA
BRANCH  19  24
ATOM     23  C   LIG    1       26.693 -28.194   5.348  0.00  0.00    +0.041 C 
ATOM     24  C   LIG    1       25.365 -27.639   5.891  0.00  0.00    +0.108 C 
ATOM     25  C   LIG    1       24.219 -28.124   4.983  0.00  0.00    +0.041 C 
BRANCH  24  26
ATOM     26  C   LIG    1       25.407 -26.117   5.890  0.00  0.00    +0.251 A 
ATOM     27  O   LIG    1       24.929 -25.490   4.775  0.00  0.00    -0.335 OA
ATOM     28  N   LIG    1       25.005 -24.123   5.018  0.00  0.00    -0.056 NA
ATOM     29  C   LIG    1       25.523 -24.037   6.254  0.00  0.00    +0.202 A 
ATOM     30  N   LIG    1       25.809 -25.268   6.820  0.00  0.00    -0.190 NA
BRANCH  29  31
ATOM     31  C   LIG    1       25.725 -22.762   6.946  0.00  0.00    +0.022 A 
ATOM     32  C   LIG    1       27.025 -22.320   7.250  0.00  0.00    +0.012 A 
ATOM     33  C   LIG    1       27.237 -21.110   7.920  0.00  0.00    +0.001 A 
ATOM     34  C   LIG    1       26.152 -20.325   8.300  0.00  0.00    +0.000 A 
ATOM     35  C   LIG    1       24.856 -20.746   8.001  0.00  0.00    +0.001 A 
ATOM     36  C   LIG    1       24.642 -21.955   7.324  0.00  0.00    +0.012 A 
ENDBRANCH  29  31
ENDBRANCH  24  26
ENDBRANCH  19  24
ENDBRANCH   1  21
BRANCH  12  37
ATOM     37  O   LIG    1       27.792 -31.440  14.375  0.00  0.00    -0.503 OA
ATOM     38  H   LIG    1       28.243 -32.300  14.381  0.00  0.00    +0.292 HD
ENDBRANCH  12  37
BRANCH   3  39
ATOM     39  O   LIG    1       24.413 -32.101  10.455  0.00  0.00    -0.386 OA
ATOM     40  H   LIG    1       24.881 -32.387  11.257  0.00  0.00    +0.210 HD
ENDBRANCH   3  39
BRANCH  18  41
ATOM     41  O   LIG    1       27.039 -29.007   9.973  0.00  0.00    -0.507 OA
ATOM     42  H   LIG    1       27.092 -28.580   9.089  0.00  0.00    +0.292 HD
ENDBRANCH  18  41
BRANCH   5  43
ATOM     43  C   LIG    1       19.804 -31.193  11.594  0.00  0.00    +0.088 C 
BRANCH  43  44
ATOM     44  C   LIG    1       19.199 -31.654  10.295  0.00  0.00    +0.003 C 
ATOM     45  C   LIG    1       18.021 -32.602  10.311  0.00  0.00    +0.005 C 
ATOM     46  C   LIG    1       17.844 -31.200   9.803  0.00  0.00    +0.005 C 
ENDBRANCH  43  44
ENDBRANCH   5  43
TORSDOF 9
ENDMDL
MODEL 7
REMARK VINA RESULT:      -7.9      2.438      9.129
REMARK  Name = *****
REMARK                            x       y       z     vdW  Elec       q    Type
REMARK                         _______ _______ _______ _____ _____    ______ ____
ROOT
ATOM      1  C   LIG    1       25.538 -28.089   6.497  0.00  0.00    +0.058 C 
ATOM      2  C   LIG    1       25.694 -28.149   8.025  0.00  0.00    +0.081 C 
ATOM      3  C   LIG    1       24.963 -29.399   8.564  0.00  0.00    +0.100 C 
ATOM      4  C   LIG    1       25.036 -29.704  10.097  0.00  0.00    +0.094 C 
ATOM      5  N   LIG    1       26.453 -29.738  10.522  0.00  0.00    -0.296 NA
ATOM      6  C   LIG    1       27.138 -30.903   9.949  0.00  0.00    +0.086 C 
ATOM      7  C   LIG    1       26.991 -30.961   8.421  0.00  0.00    +0.034 C 
ATOM      8  C   LIG    1       24.200 -31.027  10.445  0.00  0.00    +0.057 C 
ATOM      9  C   LIG    1       23.925 -31.958   9.275  0.00  0.00    -0.038 A 
ATOM     10  C   LIG    1       22.894 -32.902   9.258  0.00  0.00    +0.008 A 
ATOM     11  C   LIG    1       22.494 -33.502   8.043  0.00  0.00    +0.049 A 
ATOM     12  C   LIG    1       23.090 -33.120   6.837  0.00  0.00    +0.159 A 
ATOM     13  C   LIG    1       24.124 -32.210   6.874  0.00  0.00    +0.167 A 
ATOM     14  O   LIG    1       24.647 -31.549   5.790  0.00  0.00    -0.476 OA
ATOM     15  C   LIG    1       25.603 -30.601   6.345  0.00  0.00    +0.252 C 
ATOM     16  C   LIG    1       24.585 -31.724   8.080  0.00  0.00    +0.014 A 
ATOM     17  C   LIG    1       25.572 -30.640   7.879  0.00  0.00    +0.075 C 
ATOM     18  C   LIG    1       25.373 -29.219   5.769  0.00  0.00    +0.143 C 
ENDROOT
BRANCH   1  21
ATOM     19  N   LIG    1       24.651 -25.830   6.546  0.00  0.00    -0.298 N 
ATOM     20  H   LIG    1       24.249 -26.131   7.435  0.00  0.00    +0.150 HD
ATOM     21  C   LIG    1       25.468 -26.715   5.903  0.00  0.00    +0.244 C 
ATOM     22  O   LIG    1       26.063 -26.457   4.853  0.00  0.00    -0.270 OA
BRANCH  19  24
ATOM     23  C   LIG    1       24.439 -24.309   4.594  0.00  0.00    +0.041 C 
ATOM     24  C   LIG    1       24.360 -24.452   6.124  0.00  0.00    +0.108 C 
ATOM     25  C   LIG    1       22.952 -24.033   6.588  0.00  0.00    +0.041 C 
BRANCH  24  26
ATOM     26  C   LIG    1       25.400 -23.552   6.777  0.00  0.00    +0.251 A 
ATOM     27  O   LIG    1       25.587 -23.703   8.121  0.00  0.00    -0.335 OA
ATOM     28  N   LIG    1       26.612 -22.837   8.486  0.00  0.00    -0.056 NA
ATOM     29  C   LIG    1       26.957 -22.233   7.336  0.00  0.00    +0.202 A 
ATOM     30  N   LIG    1       26.201 -22.640   6.250  0.00  0.00    -0.190 NA
BRANCH  29  31
ATOM     31  C   LIG    1       28.055 -21.269   7.241  0.00  0.00    +0.022 A 
ATOM     32  C   LIG    1       27.991 -20.213   6.314  0.00  0.00    +0.012 A 
ATOM     33  C   LIG    1       29.035 -19.288   6.201  0.00  0.00    +0.001 A 
ATOM     34  C   LIG    1       30.161 -19.407   7.011  0.00  0.00    +0.000 A 
ATOM     35  C   LIG    1       30.237 -20.445   7.939  0.00  0.00    +0.001 A 
ATOM     36  C   LIG    1       29.189 -21.369   8.058  0.00  0.00    +0.012 A 
ENDBRANCH  29  31
ENDBRANCH  24  26
ENDBRANCH  19  24
ENDBRANCH   1  21
BRANCH  12  37
ATOM     37  O   LIG    1       22.629 -33.575   5.638  0.00  0.00    -0.503 OA
ATOM     38  H   LIG    1       22.941 -32.979   4.939  0.00  0.00    +0.292 HD
ENDBRANCH  12  37
BRANCH   3  39
ATOM     39  O   LIG    1       23.552 -29.182   8.298  0.00  0.00    -0.386 OA
ATOM     40  H   LIG    1       23.072 -30.026   8.330  0.00  0.00    +0.210 HD
ENDBRANCH   3  39
BRANCH  18  41
ATOM     41  O   LIG    1       24.941 -29.203   4.454  0.00  0.00    -0.507 OA
ATOM     42  H   LIG    1       24.193 -28.564   4.417  0.00  0.00    +0.292 HD
ENDBRANCH  18  41
BRANCH   5  43
ATOM     43  C   LIG    1       26.645 -29.669  11.979  0.00  0.00    +0.088 C 
BRANCH  43  44
ATOM     44  C   LIG    1       26.153 -28.382  12.586  0.00  0.00    +0.003 C 
ATOM     45  C   LIG    1       27.018 -27.644  13.584  0.00  0.00    +0.005 C 
ATOM     46  C   LIG    1       26.732 -27.029  12.245  0.00  0.00    +0.005 C 
ENDBRANCH  43  44
ENDBRANCH   5  43
TORSDOF 9
ENDMDL
MODEL 8
REMARK VINA RESULT:      -7.7      3.131      9.437
REMARK  Name = *****
REMARK                            x       y       z     vdW  Elec       q    Type
REMARK                         _______ _______ _______ _____ _____    ______ ____
ROOT
ATOM      1  C   LIG    1       24.885 -30.766   9.834  0.00  0.00    +0.058 C 
ATOM      2  C   LIG    1       25.991 -30.512  10.873  0.00  0.00    +0.081 C 
ATOM      3  C   LIG    1       25.367 -29.878  12.136  0.00  0.00    +0.100 C 
ATOM      4  C   LIG    1       26.296 -29.584  13.361  0.00  0.00    +0.094 C 
ATOM      5  N   LIG    1       27.020 -30.821  13.733  0.00  0.00    -0.296 NA
ATOM      6  C   LIG    1       26.094 -31.816  14.288  0.00  0.00    +0.086 C 
ATOM      7  C   LIG    1       24.919 -32.097  13.340  0.00  0.00    +0.034 C 
ATOM      8  C   LIG    1       25.458 -28.915  14.552  0.00  0.00    +0.057 C 
ATOM      9  C   LIG    1       23.952 -29.121  14.495  0.00  0.00    -0.038 A 
ATOM     10  C   LIG    1       23.029 -28.302  15.151  0.00  0.00    +0.008 A 
ATOM     11  C   LIG    1       21.660 -28.348  14.805  0.00  0.00    +0.049 A 
ATOM     12  C   LIG    1       21.221 -29.175  13.767  0.00  0.00    +0.159 A 
ATOM     13  C   LIG    1       22.139 -29.998  13.149  0.00  0.00    +0.167 A 
ATOM     14  O   LIG    1       21.938 -30.677  11.973  0.00  0.00    -0.476 OA
ATOM     15  C   LIG    1       23.226 -31.280  11.656  0.00  0.00    +0.252 C 
ATOM     16  C   LIG    1       23.449 -30.030  13.579  0.00  0.00    +0.014 A 
ATOM     17  C   LIG    1       24.289 -30.844  12.673  0.00  0.00    +0.075 C 
ATOM     18  C   LIG    1       23.606 -30.990  10.219  0.00  0.00    +0.143 C 
ENDROOT
BRANCH   1  21
ATOM     19  N   LIG    1       24.696 -29.630   7.698  0.00  0.00    -0.298 N 
ATOM     20  H   LIG    1       24.109 -28.981   8.225  0.00  0.00    +0.150 HD
ATOM     21  C   LIG    1       25.298 -30.634   8.400  0.00  0.00    +0.244 C 
ATOM     22  O   LIG    1       26.076 -31.449   7.896  0.00  0.00    -0.270 OA
BRANCH  19  24
ATOM     23  C   LIG    1       26.074 -30.115   5.689  0.00  0.00    +0.041 C 
ATOM     24  C   LIG    1       24.877 -29.340   6.267  0.00  0.00    +0.108 C 
ATOM     25  C   LIG    1       23.612 -29.722   5.476  0.00  0.00    +0.041 C 
BRANCH  24  26
ATOM     26  C   LIG    1       25.125 -27.844   6.139  0.00  0.00    +0.251 A 
ATOM     27  O   LIG    1       25.852 -27.431   5.059  0.00  0.00    -0.335 OA
ATOM     28  N   LIG    1       25.899 -26.042   5.111  0.00  0.00    -0.056 NA
ATOM     29  C   LIG    1       25.201 -25.731   6.216  0.00  0.00    +0.202 A 
ATOM     30  N   LIG    1       24.722 -26.838   6.897  0.00  0.00    -0.190 NA
BRANCH  29  31
ATOM     31  C   LIG    1       24.940 -24.351   6.631  0.00  0.00    +0.022 A 
ATOM     32  C   LIG    1       26.001 -23.523   7.041  0.00  0.00    +0.012 A 
ATOM     33  C   LIG    1       25.771 -22.206   7.452  0.00  0.00    +0.001 A 
ATOM     34  C   LIG    1       24.476 -21.696   7.462  0.00  0.00    +0.000 A 
ATOM     35  C   LIG    1       23.413 -22.502   7.052  0.00  0.00    +0.001 A 
ATOM     36  C   LIG    1       23.643 -23.820   6.634  0.00  0.00    +0.012 A 
ENDBRANCH  29  31
ENDBRANCH  24  26
ENDBRANCH  19  24
ENDBRANCH   1  21
BRANCH  12  37
ATOM     37  O   LIG    1       19.936 -29.135  13.318  0.00  0.00    -0.503 OA
ATOM     38  H   LIG    1       19.368 -28.800  14.030  0.00  0.00    +0.292 HD
ENDBRANCH  12  37
BRANCH   3  39
ATOM     39  O   LIG    1       24.873 -28.575  11.727  0.00  0.00    -0.386 OA
ATOM     40  H   LIG    1       23.995 -28.664  11.321  0.00  0.00    +0.210 HD
ENDBRANCH   3  39
BRANCH  18  41
ATOM     41  O   LIG    1       22.541 -30.931   9.338  0.00  0.00    -0.507 OA
ATOM     42  H   LIG    1       22.705 -31.625   8.659  0.00  0.00    +0.292 HD
ENDBRANCH  18  41
BRANCH   5  43
ATOM     43  C   LIG    1       28.165 -30.599  14.630  0.00  0.00    +0.088 C 
BRANCH  43  44
ATOM     44  C   LIG    1       29.095 -29.515  14.153  0.00  0.00    +0.003 C 
ATOM     45  C   LIG    1       30.592 -29.709  14.260  0.00  0.00    +0.005 C 
ATOM     46  C   LIG    1       29.942 -29.635  12.908  0.00  0.00    +0.005 C 
ENDBRANCH  43  44
ENDBRANCH   5  43
TORSDOF 9
ENDMDL
MODEL 9
REMARK VINA RESULT:      -7.6      3.390      9.677
REMARK  Name = *****
REMARK                            x       y       z     vdW  Elec       q    Type
REMARK                         _______ _______ _______ _____ _____    ______ ____
ROOT
ATOM      1  C   LIG    1       24.961 -29.728   8.847  0.00  0.00    +0.058 C 
ATOM      2  C   LIG    1       25.368 -29.601  10.325  0.00  0.00    +0.081 C 
ATOM      3  C   LIG    1       24.239 -30.167  11.215  0.00  0.00    +0.100 C 
ATOM      4  C   LIG    1       24.455 -30.200  12.765  0.00  0.00    +0.094 C 
ATOM      5  N   LIG    1       25.723 -30.901  13.067  0.00  0.00    -0.296 NA
ATOM      6  C   LIG    1       25.614 -32.330  12.746  0.00  0.00    +0.086 C 
ATOM      7  C   LIG    1       25.157 -32.560  11.298  0.00  0.00    +0.034 C 
ATOM      8  C   LIG    1       23.164 -30.805  13.498  0.00  0.00    +0.057 C 
ATOM      9  C   LIG    1       22.238 -31.635  12.622  0.00  0.00    -0.038 A 
ATOM     10  C   LIG    1       20.896 -31.883  12.925  0.00  0.00    +0.008 A 
ATOM     11  C   LIG    1       20.020 -32.378  11.934  0.00  0.00    +0.049 A 
ATOM     12  C   LIG    1       20.473 -32.578  10.626  0.00  0.00    +0.159 A 
ATOM     13  C   LIG    1       21.805 -32.356  10.351  0.00  0.00    +0.167 A 
ATOM     14  O   LIG    1       22.358 -32.264   9.097  0.00  0.00    -0.476 OA
ATOM     15  C   LIG    1       23.746 -31.882   9.319  0.00  0.00    +0.252 C 
ATOM     16  C   LIG    1       22.675 -31.989  11.356  0.00  0.00    +0.014 A 
ATOM     17  C   LIG    1       24.006 -31.639  10.812  0.00  0.00    +0.075 C 
ATOM     18  C   LIG    1       24.118 -30.707   8.439  0.00  0.00    +0.143 C 
ENDROOT
BRANCH   1  21
ATOM     19  N   LIG    1       24.924 -28.628   6.685  0.00  0.00    -0.298 N 
ATOM     20  H   LIG    1       24.150 -29.268   6.501  0.00  0.00    +0.150 HD
ATOM     21  C   LIG    1       25.461 -28.647   7.940  0.00  0.00    +0.244 C 
ATOM     22  O   LIG    1       26.361 -27.886   8.309  0.00  0.00    -0.270 OA
BRANCH  19  24
ATOM     23  C   LIG    1       26.808 -27.782   5.304  0.00  0.00    +0.041 C 
ATOM     24  C   LIG    1       25.298 -27.716   5.593  0.00  0.00    +0.108 C 
ATOM     25  C   LIG    1       24.533 -28.075   4.305  0.00  0.00    +0.041 C 
BRANCH  24  26
ATOM     26  C   LIG    1       24.921 -26.308   6.033  0.00  0.00    +0.251 A 
ATOM     27  O   LIG    1       23.589 -26.045   6.175  0.00  0.00    -0.335 OA
ATOM     28  N   LIG    1       23.484 -24.738   6.639  0.00  0.00    -0.056 NA
ATOM     29  C   LIG    1       24.757 -24.320   6.735  0.00  0.00    +0.202 A 
ATOM     30  N   LIG    1       25.682 -25.271   6.341  0.00  0.00    -0.190 NA
BRANCH  29  31
ATOM     31  C   LIG    1       25.125 -22.999   7.248  0.00  0.00    +0.022 A 
ATOM     32  C   LIG    1       24.164 -21.974   7.319  0.00  0.00    +0.012 A 
ATOM     33  C   LIG    1       24.499 -20.702   7.796  0.00  0.00    +0.001 A 
ATOM     34  C   LIG    1       25.801 -20.434   8.207  0.00  0.00    +0.000 A 
ATOM     35  C   LIG    1       26.765 -21.441   8.150  0.00  0.00    +0.001 A 
ATOM     36  C   LIG    1       26.429 -22.718   7.678  0.00  0.00    +0.012 A 
ENDBRANCH  29  31
ENDBRANCH  24  26
ENDBRANCH  19  24
ENDBRANCH   1  21
BRANCH  12  37
ATOM     37  O   LIG    1       19.619 -32.917   9.620  0.00  0.00    -0.503 OA
ATOM     38  H   LIG    1       19.018 -33.608   9.941  0.00  0.00    +0.292 HD
ENDBRANCH  12  37
BRANCH   3  39
ATOM     39  O   LIG    1       23.098 -29.290  11.020  0.00  0.00    -0.386 OA
ATOM     40  H   LIG    1       22.291 -29.710  11.362  0.00  0.00    +0.210 HD
ENDBRANCH   3  39
BRANCH  18  41
ATOM     41  O   LIG    1       23.498 -30.689   7.202  0.00  0.00    -0.507 OA
ATOM     42  H   LIG    1       23.378 -29.741   6.966  0.00  0.00    +0.292 HD
ENDBRANCH  18  41
BRANCH   5  43
ATOM     43  C   LIG    1       26.209 -30.698  14.440  0.00  0.00    +0.088 C 
BRANCH  43  44
ATOM     44  C   LIG    1       27.011 -29.434  14.609  0.00  0.00    +0.003 C 
ATOM     45  C   LIG    1       28.522 -29.499  14.616  0.00  0.00    +0.005 C 
ATOM     46  C   LIG    1       27.809 -28.802  13.493  0.00  0.00    +0.005 C 
ENDBRANCH  43  44
ENDBRANCH   5  43
TORSDOF 9
ENDMDL
