MODEL 1
REMARK VINA RESULT:      -2.7      0.000      0.000
REMARK  Name = *****
REMARK                            x       y       z     vdW  Elec       q    Type
REMARK                         _______ _______ _______ _____ _____    ______ ____
ROOT
ATOM      1  N   LIG    1       28.032 -13.951   4.223  0.00  0.00    -0.313 N 
ATOM      2  H   LIG    1       27.483 -13.162   4.534  0.00  0.00    +0.146 HD
ATOM      3  H   LIG    1       28.983 -13.986   4.564  0.00  0.00    +0.146 HD
ATOM      4  C   LIG    1       27.425 -15.174   4.157  0.00  0.00    +0.308 C 
ATOM      5  N   LIG    1       26.046 -15.168   3.896  0.00  0.00    -0.224 N 
ATOM      6  C   LIG    1       25.300 -16.402   3.776  0.00  0.00    +0.053 A 
ATOM      7  C   LIG    1       23.947 -16.572   4.155  0.00  0.00    +0.040 A 
ATOM      8  C   LIG    1       23.305 -17.812   3.934  0.00  0.00    +0.013 A 
ATOM      9  C   LIG    1       23.976 -18.887   3.356  0.00  0.00    +0.001 A 
ATOM     10  C   LIG    1       25.301 -18.737   2.989  0.00  0.00    +0.002 A 
ATOM     11  C   LIG    1       23.118 -15.560   4.883  0.00  0.00    +0.169 C 
ATOM     12  O   LIG    1       21.962 -15.832   5.214  0.00  0.00    -0.292 OA
ATOM     13  C   LIG    1       23.716 -14.234   5.256  0.00  0.00    +0.116 C 
ATOM     14  C   LIG    1       24.236 -13.519   4.048  0.00  0.00    -0.018 A 
ATOM     15  C   LIG    1       23.598 -12.368   3.564  0.00  0.00    +0.006 A 
ATOM     16  C   LIG    1       24.103 -11.696   2.453  0.00  0.00    +0.000 A 
ATOM     17  C   LIG    1       25.246 -12.169   1.815  0.00  0.00    +0.002 A 
ATOM     18  C   LIG    1       25.881 -13.317   2.288  0.00  0.00    +0.024 A 
ATOM     19  C   LIG    1       25.948 -17.516   3.195  0.00  0.00    +0.024 A 
ATOM     20  C   LIG    1       25.378 -14.006   3.404  0.00  0.00    +0.046 A 
ATOM     21  O   LIG    1       28.122 -16.156   4.405  0.00  0.00    -0.252 OA
ENDROOT
TORSDOF 0
ENDMDL
MODEL 2
REMARK VINA RESULT:      -2.6      3.137      5.344
REMARK  Name = *****
REMARK                            x       y       z     vdW  Elec       q    Type
REMARK                         _______ _______ _______ _____ _____    ______ ____
ROOT
ATOM      1  N   LIG    1       20.886 -18.225   3.092  0.00  0.00    -0.313 N 
ATOM      2  H   LIG    1       21.482 -17.641   2.520  0.00  0.00    +0.146 HD
ATOM      3  H   LIG    1       20.026 -18.532   2.657  0.00  0.00    +0.146 HD
ATOM      4  C   LIG    1       21.474 -19.173   3.881  0.00  0.00    +0.308 C 
ATOM      5  N   LIG    1       22.769 -18.883   4.337  0.00  0.00    -0.224 N 
ATOM      6  C   LIG    1       23.483 -19.798   5.201  0.00  0.00    +0.053 A 
ATOM      7  C   LIG    1       24.886 -19.983   5.206  0.00  0.00    +0.040 A 
ATOM      8  C   LIG    1       25.476 -20.865   6.140  0.00  0.00    +0.013 A 
ATOM      9  C   LIG    1       24.708 -21.572   7.061  0.00  0.00    +0.001 A 
ATOM     10  C   LIG    1       23.334 -21.408   7.061  0.00  0.00    +0.002 A 
ATOM     11  C   LIG    1       25.841 -19.387   4.220  0.00  0.00    +0.169 C 
ATOM     12  O   LIG    1       27.042 -19.657   4.282  0.00  0.00    -0.292 OA
ATOM     13  C   LIG    1       25.324 -18.502   3.121  0.00  0.00    +0.116 C 
ATOM     14  C   LIG    1       24.561 -17.342   3.678  0.00  0.00    -0.018 A 
ATOM     15  C   LIG    1       25.077 -16.040   3.605  0.00  0.00    +0.006 A 
ATOM     16  C   LIG    1       24.349 -14.963   4.105  0.00  0.00    +0.000 A 
ATOM     17  C   LIG    1       23.102 -15.177   4.685  0.00  0.00    +0.002 A 
ATOM     18  C   LIG    1       22.585 -16.470   4.767  0.00  0.00    +0.024 A 
ATOM     19  C   LIG    1       22.735 -20.535   6.149  0.00  0.00    +0.024 A 
ATOM     20  C   LIG    1       23.313 -17.564   4.270  0.00  0.00    +0.046 A 
ATOM     21  O   LIG    1       20.850 -20.218   4.055  0.00  0.00    -0.252 OA
ENDROOT
TORSDOF 0
ENDMDL
MODEL 3
REMARK VINA RESULT:       0.1      3.253      5.260
REMARK  Name = *****
REMARK                            x       y       z     vdW  Elec       q    Type
REMARK                         _______ _______ _______ _____ _____    ______ ____
ROOT
ATOM      1  N   LIG    1       23.039 -19.783   2.422  0.00  0.00    -0.313 N 
ATOM      2  H   LIG    1       23.301 -18.917   1.969  0.00  0.00    +0.146 HD
ATOM      3  H   LIG    1       22.562 -20.456   1.838  0.00  0.00    +0.146 HD
ATOM      4  C   LIG    1       23.922 -20.344   3.302  0.00  0.00    +0.308 C 
ATOM      5  N   LIG    1       24.765 -19.455   3.985  0.00  0.00    -0.224 N 
ATOM      6  C   LIG    1       25.722 -19.928   4.962  0.00  0.00    +0.053 A 
ATOM      7  C   LIG    1       26.980 -19.335   5.220  0.00  0.00    +0.040 A 
ATOM      8  C   LIG    1       27.807 -19.854   6.243  0.00  0.00    +0.013 A 
ATOM      9  C   LIG    1       27.418 -20.950   7.008  0.00  0.00    +0.001 A 
ATOM     10  C   LIG    1       26.194 -21.546   6.761  0.00  0.00    +0.002 A 
ATOM     11  C   LIG    1       27.594 -18.226   4.424  0.00  0.00    +0.169 C 
ATOM     12  O   LIG    1       28.723 -17.817   4.702  0.00  0.00    -0.292 OA
ATOM     13  C   LIG    1       26.852 -17.649   3.252  0.00  0.00    +0.116 C 
ATOM     14  C   LIG    1       25.507 -17.138   3.665  0.00  0.00    -0.018 A 
ATOM     15  C   LIG    1       25.238 -15.763   3.689  0.00  0.00    +0.006 A 
ATOM     16  C   LIG    1       23.975 -15.297   4.053  0.00  0.00    +0.000 A 
ATOM     17  C   LIG    1       22.975 -16.201   4.398  0.00  0.00    +0.002 A 
ATOM     18  C   LIG    1       23.238 -17.570   4.381  0.00  0.00    +0.024 A 
ATOM     19  C   LIG    1       25.363 -21.041   5.757  0.00  0.00    +0.024 A 
ATOM     20  C   LIG    1       24.508 -18.050   4.022  0.00  0.00    +0.046 A 
ATOM     21  O   LIG    1       23.947 -21.572   3.358  0.00  0.00    -0.252 OA
ENDROOT
TORSDOF 0
ENDMDL
