MODEL 1
REMARK VINA RESULT:      -0.9      0.000      0.000
REMARK  Name = *****
REMARK                            x       y       z     vdW  Elec       q    Type
REMARK                         _______ _______ _______ _____ _____    ______ ____
ROOT
ATOM      1  C   LIG    1       26.625 -31.957   6.029  0.00  0.00    +0.176 C 
ATOM      2  O   LIG    1       25.623 -31.808   7.068  0.00  0.00    -0.461 OA
ATOM      3  C   LIG    1       26.109 -31.713   8.329  0.00  0.00    +0.308 C 
ATOM      4  O   LIG    1       27.309 -31.808   8.634  0.00  0.00    -0.251 OA
ATOM      5  C   LIG    1       25.039 -31.471   9.379  0.00  0.00    +0.129 C 
ATOM      6  C   LIG    1       24.518 -30.017   9.499  0.00  0.00    +0.040 C 
ATOM      7  C   LIG    1       25.714 -29.152   9.256  0.00  0.00    -0.004 C 
ATOM      8  C   LIG    1       26.411 -28.963  10.399  0.00  0.00    -0.015 C 
ATOM      9  C   LIG    1       25.489 -29.145  11.584  0.00  0.00    +0.023 C 
ATOM     10  C   LIG    1       25.518 -30.123  12.782  0.00  0.00    +0.006 C 
ATOM     11  C   LIG    1       24.446 -29.595  13.777  0.00  0.00    +0.021 C 
ATOM     12  C   LIG    1       24.270 -30.789  14.723  0.00  0.00    +0.040 C 
ATOM     13  C   LIG    1       24.138 -31.983  13.785  0.00  0.00    +0.122 C 
ATOM     14  C   LIG    1       23.138 -29.213  13.072  0.00  0.00    -0.073 C 
ATOM     15  C   LIG    1       22.124 -28.503  13.920  0.00  0.00    +0.039 C 
ATOM     16  C   LIG    1       22.961 -29.350  11.737  0.00  0.00    -0.023 C 
ATOM     17  C   LIG    1       25.110 -31.619  12.641  0.00  0.00    +0.036 C 
ATOM     18  C   LIG    1       25.979 -28.470   7.973  0.00  0.00    +0.165 C 
ATOM     19  O   LIG    1       27.146 -28.442   7.579  0.00  0.00    -0.292 OA
ATOM     20  C   LIG    1       24.863 -27.632   7.287  0.00  0.00    +0.086 C 
ATOM     21  C   LIG    1       23.377 -27.831   7.608  0.00  0.00    +0.018 C 
ATOM     22  C   LIG    1       25.026 -27.651   5.741  0.00  0.00    +0.132 C 
ATOM     23  C   LIG    1       24.904 -29.096   5.180  0.00  0.00    +0.032 C 
ATOM     24  C   LIG    1       26.202 -29.773   4.748  0.00  0.00    +0.006 C 
ATOM     25  C   LIG    1       24.157 -29.276  10.830  0.00  0.00    +0.027 C 
ATOM     26  C   LIG    1       26.099 -31.307   4.736  0.00  0.00    +0.045 C 
ENDROOT
BRANCH   1  28
ATOM     27  C   LIG    1       28.405 -33.825   5.833  0.00  0.00    +0.007 C 
ATOM     28  C   LIG    1       26.936 -33.442   5.746  0.00  0.00    +0.041 C 
ENDBRANCH   1  28
BRANCH  13  29
ATOM     29  O   LIG    1       22.845 -32.145  13.175  0.00  0.00    -0.345 OA
BRANCH  29  30
ATOM     30  C   LIG    1       21.747 -32.375  14.064  0.00  0.00    +0.282 C 
ATOM     31  C   LIG    1       20.853 -31.101  14.039  0.00  0.00    +0.205 C 
ATOM     32  C   LIG    1       19.787 -31.295  12.943  0.00  0.00    +0.182 C 
ATOM     33  C   LIG    1       18.887 -32.511  13.305  0.00  0.00    +0.178 C 
ATOM     34  C   LIG    1       19.694 -33.646  13.991  0.00  0.00    +0.150 C 
ATOM     35  C   LIG    1       19.449 -33.821  15.491  0.00  0.00    +0.040 C 
ATOM     36  O   LIG    1       21.087 -33.574  13.684  0.00  0.00    -0.343 OA
BRANCH  31  37
ATOM     37  O   LIG    1       20.149 -30.840  15.276  0.00  0.00    -0.372 OA
ATOM     38  C   LIG    1       19.811 -29.480  15.495  0.00  0.00    +0.194 C 
ENDBRANCH  31  37
BRANCH  32  39
ATOM     39  O   LIG    1       18.934 -30.134  12.776  0.00  0.00    -0.374 OA
ATOM     40  C   LIG    1       17.542 -30.424  12.790  0.00  0.00    +0.194 C 
ENDBRANCH  32  39
BRANCH  33  41
ATOM     41  O   LIG    1       18.313 -33.122  12.121  0.00  0.00    -0.375 OA
ATOM     42  C   LIG    1       19.180 -33.195  11.001  0.00  0.00    +0.194 C 
ENDBRANCH  33  41
ENDBRANCH  29  30
ENDBRANCH  13  29
BRANCH  22  43
ATOM     43  O   LIG    1       26.194 -26.965   5.263  0.00  0.00    -0.347 OA
BRANCH  43  44
ATOM     44  C   LIG    1       26.050 -25.540   5.259  0.00  0.00    +0.251 C 
ATOM     45  O   LIG    1       26.140 -25.037   6.580  0.00  0.00    -0.347 OA
ATOM     46  C   LIG    1       26.184 -23.608   6.683  0.00  0.00    +0.135 C 
ATOM     47  C   LIG    1       26.072 -23.382   8.198  0.00  0.00    +0.039 C 
ATOM     48  C   LIG    1       25.064 -22.854   5.870  0.00  0.00    +0.085 C 
ATOM     49  C   LIG    1       24.697 -23.614   4.562  0.00  0.00    +0.026 C 
ATOM     50  C   LIG    1       24.706 -25.134   4.703  0.00  0.00    +0.063 C 
BRANCH  48  51
ATOM     51  N   LIG    1       25.396 -21.427   5.543  0.00  0.00    -0.303 NA
ATOM     52  C   LIG    1       24.207 -20.619   5.241  0.00  0.00    +0.105 C 
ATOM     53  C   LIG    1       26.164 -20.743   6.587  0.00  0.00    +0.105 C 
ENDBRANCH  48  51
ENDBRANCH  43  44
ENDBRANCH  22  43
TORSDOF 9
ENDMDL
MODEL 2
REMARK VINA RESULT:      -0.8      3.238      7.093
REMARK  Name = *****
REMARK                            x       y       z     vdW  Elec       q    Type
REMARK                         _______ _______ _______ _____ _____    ______ ____
ROOT
ATOM      1  C   LIG    1       22.841 -21.909   5.632  0.00  0.00    +0.176 C 
ATOM      2  O   LIG    1       23.033 -23.077   6.472  0.00  0.00    -0.461 OA
ATOM      3  C   LIG    1       23.437 -24.194   5.823  0.00  0.00    +0.308 C 
ATOM      4  O   LIG    1       23.584 -24.285   4.594  0.00  0.00    -0.251 OA
ATOM      5  C   LIG    1       23.712 -25.370   6.746  0.00  0.00    +0.129 C 
ATOM      6  C   LIG    1       25.067 -25.347   7.495  0.00  0.00    +0.040 C 
ATOM      7  C   LIG    1       26.040 -24.752   6.527  0.00  0.00    -0.004 C 
ATOM      8  C   LIG    1       26.544 -25.702   5.708  0.00  0.00    -0.015 C 
ATOM      9  C   LIG    1       26.455 -27.050   6.388  0.00  0.00    +0.023 C 
ATOM     10  C   LIG    1       25.739 -28.364   6.000  0.00  0.00    +0.006 C 
ATOM     11  C   LIG    1       26.279 -29.441   6.983  0.00  0.00    +0.021 C 
ATOM     12  C   LIG    1       25.274 -30.582   6.793  0.00  0.00    +0.040 C 
ATOM     13  C   LIG    1       23.917 -29.891   6.849  0.00  0.00    +0.122 C 
ATOM     14  C   LIG    1       26.319 -28.935   8.431  0.00  0.00    -0.073 C 
ATOM     15  C   LIG    1       27.016 -29.829   9.414  0.00  0.00    +0.039 C 
ATOM     16  C   LIG    1       25.905 -27.695   8.784  0.00  0.00    -0.023 C 
ATOM     17  C   LIG    1       24.199 -28.544   6.148  0.00  0.00    +0.036 C 
ATOM     18  C   LIG    1       26.497 -23.350   6.590  0.00  0.00    +0.165 C 
ATOM     19  O   LIG    1       26.624 -22.748   5.522  0.00  0.00    -0.292 OA
ATOM     20  C   LIG    1       27.012 -22.754   7.931  0.00  0.00    +0.086 C 
ATOM     21  C   LIG    1       26.657 -23.370   9.289  0.00  0.00    +0.018 C 
ATOM     22  C   LIG    1       26.724 -21.228   8.008  0.00  0.00    +0.132 C 
ATOM     23  C   LIG    1       25.197 -20.939   7.951  0.00  0.00    +0.032 C 
ATOM     24  C   LIG    1       24.653 -20.392   6.635  0.00  0.00    +0.006 C 
ATOM     25  C   LIG    1       25.985 -26.584   7.775  0.00  0.00    +0.027 C 
ATOM     26  C   LIG    1       23.147 -20.647   6.460  0.00  0.00    +0.045 C 
ENDROOT
BRANCH   1  28
ATOM     27  C   LIG    1       21.068 -20.558   4.317  0.00  0.00    +0.007 C 
ATOM     28  C   LIG    1       21.393 -21.818   5.106  0.00  0.00    +0.041 C 
ENDBRANCH   1  28
BRANCH  13  29
ATOM     29  O   LIG    1       23.450 -29.563   8.171  0.00  0.00    -0.345 OA
BRANCH  29  30
ATOM     30  C   LIG    1       23.517 -30.608   9.146  0.00  0.00    +0.282 C 
ATOM     31  C   LIG    1       23.161 -29.980  10.526  0.00  0.00    +0.205 C 
ATOM     32  C   LIG    1       21.639 -30.119  10.727  0.00  0.00    +0.182 C 
ATOM     33  C   LIG    1       21.257 -31.626  10.769  0.00  0.00    +0.178 C 
ATOM     34  C   LIG    1       22.119 -32.470   9.791  0.00  0.00    +0.150 C 
ATOM     35  C   LIG    1       23.174 -33.368  10.441  0.00  0.00    +0.040 C 
ATOM     36  O   LIG    1       22.671 -31.675   8.741  0.00  0.00    -0.343 OA
BRANCH  31  37
ATOM     37  O   LIG    1       23.800 -30.618  11.655  0.00  0.00    -0.372 OA
ATOM     38  C   LIG    1       24.693 -29.789  12.383  0.00  0.00    +0.194 C 
ENDBRANCH  31  37
BRANCH  32  39
ATOM     39  O   LIG    1       21.176 -29.502  11.955  0.00  0.00    -0.374 OA
ATOM     40  C   LIG    1       20.844 -30.424  12.985  0.00  0.00    +0.194 C 
ENDBRANCH  32  39
BRANCH  33  41
ATOM     41  O   LIG    1       19.887 -31.843  10.342  0.00  0.00    -0.375 OA
ATOM     42  C   LIG    1       19.590 -33.164   9.922  0.00  0.00    +0.194 C 
ENDBRANCH  33  41
ENDBRANCH  29  30
ENDBRANCH  13  29
BRANCH  22  43
ATOM     43  O   LIG    1       27.474 -20.439   7.070  0.00  0.00    -0.347 OA
BRANCH  43  44
ATOM     44  C   LIG    1       28.667 -19.879   7.631  0.00  0.00    +0.251 C 
ATOM     45  O   LIG    1       29.522 -20.909   8.090  0.00  0.00    -0.347 OA
ATOM     46  C   LIG    1       30.821 -20.477   8.512  0.00  0.00    +0.135 C 
ATOM     47  C   LIG    1       31.412 -21.755   9.127  0.00  0.00    +0.039 C 
ATOM     48  C   LIG    1       30.817 -19.262   9.517  0.00  0.00    +0.085 C 
ATOM     49  C   LIG    1       29.633 -18.293   9.236  0.00  0.00    +0.026 C 
ATOM     50  C   LIG    1       28.344 -18.990   8.809  0.00  0.00    +0.063 C 
BRANCH  48  51
ATOM     51  N   LIG    1       32.102 -18.488   9.553  0.00  0.00    -0.303 NA
ATOM     52  C   LIG    1       32.375 -17.776   8.298  0.00  0.00    +0.105 C 
ATOM     53  C   LIG    1       32.182 -17.525  10.654  0.00  0.00    +0.105 C 
ENDBRANCH  48  51
ENDBRANCH  43  44
ENDBRANCH  22  43
TORSDOF 9
ENDMDL
MODEL 3
REMARK VINA RESULT:      -0.6      3.238      7.239
REMARK  Name = *****
REMARK                            x       y       z     vdW  Elec       q    Type
REMARK                         _______ _______ _______ _____ _____    ______ ____
ROOT
ATOM      1  C   LIG    1       22.848 -21.944   5.674  0.00  0.00    +0.176 C 
ATOM      2  O   LIG    1       23.048 -23.090   6.542  0.00  0.00    -0.461 OA
ATOM      3  C   LIG    1       23.455 -24.221   5.918  0.00  0.00    +0.308 C 
ATOM      4  O   LIG    1       23.596 -24.341   4.690  0.00  0.00    -0.251 OA
ATOM      5  C   LIG    1       23.738 -25.373   6.867  0.00  0.00    +0.129 C 
ATOM      6  C   LIG    1       25.097 -25.326   7.609  0.00  0.00    +0.040 C 
ATOM      7  C   LIG    1       26.063 -24.751   6.622  0.00  0.00    -0.004 C 
ATOM      8  C   LIG    1       26.567 -25.718   5.824  0.00  0.00    -0.015 C 
ATOM      9  C   LIG    1       26.488 -27.049   6.537  0.00  0.00    +0.023 C 
ATOM     10  C   LIG    1       25.775 -28.376   6.184  0.00  0.00    +0.006 C 
ATOM     11  C   LIG    1       26.324 -29.426   7.190  0.00  0.00    +0.021 C 
ATOM     12  C   LIG    1       25.323 -30.576   7.033  0.00  0.00    +0.040 C 
ATOM     13  C   LIG    1       23.964 -29.889   7.079  0.00  0.00    +0.122 C 
ATOM     14  C   LIG    1       26.369 -28.886   8.626  0.00  0.00    -0.073 C 
ATOM     15  C   LIG    1       27.075 -29.753   9.627  0.00  0.00    +0.039 C 
ATOM     16  C   LIG    1       25.952 -27.639   8.951  0.00  0.00    -0.023 C 
ATOM     17  C   LIG    1       24.236 -28.558   6.344  0.00  0.00    +0.036 C 
ATOM     18  C   LIG    1       26.514 -23.345   6.649  0.00  0.00    +0.165 C 
ATOM     19  O   LIG    1       26.634 -22.769   5.566  0.00  0.00    -0.292 OA
ATOM     20  C   LIG    1       27.033 -22.715   7.972  0.00  0.00    +0.086 C 
ATOM     21  C   LIG    1       26.687 -23.300   9.347  0.00  0.00    +0.018 C 
ATOM     22  C   LIG    1       26.739 -21.189   8.014  0.00  0.00    +0.132 C 
ATOM     23  C   LIG    1       25.211 -20.908   7.958  0.00  0.00    +0.032 C 
ATOM     24  C   LIG    1       24.658 -20.395   6.631  0.00  0.00    +0.006 C 
ATOM     25  C   LIG    1       26.021 -26.552   7.915  0.00  0.00    +0.027 C 
ATOM     26  C   LIG    1       23.152 -20.661   6.470  0.00  0.00    +0.045 C 
ENDROOT
BRANCH   1  28
ATOM     27  C   LIG    1       21.089 -20.682   4.256  0.00  0.00    +0.007 C 
ATOM     28  C   LIG    1       21.397 -21.872   5.153  0.00  0.00    +0.041 C 
ENDBRANCH   1  28
BRANCH  13  29
ATOM     29  O   LIG    1       23.502 -29.531   8.394  0.00  0.00    -0.345 OA
BRANCH  29  30
ATOM     30  C   LIG    1       23.193 -30.615   9.276  0.00  0.00    +0.282 C 
ATOM     31  C   LIG    1       24.139 -30.497  10.507  0.00  0.00    +0.205 C 
ATOM     32  C   LIG    1       23.420 -29.647  11.573  0.00  0.00    +0.182 C 
ATOM     33  C   LIG    1       22.123 -30.374  12.028  0.00  0.00    +0.178 C 
ATOM     34  C   LIG    1       21.434 -31.119  10.854  0.00  0.00    +0.150 C 
ATOM     35  C   LIG    1       21.545 -32.646  10.880  0.00  0.00    +0.040 C 
ATOM     36  O   LIG    1       21.807 -30.581   9.585  0.00  0.00    -0.343 OA
BRANCH  31  37
ATOM     37  O   LIG    1       24.475 -31.761  11.126  0.00  0.00    -0.372 OA
ATOM     38  C   LIG    1       25.160 -32.675  10.284  0.00  0.00    +0.194 C 
ENDBRANCH  31  37
BRANCH  32  39
ATOM     39  O   LIG    1       24.239 -29.407  12.746  0.00  0.00    -0.374 OA
ATOM     40  C   LIG    1       25.183 -28.354  12.595  0.00  0.00    +0.194 C 
ENDBRANCH  32  39
BRANCH  33  41
ATOM     41  O   LIG    1       21.127 -29.436  12.512  0.00  0.00    -0.375 OA
ATOM     42  C   LIG    1       20.261 -29.943  13.515  0.00  0.00    +0.194 C 
ENDBRANCH  33  41
ENDBRANCH  29  30
ENDBRANCH  13  29
BRANCH  22  43
ATOM     43  O   LIG    1       27.481 -20.420   7.054  0.00  0.00    -0.347 OA
BRANCH  43  44
ATOM     44  C   LIG    1       28.681 -19.852   7.591  0.00  0.00    +0.251 C 
ATOM     45  O   LIG    1       29.541 -20.877   8.056  0.00  0.00    -0.347 OA
ATOM     46  C   LIG    1       30.845 -20.439   8.455  0.00  0.00    +0.135 C 
ATOM     47  C   LIG    1       31.442 -21.708   9.082  0.00  0.00    +0.039 C 
ATOM     48  C   LIG    1       30.854 -19.209   9.442  0.00  0.00    +0.085 C 
ATOM     49  C   LIG    1       29.668 -18.243   9.160  0.00  0.00    +0.026 C 
ATOM     50  C   LIG    1       28.373 -18.945   8.760  0.00  0.00    +0.063 C 
BRANCH  48  51
ATOM     51  N   LIG    1       32.140 -18.435   9.450  0.00  0.00    -0.303 NA
ATOM     52  C   LIG    1       32.373 -17.701   8.200  0.00  0.00    +0.105 C 
ATOM     53  C   LIG    1       32.257 -17.493  10.566  0.00  0.00    +0.105 C 
ENDBRANCH  48  51
ENDBRANCH  43  44
ENDBRANCH  22  43
TORSDOF 9
ENDMDL
MODEL 4
REMARK VINA RESULT:       1.7      1.373      2.432
REMARK  Name = *****
REMARK                            x       y       z     vdW  Elec       q    Type
REMARK                         _______ _______ _______ _____ _____    ______ ____
ROOT
ATOM      1  C   LIG    1       26.276 -31.681   6.512  0.00  0.00    +0.176 C 
ATOM      2  O   LIG    1       25.571 -31.320   7.729  0.00  0.00    -0.461 OA
ATOM      3  C   LIG    1       26.362 -31.059   8.797  0.00  0.00    +0.308 C 
ATOM      4  O   LIG    1       27.598 -31.170   8.806  0.00  0.00    -0.251 OA
ATOM      5  C   LIG    1       25.595 -30.600  10.026  0.00  0.00    +0.129 C 
ATOM      6  C   LIG    1       25.143 -29.118  10.033  0.00  0.00    +0.040 C 
ATOM      7  C   LIG    1       26.250 -28.367   9.364  0.00  0.00    -0.004 C 
ATOM      8  C   LIG    1       27.216 -28.044  10.252  0.00  0.00    -0.015 C 
ATOM      9  C   LIG    1       26.622 -27.990  11.642  0.00  0.00    +0.023 C 
ATOM     10  C   LIG    1       26.939 -28.773  12.938  0.00  0.00    +0.006 C 
ATOM     11  C   LIG    1       26.161 -28.040  14.068  0.00  0.00    +0.021 C 
ATOM     12  C   LIG    1       26.214 -29.063  15.209  0.00  0.00    +0.040 C 
ATOM     13  C   LIG    1       25.833 -30.379  14.540  0.00  0.00    +0.122 C 
ATOM     14  C   LIG    1       24.723 -27.701  13.657  0.00  0.00    -0.073 C 
ATOM     15  C   LIG    1       23.966 -26.815  14.603  0.00  0.00    +0.039 C 
ATOM     16  C   LIG    1       24.212 -28.032  12.447  0.00  0.00    -0.023 C 
ATOM     17  C   LIG    1       26.488 -30.248  13.147  0.00  0.00    +0.036 C 
ATOM     18  C   LIG    1       26.192 -27.906   7.962  0.00  0.00    +0.165 C 
ATOM     19  O   LIG    1       27.220 -28.003   7.292  0.00  0.00    -0.292 OA
ATOM     20  C   LIG    1       24.950 -27.125   7.447  0.00  0.00    +0.086 C 
ATOM     21  C   LIG    1       23.591 -27.190   8.154  0.00  0.00    +0.018 C 
ATOM     22  C   LIG    1       24.715 -27.389   5.933  0.00  0.00    +0.132 C 
ATOM     23  C   LIG    1       24.436 -28.895   5.662  0.00  0.00    +0.032 C 
ATOM     24  C   LIG    1       25.572 -29.700   5.038  0.00  0.00    +0.006 C 
ATOM     25  C   LIG    1       25.140 -28.163  11.273  0.00  0.00    +0.027 C 
ATOM     26  C   LIG    1       25.448 -31.209   5.301  0.00  0.00    +0.045 C 
ENDROOT
BRANCH   1  28
ATOM     27  C   LIG    1       27.934 -33.664   6.409  0.00  0.00    +0.007 C 
ATOM     28  C   LIG    1       26.483 -33.207   6.406  0.00  0.00    +0.041 C 
ENDBRANCH   1  28
BRANCH  13  29
ATOM     29  O   LIG    1       24.425 -30.562  14.304  0.00  0.00    -0.345 OA
BRANCH  29  30
ATOM     30  C   LIG    1       24.068 -31.291  13.126  0.00  0.00    +0.282 C 
ATOM     31  C   LIG    1       23.558 -32.690  13.581  0.00  0.00    +0.205 C 
ATOM     32  C   LIG    1       22.032 -32.593  13.780  0.00  0.00    +0.182 C 
ATOM     33  C   LIG    1       21.354 -32.249  12.423  0.00  0.00    +0.178 C 
ATOM     34  C   LIG    1       22.217 -31.278  11.573  0.00  0.00    +0.150 C 
ATOM     35  C   LIG    1       22.904 -31.896  10.352  0.00  0.00    +0.040 C 
ATOM     36  O   LIG    1       23.131 -30.531  12.375  0.00  0.00    -0.343 OA
BRANCH  31  37
ATOM     37  O   LIG    1       23.796 -33.752  12.629  0.00  0.00    -0.372 OA
ATOM     38  C   LIG    1       25.124 -33.824  12.135  0.00  0.00    +0.194 C 
ENDBRANCH  31  37
BRANCH  32  39
ATOM     39  O   LIG    1       21.450 -33.825  14.277  0.00  0.00    -0.374 OA
ATOM     40  C   LIG    1       20.039 -33.781  14.440  0.00  0.00    +0.194 C 
ENDBRANCH  32  39
BRANCH  33  41
ATOM     41  O   LIG    1       20.093 -31.557  12.616  0.00  0.00    -0.375 OA
ATOM     42  C   LIG    1       19.347 -31.325  11.432  0.00  0.00    +0.194 C 
ENDBRANCH  33  41
ENDBRANCH  29  30
ENDBRANCH  13  29
BRANCH  22  43
ATOM     43  O   LIG    1       25.734 -26.850   5.076  0.00  0.00    -0.347 OA
BRANCH  43  44
ATOM     44  C   LIG    1       25.781 -25.419   5.086  0.00  0.00    +0.251 C 
ATOM     45  O   LIG    1       25.835 -24.942   6.418  0.00  0.00    -0.347 OA
ATOM     46  C   LIG    1       26.060 -23.533   6.549  0.00  0.00    +0.135 C 
ATOM     47  C   LIG    1       25.863 -23.305   8.056  0.00  0.00    +0.039 C 
ATOM     48  C   LIG    1       25.116 -22.629   5.667  0.00  0.00    +0.085 C 
ATOM     49  C   LIG    1       24.753 -23.324   4.323  0.00  0.00    +0.026 C 
ATOM     50  C   LIG    1       24.549 -24.833   4.437  0.00  0.00    +0.063 C 
BRANCH  48  51
ATOM     51  N   LIG    1       25.658 -21.257   5.392  0.00  0.00    -0.303 NA
ATOM     52  C   LIG    1       24.631 -20.322   4.915  0.00  0.00    +0.105 C 
ATOM     53  C   LIG    1       26.339 -20.648   6.537  0.00  0.00    +0.105 C 
ENDBRANCH  48  51
ENDBRANCH  43  44
ENDBRANCH  22  43
TORSDOF 9
ENDMDL
