MODEL 1
REMARK VINA RESULT:      -5.9      0.000      0.000
REMARK  Name = *****
REMARK                            x       y       z     vdW  Elec       q    Type
REMARK                         _______ _______ _______ _____ _____    ______ ____
ROOT
ATOM      1  O   LIG    1       25.768 -18.482   3.332  0.00  0.00    -0.489 OA
ENDROOT
BRANCH   1   3
ATOM      2  C   LIG    1       25.084 -19.994   5.007  0.00  0.00    -0.002 A 
ATOM      3  C   LIG    1       24.729 -19.040   4.031  0.00  0.00    +0.124 A 
ATOM      4  C   LIG    1       23.380 -18.727   3.839  0.00  0.00    +0.046 A 
ATOM      5  C   LIG    1       22.392 -19.325   4.628  0.00  0.00    +0.004 A 
ATOM      6  C   LIG    1       22.742 -20.238   5.618  0.00  0.00    +0.001 A 
ATOM      7  C   LIG    1       24.080 -20.573   5.806  0.00  0.00    +0.007 A 
BRANCH   2   8
ATOM      8  C   LIG    1       26.520 -20.429   5.216  0.00  0.00    +0.065 C 
BRANCH   8  10
ATOM      9  C   LIG    1       28.215 -20.174   7.061  0.00  0.00    +0.004 C 
ATOM     10  C   LIG    1       26.966 -20.397   6.656  0.00  0.00    -0.030 C 
ENDBRANCH   8  10
ENDBRANCH   2   8
ENDBRANCH   1   3
BRANCH   1  11
ATOM     11  C   LIG    1       25.737 -17.072   3.074  0.00  0.00    +0.261 C 
BRANCH  11  12
ATOM     12  C   LIG    1       26.837 -16.386   3.909  0.00  0.00    +0.166 C 
BRANCH  12  13
ATOM     13  O   LIG    1       28.013 -17.212   3.937  0.00  0.00    -0.387 OA
ATOM     14  H   LIG    1       28.423 -17.070   4.810  0.00  0.00    +0.210 HD
ENDBRANCH  12  13
BRANCH  12  15
ATOM     15  C   LIG    1       27.192 -15.003   3.324  0.00  0.00    +0.115 C 
BRANCH  15  16
ATOM     16  N   LIG    1       26.109 -14.456   2.496  0.00  0.00    -0.311 NA
ATOM     17  H   LIG    1       25.484 -15.216   2.222  0.00  0.00    +0.122 HD
BRANCH  16  18
ATOM     18  C   LIG    1       25.373 -13.364   3.145  0.00  0.00    +0.048 C 
ATOM     19  C   LIG    1       24.345 -13.832   4.179  0.00  0.00    +0.024 C 
ATOM     20  C   LIG    1       24.664 -12.538   2.067  0.00  0.00    +0.024 C 
ENDBRANCH  16  18
ENDBRANCH  15  16
ENDBRANCH  12  15
ENDBRANCH  11  12
ENDBRANCH   1  11
TORSDOF 9
ENDMDL
MODEL 2
REMARK VINA RESULT:      -5.5      1.560      1.901
REMARK  Name = *****
REMARK                            x       y       z     vdW  Elec       q    Type
REMARK                         _______ _______ _______ _____ _____    ______ ____
ROOT
ATOM      1  O   LIG    1       26.009 -19.640   4.006  0.00  0.00    -0.489 OA
ENDROOT
BRANCH   1   3
ATOM      2  C   LIG    1       25.507 -20.683   6.061  0.00  0.00    -0.002 A 
ATOM      3  C   LIG    1       25.045 -20.020   4.904  0.00  0.00    +0.124 A 
ATOM      4  C   LIG    1       23.675 -19.794   4.747  0.00  0.00    +0.046 A 
ATOM      5  C   LIG    1       22.771 -20.189   5.739  0.00  0.00    +0.004 A 
ATOM      6  C   LIG    1       23.228 -20.809   6.899  0.00  0.00    +0.001 A 
ATOM      7  C   LIG    1       24.588 -21.056   7.059  0.00  0.00    +0.007 A 
BRANCH   2   8
ATOM      8  C   LIG    1       26.971 -21.020   6.258  0.00  0.00    +0.065 C 
BRANCH   8  10
ATOM      9  C   LIG    1       29.068 -19.849   7.019  0.00  0.00    +0.004 C 
ATOM     10  C   LIG    1       27.742 -19.976   7.027  0.00  0.00    -0.030 C 
ENDBRANCH   8  10
ENDBRANCH   2   8
ENDBRANCH   1   3
BRANCH   1  11
ATOM     11  C   LIG    1       25.872 -18.369   3.358  0.00  0.00    +0.261 C 
BRANCH  11  12
ATOM     12  C   LIG    1       26.722 -17.328   4.115  0.00  0.00    +0.166 C 
BRANCH  12  13
ATOM     13  O   LIG    1       28.094 -17.755   4.154  0.00  0.00    -0.387 OA
ATOM     14  H   LIG    1       28.389 -17.805   3.226  0.00  0.00    +0.210 HD
ENDBRANCH  12  13
BRANCH  12  15
ATOM     15  C   LIG    1       26.633 -15.944   3.437  0.00  0.00    +0.115 C 
BRANCH  15  16
ATOM     16  N   LIG    1       27.798 -15.102   3.740  0.00  0.00    -0.311 NA
ATOM     17  H   LIG    1       28.519 -15.266   3.035  0.00  0.00    +0.122 HD
BRANCH  16  18
ATOM     18  C   LIG    1       27.472 -13.674   3.851  0.00  0.00    +0.048 C 
ATOM     19  C   LIG    1       28.696 -12.762   3.968  0.00  0.00    +0.024 C 
ATOM     20  C   LIG    1       26.571 -13.467   5.073  0.00  0.00    +0.024 C 
ENDBRANCH  16  18
ENDBRANCH  15  16
ENDBRANCH  12  15
ENDBRANCH  11  12
ENDBRANCH   1  11
TORSDOF 9
ENDMDL
MODEL 3
REMARK VINA RESULT:      -5.4      2.389      6.388
REMARK  Name = *****
REMARK                            x       y       z     vdW  Elec       q    Type
REMARK                         _______ _______ _______ _____ _____    ______ ____
ROOT
ATOM      1  O   LIG    1       25.390 -16.655   3.032  0.00  0.00    -0.489 OA
ENDROOT
BRANCH   1   3
ATOM      2  C   LIG    1       25.071 -14.542   4.029  0.00  0.00    -0.002 A 
ATOM      3  C   LIG    1       25.964 -15.535   3.575  0.00  0.00    +0.124 A 
ATOM      4  C   LIG    1       27.340 -15.327   3.702  0.00  0.00    +0.046 A 
ATOM      5  C   LIG    1       27.830 -14.163   4.304  0.00  0.00    +0.004 A 
ATOM      6  C   LIG    1       26.951 -13.198   4.787  0.00  0.00    +0.001 A 
ATOM      7  C   LIG    1       25.579 -13.385   4.649  0.00  0.00    +0.007 A 
BRANCH   2   8
ATOM      8  C   LIG    1       23.572 -14.675   3.856  0.00  0.00    +0.065 C 
BRANCH   8  10
ATOM      9  C   LIG    1       22.248 -16.621   4.753  0.00  0.00    +0.004 C 
ATOM     10  C   LIG    1       22.899 -15.475   4.943  0.00  0.00    -0.030 C 
ENDBRANCH   8  10
ENDBRANCH   2   8
ENDBRANCH   1   3
BRANCH   1  11
ATOM     11  C   LIG    1       26.038 -17.918   3.231  0.00  0.00    +0.261 C 
BRANCH  11  12
ATOM     12  C   LIG    1       25.057 -18.879   3.933  0.00  0.00    +0.166 C 
BRANCH  12  13
ATOM     13  O   LIG    1       24.152 -19.441   2.967  0.00  0.00    -0.387 OA
ATOM     14  H   LIG    1       23.841 -18.694   2.421  0.00  0.00    +0.210 HD
ENDBRANCH  12  13
BRANCH  12  15
ATOM     15  C   LIG    1       25.815 -20.016   4.650  0.00  0.00    +0.115 C 
BRANCH  15  16
ATOM     16  N   LIG    1       25.058 -21.275   4.647  0.00  0.00    -0.311 NA
ATOM     17  H   LIG    1       25.693 -22.044   4.423  0.00  0.00    +0.122 HD
BRANCH  16  18
ATOM     18  C   LIG    1       24.336 -21.525   5.901  0.00  0.00    +0.048 C 
ATOM     19  C   LIG    1       22.893 -21.011   5.904  0.00  0.00    +0.024 C 
ATOM     20  C   LIG    1       25.106 -20.870   7.052  0.00  0.00    +0.024 C 
ENDBRANCH  16  18
ENDBRANCH  15  16
ENDBRANCH  12  15
ENDBRANCH  11  12
ENDBRANCH   1  11
TORSDOF 9
ENDMDL
MODEL 4
REMARK VINA RESULT:      -5.3      1.299      1.443
REMARK  Name = *****
REMARK                            x       y       z     vdW  Elec       q    Type
REMARK                         _______ _______ _______ _____ _____    ______ ____
ROOT
ATOM      1  O   LIG    1       26.415 -17.826   3.624  0.00  0.00    -0.489 OA
ENDROOT
BRANCH   1   3
ATOM      2  C   LIG    1       26.199 -19.783   4.921  0.00  0.00    -0.002 A 
ATOM      3  C   LIG    1       25.616 -18.867   4.020  0.00  0.00    +0.124 A 
ATOM      4  C   LIG    1       24.299 -19.067   3.598  0.00  0.00    +0.046 A 
ATOM      5  C   LIG    1       23.552 -20.144   4.088  0.00  0.00    +0.004 A 
ATOM      6  C   LIG    1       24.110 -21.027   5.006  0.00  0.00    +0.001 A 
ATOM      7  C   LIG    1       25.427 -20.850   5.420  0.00  0.00    +0.007 A 
BRANCH   2   8
ATOM      8  C   LIG    1       27.643 -19.663   5.362  0.00  0.00    +0.065 C 
BRANCH   8  10
ATOM      9  C   LIG    1       29.149 -20.754   7.062  0.00  0.00    +0.004 C 
ATOM     10  C   LIG    1       27.942 -20.346   6.674  0.00  0.00    -0.030 C 
ENDBRANCH   8  10
ENDBRANCH   2   8
ENDBRANCH   1   3
BRANCH   1  11
ATOM     11  C   LIG    1       25.787 -16.624   3.159  0.00  0.00    +0.261 C 
BRANCH  11  12
ATOM     12  C   LIG    1       26.777 -15.451   3.310  0.00  0.00    +0.166 C 
BRANCH  12  13
ATOM     13  O   LIG    1       26.794 -14.671   2.102  0.00  0.00    -0.387 OA
ATOM     14  H   LIG    1       27.729 -14.612   1.832  0.00  0.00    +0.210 HD
ENDBRANCH  12  13
BRANCH  12  15
ATOM     15  C   LIG    1       26.388 -14.549   4.500  0.00  0.00    +0.115 C 
BRANCH  15  16
ATOM     16  N   LIG    1       25.998 -13.200   4.068  0.00  0.00    -0.311 NA
ATOM     17  H   LIG    1       26.383 -13.024   3.138  0.00  0.00    +0.122 HD
BRANCH  16  18
ATOM     18  C   LIG    1       24.547 -12.975   4.098  0.00  0.00    +0.048 C 
ATOM     19  C   LIG    1       23.727 -14.231   4.409  0.00  0.00    +0.024 C 
ATOM     20  C   LIG    1       24.108 -12.409   2.744  0.00  0.00    +0.024 C 
ENDBRANCH  16  18
ENDBRANCH  15  16
ENDBRANCH  12  15
ENDBRANCH  11  12
ENDBRANCH   1  11
TORSDOF 9
ENDMDL
MODEL 5
REMARK VINA RESULT:      -5.3      0.958      2.897
REMARK  Name = *****
REMARK                            x       y       z     vdW  Elec       q    Type
REMARK                         _______ _______ _______ _____ _____    ______ ____
ROOT
ATOM      1  O   LIG    1       26.089 -19.136   3.467  0.00  0.00    -0.489 OA
ENDROOT
BRANCH   1   3
ATOM      2  C   LIG    1       24.663 -20.238   4.989  0.00  0.00    -0.002 A 
ATOM      3  C   LIG    1       25.959 -19.780   4.671  0.00  0.00    +0.124 A 
ATOM      4  C   LIG    1       27.003 -20.002   5.573  0.00  0.00    +0.046 A 
ATOM      5  C   LIG    1       26.777 -20.702   6.763  0.00  0.00    +0.004 A 
ATOM      6  C   LIG    1       25.507 -21.189   7.061  0.00  0.00    +0.001 A 
ATOM      7  C   LIG    1       24.455 -20.957   6.181  0.00  0.00    +0.007 A 
BRANCH   2   8
ATOM      8  C   LIG    1       23.475 -19.966   4.087  0.00  0.00    +0.065 C 
BRANCH   8  10
ATOM      9  C   LIG    1       22.053 -17.924   4.478  0.00  0.00    +0.004 C 
ATOM     10  C   LIG    1       22.367 -19.190   4.753  0.00  0.00    -0.030 C 
ENDBRANCH   8  10
ENDBRANCH   2   8
ENDBRANCH   1   3
BRANCH   1  11
ATOM     11  C   LIG    1       25.569 -17.806   3.347  0.00  0.00    +0.261 C 
BRANCH  11  12
ATOM     12  C   LIG    1       26.617 -16.808   3.881  0.00  0.00    +0.166 C 
BRANCH  12  13
ATOM     13  O   LIG    1       27.940 -17.328   3.661  0.00  0.00    -0.387 OA
ATOM     14  H   LIG    1       28.349 -16.751   2.990  0.00  0.00    +0.210 HD
ENDBRANCH  12  13
BRANCH  12  15
ATOM     15  C   LIG    1       26.480 -15.438   3.185  0.00  0.00    +0.115 C 
BRANCH  15  16
ATOM     16  N   LIG    1       26.276 -14.346   4.146  0.00  0.00    -0.311 NA
ATOM     17  H   LIG    1       27.074 -13.709   4.101  0.00  0.00    +0.122 HD
BRANCH  16  18
ATOM     18  C   LIG    1       25.008 -13.630   3.954  0.00  0.00    +0.048 C 
ATOM     19  C   LIG    1       23.763 -14.485   4.210  0.00  0.00    +0.024 C 
ATOM     20  C   LIG    1       24.960 -13.087   2.522  0.00  0.00    +0.024 C 
ENDBRANCH  16  18
ENDBRANCH  15  16
ENDBRANCH  12  15
ENDBRANCH  11  12
ENDBRANCH   1  11
TORSDOF 9
ENDMDL
MODEL 6
REMARK VINA RESULT:      -5.3      2.209      5.884
REMARK  Name = *****
REMARK                            x       y       z     vdW  Elec       q    Type
REMARK                         _______ _______ _______ _____ _____    ______ ____
ROOT
ATOM      1  O   LIG    1       26.065 -16.940   3.264  0.00  0.00    -0.489 OA
ENDROOT
BRANCH   1   3
ATOM      2  C   LIG    1       26.122 -14.618   3.671  0.00  0.00    -0.002 A 
ATOM      3  C   LIG    1       25.376 -15.815   3.635  0.00  0.00    +0.124 A 
ATOM      4  C   LIG    1       24.020 -15.785   3.971  0.00  0.00    +0.046 A 
ATOM      5  C   LIG    1       23.397 -14.578   4.304  0.00  0.00    +0.004 A 
ATOM      6  C   LIG    1       24.121 -13.389   4.302  0.00  0.00    +0.001 A 
ATOM      7  C   LIG    1       25.476 -13.409   3.989  0.00  0.00    +0.007 A 
BRANCH   2   8
ATOM      8  C   LIG    1       27.611 -14.595   3.387  0.00  0.00    +0.065 C 
BRANCH   8  10
ATOM      9  C   LIG    1       28.803 -12.594   4.346  0.00  0.00    +0.004 C 
ATOM     10  C   LIG    1       28.201 -13.208   3.329  0.00  0.00    -0.030 C 
ENDBRANCH   8  10
ENDBRANCH   2   8
ENDBRANCH   1   3
BRANCH   1  11
ATOM     11  C   LIG    1       25.353 -18.182   3.190  0.00  0.00    +0.261 C 
BRANCH  11  12
ATOM     12  C   LIG    1       26.201 -19.286   3.854  0.00  0.00    +0.166 C 
BRANCH  12  13
ATOM     13  O   LIG    1       27.326 -18.696   4.528  0.00  0.00    -0.387 OA
ATOM     14  H   LIG    1       27.807 -19.433   4.948  0.00  0.00    +0.210 HD
ENDBRANCH  12  13
BRANCH  12  15
ATOM     15  C   LIG    1       25.362 -20.095   4.866  0.00  0.00    +0.115 C 
BRANCH  15  16
ATOM     16  N   LIG    1       24.168 -20.687   4.247  0.00  0.00    -0.311 NA
ATOM     17  H   LIG    1       24.332 -21.684   4.097  0.00  0.00    +0.122 HD
BRANCH  16  18
ATOM     18  C   LIG    1       22.938 -20.456   5.016  0.00  0.00    +0.048 C 
ATOM     19  C   LIG    1       22.336 -19.061   4.827  0.00  0.00    +0.024 C 
ATOM     20  C   LIG    1       23.236 -20.679   6.502  0.00  0.00    +0.024 C 
ENDBRANCH  16  18
ENDBRANCH  15  16
ENDBRANCH  12  15
ENDBRANCH  11  12
ENDBRANCH   1  11
TORSDOF 9
ENDMDL
MODEL 7
REMARK VINA RESULT:      -5.2      1.413      1.818
REMARK  Name = *****
REMARK                            x       y       z     vdW  Elec       q    Type
REMARK                         _______ _______ _______ _____ _____    ______ ____
ROOT
ATOM      1  O   LIG    1       25.538 -18.416   3.138  0.00  0.00    -0.489 OA
ENDROOT
BRANCH   1   3
ATOM      2  C   LIG    1       25.036 -19.905   4.896  0.00  0.00    -0.002 A 
ATOM      3  C   LIG    1       24.574 -18.996   3.921  0.00  0.00    +0.124 A 
ATOM      4  C   LIG    1       23.203 -18.745   3.815  0.00  0.00    +0.046 A 
ATOM      5  C   LIG    1       22.299 -19.361   4.686  0.00  0.00    +0.004 A 
ATOM      6  C   LIG    1       22.754 -20.229   5.674  0.00  0.00    +0.001 A 
ATOM      7  C   LIG    1       24.115 -20.502   5.778  0.00  0.00    +0.007 A 
BRANCH   2   8
ATOM      8  C   LIG    1       26.501 -20.274   5.016  0.00  0.00    +0.065 C 
BRANCH   8  10
ATOM      9  C   LIG    1       28.202 -20.110   6.867  0.00  0.00    +0.004 C 
ATOM     10  C   LIG    1       26.980 -20.423   6.438  0.00  0.00    -0.030 C 
ENDBRANCH   8  10
ENDBRANCH   2   8
ENDBRANCH   1   3
BRANCH   1  11
ATOM     11  C   LIG    1       26.227 -17.266   3.645  0.00  0.00    +0.261 C 
BRANCH  11  12
ATOM     12  C   LIG    1       25.570 -15.995   3.070  0.00  0.00    +0.166 C 
BRANCH  12  13
ATOM     13  O   LIG    1       24.507 -15.562   3.937  0.00  0.00    -0.387 OA
ATOM     14  H   LIG    1       23.776 -15.288   3.352  0.00  0.00    +0.210 HD
ENDBRANCH  12  13
BRANCH  12  15
ATOM     15  C   LIG    1       26.603 -14.859   2.917  0.00  0.00    +0.115 C 
BRANCH  15  16
ATOM     16  N   LIG    1       27.731 -15.006   3.847  0.00  0.00    -0.311 NA
ATOM     17  H   LIG    1       28.580 -15.198   3.312  0.00  0.00    +0.122 HD
BRANCH  16  18
ATOM     18  C   LIG    1       27.908 -13.851   4.736  0.00  0.00    +0.048 C 
ATOM     19  C   LIG    1       26.596 -13.254   5.252  0.00  0.00    +0.024 C 
ATOM     20  C   LIG    1       28.695 -12.770   3.989  0.00  0.00    +0.024 C 
ENDBRANCH  16  18
ENDBRANCH  15  16
ENDBRANCH  12  15
ENDBRANCH  11  12
ENDBRANCH   1  11
TORSDOF 9
ENDMDL
MODEL 8
REMARK VINA RESULT:      -5.0      1.629      3.167
REMARK  Name = *****
REMARK                            x       y       z     vdW  Elec       q    Type
REMARK                         _______ _______ _______ _____ _____    ______ ____
ROOT
ATOM      1  O   LIG    1       24.648 -18.751   3.288  0.00  0.00    -0.489 OA
ENDROOT
BRANCH   1   3
ATOM      2  C   LIG    1       23.089 -19.490   4.896  0.00  0.00    -0.002 A 
ATOM      3  C   LIG    1       24.402 -19.538   4.383  0.00  0.00    +0.124 A 
ATOM      4  C   LIG    1       25.348 -20.362   5.000  0.00  0.00    +0.046 A 
ATOM      5  C   LIG    1       24.990 -21.157   6.095  0.00  0.00    +0.004 A 
ATOM      6  C   LIG    1       23.686 -21.140   6.579  0.00  0.00    +0.001 A 
ATOM      7  C   LIG    1       22.740 -20.310   5.985  0.00  0.00    +0.007 A 
BRANCH   2   8
ATOM      8  C   LIG    1       22.038 -18.565   4.317  0.00  0.00    +0.065 C 
BRANCH   8  10
ATOM      9  C   LIG    1       22.693 -16.139   4.496  0.00  0.00    +0.004 C 
ATOM     10  C   LIG    1       22.015 -17.194   4.945  0.00  0.00    -0.030 C 
ENDBRANCH   8  10
ENDBRANCH   2   8
ENDBRANCH   1   3
BRANCH   1  11
ATOM     11  C   LIG    1       26.010 -18.453   2.955  0.00  0.00    +0.261 C 
BRANCH  11  12
ATOM     12  C   LIG    1       26.488 -17.268   3.819  0.00  0.00    +0.166 C 
BRANCH  12  13
ATOM     13  O   LIG    1       27.923 -17.289   3.922  0.00  0.00    -0.387 OA
ATOM     14  H   LIG    1       28.207 -18.149   3.561  0.00  0.00    +0.210 HD
ENDBRANCH  12  13
BRANCH  12  15
ATOM     15  C   LIG    1       26.036 -15.923   3.212  0.00  0.00    +0.115 C 
BRANCH  15  16
ATOM     16  N   LIG    1       27.153 -14.984   3.049  0.00  0.00    -0.311 NA
ATOM     17  H   LIG    1       26.977 -14.395   2.233  0.00  0.00    +0.122 HD
BRANCH  16  18
ATOM     18  C   LIG    1       27.413 -14.174   4.247  0.00  0.00    +0.048 C 
ATOM     19  C   LIG    1       26.161 -13.527   4.847  0.00  0.00    +0.024 C 
ATOM     20  C   LIG    1       28.425 -13.080   3.893  0.00  0.00    +0.024 C 
ENDBRANCH  16  18
ENDBRANCH  15  16
ENDBRANCH  12  15
ENDBRANCH  11  12
ENDBRANCH   1  11
TORSDOF 9
ENDMDL
MODEL 9
REMARK VINA RESULT:      -4.9      2.188      6.604
REMARK  Name = *****
REMARK                            x       y       z     vdW  Elec       q    Type
REMARK                         _______ _______ _______ _____ _____    ______ ____
ROOT
ATOM      1  O   LIG    1       25.545 -16.355   2.912  0.00  0.00    -0.489 OA
ENDROOT
BRANCH   1   3
ATOM      2  C   LIG    1       25.419 -14.301   4.064  0.00  0.00    -0.002 A 
ATOM      3  C   LIG    1       26.208 -15.378   3.608  0.00  0.00    +0.124 A 
ATOM      4  C   LIG    1       27.578 -15.386   3.884  0.00  0.00    +0.046 A 
ATOM      5  C   LIG    1       28.158 -14.357   4.634  0.00  0.00    +0.004 A 
ATOM      6  C   LIG    1       27.375 -13.314   5.119  0.00  0.00    +0.001 A 
ATOM      7  C   LIG    1       26.013 -13.284   4.834  0.00  0.00    +0.007 A 
BRANCH   2   8
ATOM      8  C   LIG    1       23.943 -14.197   3.737  0.00  0.00    +0.065 C 
BRANCH   8  10
ATOM      9  C   LIG    1       24.523 -12.597   1.879  0.00  0.00    +0.004 C 
ATOM     10  C   LIG    1       23.623 -13.181   2.669  0.00  0.00    -0.030 C 
ENDBRANCH   8  10
ENDBRANCH   2   8
ENDBRANCH   1   3
BRANCH   1  11
ATOM     11  C   LIG    1       24.907 -17.404   3.651  0.00  0.00    +0.261 C 
BRANCH  11  12
ATOM     12  C   LIG    1       25.641 -18.732   3.371  0.00  0.00    +0.166 C 
BRANCH  12  13
ATOM     13  O   LIG    1       26.753 -18.873   4.272  0.00  0.00    -0.387 OA
ATOM     14  H   LIG    1       26.367 -19.001   5.158  0.00  0.00    +0.210 HD
ENDBRANCH  12  13
BRANCH  12  15
ATOM     15  C   LIG    1       24.689 -19.935   3.535  0.00  0.00    +0.115 C 
BRANCH  15  16
ATOM     16  N   LIG    1       25.191 -20.911   4.512  0.00  0.00    -0.311 NA
ATOM     17  H   LIG    1       26.141 -20.649   4.784  0.00  0.00    +0.122 HD
BRANCH  16  18
ATOM     18  C   LIG    1       24.321 -21.063   5.685  0.00  0.00    +0.048 C 
ATOM     19  C   LIG    1       23.069 -20.181   5.652  0.00  0.00    +0.024 C 
ATOM     20  C   LIG    1       25.131 -20.741   6.945  0.00  0.00    +0.024 C 
ENDBRANCH  16  18
ENDBRANCH  15  16
ENDBRANCH  12  15
ENDBRANCH  11  12
ENDBRANCH   1  11
TORSDOF 9
ENDMDL
