MODEL 1
REMARK VINA RESULT:      -7.7      0.000      0.000
REMARK  Name = *****
REMARK                            x       y       z     vdW  Elec       q    Type
REMARK                         _______ _______ _______ _____ _____    ______ ____
ROOT
ATOM      1  C   LIG    1       25.780 -22.730   7.014  0.00  0.00    +0.078 C 
ATOM      2  C   LIG    1       25.589 -21.540   6.131  0.00  0.00    +0.023 A 
ATOM      3  C   LIG    1       26.626 -20.617   5.873  0.00  0.00    +0.044 A 
ATOM      4  C   LIG    1       26.361 -19.572   4.967  0.00  0.00    +0.025 A 
ATOM      5  C   LIG    1       25.108 -19.427   4.365  0.00  0.00    +0.022 A 
ATOM      6  C   LIG    1       24.091 -20.324   4.661  0.00  0.00    +0.042 A 
ATOM      7 CL   LIG    1       22.548 -20.139   3.929  0.00  0.00    -0.084 Cl
ATOM      8  N   LIG    1       27.923 -20.690   6.497  0.00  0.00    -0.287 N 
ATOM      9  C   LIG    1       28.083 -21.059   7.846  0.00  0.00    +0.077 C 
ATOM     10  S   LIG    1       29.563 -21.164   8.653  0.00  0.00    -0.038 S 
ATOM     11  C   LIG    1       26.809 -21.358   8.640  0.00  0.00    +0.201 C 
ATOM     12  C   LIG    1       24.320 -21.372   5.546  0.00  0.00    +0.032 A 
ATOM     13  N   LIG    1       26.314 -22.656   8.190  0.00  0.00    -0.276 NA
ENDROOT
BRANCH   1  16
ATOM     14  F   LIG    1       23.013 -23.619   7.014  0.00  0.00    -0.205 F 
ATOM     15  C   LIG    1       23.968 -24.467   6.605  0.00  0.00    +0.133 A 
ATOM     16  C   LIG    1       25.310 -24.082   6.567  0.00  0.00    +0.036 A 
ATOM     17  C   LIG    1       26.256 -24.987   6.062  0.00  0.00    +0.013 A 
ATOM     18  C   LIG    1       25.868 -26.264   5.648  0.00  0.00    +0.001 A 
ATOM     19  C   LIG    1       24.531 -26.648   5.728  0.00  0.00    +0.003 A 
ATOM     20  C   LIG    1       23.578 -25.746   6.201  0.00  0.00    +0.039 A 
ENDBRANCH   1  16
BRANCH   8  21
ATOM     21  C   LIG    1       29.098 -20.320   5.657  0.00  0.00    +0.224 C 
BRANCH  21  22
ATOM     22  C   LIG    1       29.741 -18.961   5.949  0.00  0.00    +0.406 C 
ATOM     23  F   LIG    1       29.549 -18.123   4.898  0.00  0.00    -0.169 F 
ATOM     24  F   LIG    1       31.075 -19.063   6.135  0.00  0.00    -0.169 F 
ATOM     25  F   LIG    1       29.214 -18.353   7.035  0.00  0.00    -0.169 F 
ENDBRANCH  21  22
ENDBRANCH   8  21
TORSDOF 3
ENDMDL
MODEL 2
REMARK VINA RESULT:      -6.5      8.364      9.548
REMARK  Name = *****
REMARK                            x       y       z     vdW  Elec       q    Type
REMARK                         _______ _______ _______ _____ _____    ______ ____
ROOT
ATOM      1  C   LIG    1       25.364 -29.234  12.451  0.00  0.00    +0.078 C 
ATOM      2  C   LIG    1       24.494 -28.255  13.168  0.00  0.00    +0.023 A 
ATOM      3  C   LIG    1       24.979 -27.434  14.209  0.00  0.00    +0.044 A 
ATOM      4  C   LIG    1       24.093 -26.492  14.767  0.00  0.00    +0.025 A 
ATOM      5  C   LIG    1       22.768 -26.389  14.333  0.00  0.00    +0.022 A 
ATOM      6  C   LIG    1       22.302 -27.231  13.333  0.00  0.00    +0.042 A 
ATOM      7 CL   LIG    1       20.670 -27.110  12.806  0.00  0.00    -0.084 Cl
ATOM      8  N   LIG    1       26.320 -27.525  14.728  0.00  0.00    -0.287 N 
ATOM      9  C   LIG    1       26.974 -28.761  14.895  0.00  0.00    +0.077 C 
ATOM     10  S   LIG    1       28.539 -28.955  15.499  0.00  0.00    -0.038 S 
ATOM     11  C   LIG    1       26.186 -30.019  14.523  0.00  0.00    +0.201 C 
ATOM     12  C   LIG    1       23.151 -28.167  12.754  0.00  0.00    +0.032 A 
ATOM     13  N   LIG    1       26.129 -30.079  13.065  0.00  0.00    -0.276 NA
ENDROOT
BRANCH   1  16
ATOM     14  F   LIG    1       27.253 -27.881  10.704  0.00  0.00    -0.205 F 
ATOM     15  C   LIG    1       26.271 -28.612  10.157  0.00  0.00    +0.133 A 
ATOM     16  C   LIG    1       25.351 -29.298  10.953  0.00  0.00    +0.036 A 
ATOM     17  C   LIG    1       24.389 -30.105  10.326  0.00  0.00    +0.013 A 
ATOM     18  C   LIG    1       24.326 -30.185   8.932  0.00  0.00    +0.001 A 
ATOM     19  C   LIG    1       25.228 -29.464   8.150  0.00  0.00    +0.003 A 
ATOM     20  C   LIG    1       26.206 -28.682   8.764  0.00  0.00    +0.039 A 
ENDBRANCH   1  16
BRANCH   8  21
ATOM     21  C   LIG    1       26.981 -26.247  15.120  0.00  0.00    +0.224 C 
BRANCH  21  22
ATOM     22  C   LIG    1       27.284 -25.263  13.985  0.00  0.00    +0.406 C 
ATOM     23  F   LIG    1       26.302 -24.328  13.912  0.00  0.00    -0.169 F 
ATOM     24  F   LIG    1       27.335 -25.879  12.785  0.00  0.00    -0.169 F 
ATOM     25  F   LIG    1       28.445 -24.596  14.164  0.00  0.00    -0.169 F 
ENDBRANCH  21  22
ENDBRANCH   8  21
TORSDOF 3
ENDMDL
MODEL 3
REMARK VINA RESULT:      -6.3      8.403      9.572
REMARK  Name = *****
REMARK                            x       y       z     vdW  Elec       q    Type
REMARK                         _______ _______ _______ _____ _____    ______ ____
ROOT
ATOM      1  C   LIG    1       25.329 -29.281  12.457  0.00  0.00    +0.078 C 
ATOM      2  C   LIG    1       24.477 -28.287  13.176  0.00  0.00    +0.023 A 
ATOM      3  C   LIG    1       24.978 -27.474  14.216  0.00  0.00    +0.044 A 
ATOM      4  C   LIG    1       24.109 -26.518  14.775  0.00  0.00    +0.025 A 
ATOM      5  C   LIG    1       22.785 -26.392  14.343  0.00  0.00    +0.022 A 
ATOM      6  C   LIG    1       22.302 -27.226  13.344  0.00  0.00    +0.042 A 
ATOM      7 CL   LIG    1       20.672 -27.078  12.821  0.00  0.00    -0.084 Cl
ATOM      8  N   LIG    1       26.318 -27.588  14.733  0.00  0.00    -0.287 N 
ATOM      9  C   LIG    1       26.951 -28.835  14.898  0.00  0.00    +0.077 C 
ATOM     10  S   LIG    1       28.514 -29.055  15.500  0.00  0.00    -0.038 S 
ATOM     11  C   LIG    1       26.141 -30.080  14.528  0.00  0.00    +0.201 C 
ATOM     12  C   LIG    1       23.135 -28.177  12.765  0.00  0.00    +0.032 A 
ATOM     13  N   LIG    1       26.081 -30.138  13.071  0.00  0.00    -0.276 NA
ENDROOT
BRANCH   1  16
ATOM     14  F   LIG    1       23.419 -30.794  10.873  0.00  0.00    -0.205 F 
ATOM     15  C   LIG    1       24.382 -30.104  10.245  0.00  0.00    +0.133 A 
ATOM     16  C   LIG    1       25.312 -29.345  10.959  0.00  0.00    +0.036 A 
ATOM     17  C   LIG    1       26.252 -28.586  10.246  0.00  0.00    +0.013 A 
ATOM     18  C   LIG    1       26.285 -28.625   8.849  0.00  0.00    +0.001 A 
ATOM     19  C   LIG    1       25.376 -29.418   8.151  0.00  0.00    +0.003 A 
ATOM     20  C   LIG    1       24.418 -30.152   8.850  0.00  0.00    +0.039 A 
ENDBRANCH   1  16
BRANCH   8  21
ATOM     21  C   LIG    1       27.001 -26.321  15.123  0.00  0.00    +0.224 C 
BRANCH  21  22
ATOM     22  C   LIG    1       27.282 -25.325  13.993  0.00  0.00    +0.406 C 
ATOM     23  F   LIG    1       27.374 -25.983  12.809  0.00  0.00    -0.169 F 
ATOM     24  F   LIG    1       28.451 -24.673  14.176  0.00  0.00    -0.169 F 
ATOM     25  F   LIG    1       26.305 -24.402  13.852  0.00  0.00    -0.169 F 
ENDBRANCH  21  22
ENDBRANCH   8  21
TORSDOF 3
ENDMDL
MODEL 4
REMARK VINA RESULT:      -6.3      7.140      9.230
REMARK  Name = *****
REMARK                            x       y       z     vdW  Elec       q    Type
REMARK                         _______ _______ _______ _____ _____    ______ ____
ROOT
ATOM      1  C   LIG    1       25.748 -29.611   9.185  0.00  0.00    +0.078 C 
ATOM      2  C   LIG    1       24.735 -29.773  10.271  0.00  0.00    +0.023 A 
ATOM      3  C   LIG    1       25.034 -29.521  11.627  0.00  0.00    +0.044 A 
ATOM      4  C   LIG    1       23.986 -29.632  12.561  0.00  0.00    +0.025 A 
ATOM      5  C   LIG    1       22.698 -30.011  12.171  0.00  0.00    +0.022 A 
ATOM      6  C   LIG    1       22.434 -30.291  10.836  0.00  0.00    +0.042 A 
ATOM      7 CL   LIG    1       20.853 -30.766  10.359  0.00  0.00    -0.084 Cl
ATOM      8  N   LIG    1       26.352 -29.170  12.095  0.00  0.00    -0.287 N 
ATOM      9  C   LIG    1       27.514 -29.760  11.562  0.00  0.00    +0.077 C 
ATOM     10  S   LIG    1       29.091 -29.409  12.055  0.00  0.00    -0.038 S 
ATOM     11  C   LIG    1       27.320 -30.818  10.473  0.00  0.00    +0.201 C 
ATOM     12  C   LIG    1       23.444 -30.183   9.887  0.00  0.00    +0.032 A 
ATOM     13  N   LIG    1       26.938 -30.116   9.251  0.00  0.00    -0.276 NA
ENDROOT
BRANCH   1  16
ATOM     14  F   LIG    1       24.111 -30.663   7.027  0.00  0.00    -0.205 F 
ATOM     15  C   LIG    1       24.620 -29.428   6.914  0.00  0.00    +0.133 A 
ATOM     16  C   LIG    1       25.396 -28.868   7.931  0.00  0.00    +0.036 A 
ATOM     17  C   LIG    1       25.841 -27.545   7.789  0.00  0.00    +0.013 A 
ATOM     18  C   LIG    1       25.552 -26.818   6.631  0.00  0.00    +0.001 A 
ATOM     19  C   LIG    1       24.809 -27.402   5.607  0.00  0.00    +0.003 A 
ATOM     20  C   LIG    1       24.336 -28.707   5.752  0.00  0.00    +0.039 A 
ENDBRANCH   1  16
BRANCH   8  21
ATOM     21  C   LIG    1       26.433 -28.174  13.202  0.00  0.00    +0.224 C 
BRANCH  21  22
ATOM     22  C   LIG    1       26.453 -26.699  12.788  0.00  0.00    +0.406 C 
ATOM     23  F   LIG    1       26.704 -26.596  11.458  0.00  0.00    -0.169 F 
ATOM     24  F   LIG    1       27.421 -26.009  13.429  0.00  0.00    -0.169 F 
ATOM     25  F   LIG    1       25.276 -26.075  13.013  0.00  0.00    -0.169 F 
ENDBRANCH  21  22
ENDBRANCH   8  21
TORSDOF 3
ENDMDL
MODEL 5
REMARK VINA RESULT:      -6.2      3.410      5.695
REMARK  Name = *****
REMARK                            x       y       z     vdW  Elec       q    Type
REMARK                         _______ _______ _______ _____ _____    ______ ____
ROOT
ATOM      1  C   LIG    1       26.085 -21.412   7.176  0.00  0.00    +0.078 C 
ATOM      2  C   LIG    1       25.662 -22.658   6.469  0.00  0.00    +0.023 A 
ATOM      3  C   LIG    1       24.664 -22.657   5.470  0.00  0.00    +0.044 A 
ATOM      4  C   LIG    1       24.395 -23.873   4.813  0.00  0.00    +0.025 A 
ATOM      5  C   LIG    1       25.064 -25.052   5.154  0.00  0.00    +0.022 A 
ATOM      6  C   LIG    1       26.016 -25.038   6.165  0.00  0.00    +0.042 A 
ATOM      7 CL   LIG    1       26.831 -26.489   6.591  0.00  0.00    -0.084 Cl
ATOM      8  N   LIG    1       23.910 -21.484   5.106  0.00  0.00    -0.287 N 
ATOM      9  C   LIG    1       23.476 -20.548   6.064  0.00  0.00    +0.077 C 
ATOM     10  S   LIG    1       22.587 -19.154   5.723  0.00  0.00    -0.038 S 
ATOM     11  C   LIG    1       23.818 -20.843   7.527  0.00  0.00    +0.201 C 
ATOM     12  C   LIG    1       26.312 -23.853   6.830  0.00  0.00    +0.032 A 
ATOM     13  N   LIG    1       25.243 -20.579   7.699  0.00  0.00    -0.276 NA
ENDROOT
BRANCH   1  16
ATOM     14  F   LIG    1       27.613 -19.624   5.469  0.00  0.00    -0.205 F 
ATOM     15  C   LIG    1       28.235 -20.246   6.481  0.00  0.00    +0.133 A 
ATOM     16  C   LIG    1       27.541 -21.098   7.343  0.00  0.00    +0.036 A 
ATOM     17  C   LIG    1       28.229 -21.664   8.428  0.00  0.00    +0.013 A 
ATOM     18  C   LIG    1       29.590 -21.413   8.616  0.00  0.00    +0.001 A 
ATOM     19  C   LIG    1       30.278 -20.590   7.726  0.00  0.00    +0.003 A 
ATOM     20  C   LIG    1       29.598 -20.000   6.661  0.00  0.00    +0.039 A 
ENDBRANCH   1  16
BRANCH   8  21
ATOM     21  C   LIG    1       23.574 -21.318   3.663  0.00  0.00    +0.224 C 
BRANCH  21  22
ATOM     22  C   LIG    1       24.312 -20.201   2.917  0.00  0.00    +0.406 C 
ATOM     23  F   LIG    1       25.529 -19.995   3.481  0.00  0.00    -0.169 F 
ATOM     24  F   LIG    1       23.644 -19.029   2.977  0.00  0.00    -0.169 F 
ATOM     25  F   LIG    1       24.529 -20.493   1.616  0.00  0.00    -0.169 F 
ENDBRANCH  21  22
ENDBRANCH   8  21
TORSDOF 3
ENDMDL
MODEL 6
REMARK VINA RESULT:      -6.2      7.592     10.366
REMARK  Name = *****
REMARK                            x       y       z     vdW  Elec       q    Type
REMARK                         _______ _______ _______ _____ _____    ______ ____
ROOT
ATOM      1  C   LIG    1       26.122 -28.822   9.079  0.00  0.00    +0.078 C 
ATOM      2  C   LIG    1       26.063 -30.285   9.375  0.00  0.00    +0.023 A 
ATOM      3  C   LIG    1       25.489 -30.793  10.561  0.00  0.00    +0.044 A 
ATOM      4  C   LIG    1       25.417 -32.192  10.707  0.00  0.00    +0.025 A 
ATOM      5  C   LIG    1       25.924 -33.055   9.731  0.00  0.00    +0.022 A 
ATOM      6  C   LIG    1       26.518 -32.534   8.589  0.00  0.00    +0.042 A 
ATOM      7 CL   LIG    1       27.149 -33.595   7.394  0.00  0.00    -0.084 Cl
ATOM      8  N   LIG    1       24.991 -29.953  11.621  0.00  0.00    -0.287 N 
ATOM      9  C   LIG    1       25.645 -28.766  12.004  0.00  0.00    +0.077 C 
ATOM     10  S   LIG    1       25.131 -27.731  13.235  0.00  0.00    -0.038 S 
ATOM     11  C   LIG    1       26.935 -28.414  11.260  0.00  0.00    +0.201 C 
ATOM     12  C   LIG    1       26.598 -31.158   8.409  0.00  0.00    +0.032 A 
ATOM     13  N   LIG    1       26.553 -27.948   9.930  0.00  0.00    -0.276 NA
ENDROOT
BRANCH   1  16
ATOM     14  F   LIG    1       23.827 -29.769   7.566  0.00  0.00    -0.205 F 
ATOM     15  C   LIG    1       24.605 -28.813   7.037  0.00  0.00    +0.133 A 
ATOM     16  C   LIG    1       25.707 -28.310   7.732  0.00  0.00    +0.036 A 
ATOM     17  C   LIG    1       26.442 -27.260   7.160  0.00  0.00    +0.013 A 
ATOM     18  C   LIG    1       26.103 -26.759   5.900  0.00  0.00    +0.001 A 
ATOM     19  C   LIG    1       25.024 -27.297   5.201  0.00  0.00    +0.003 A 
ATOM     20  C   LIG    1       24.270 -28.321   5.774  0.00  0.00    +0.039 A 
ENDBRANCH   1  16
BRANCH   8  21
ATOM     21  C   LIG    1       23.761 -30.415  12.327  0.00  0.00    +0.224 C 
BRANCH  21  22
ATOM     22  C   LIG    1       22.424 -30.004  11.702  0.00  0.00    +0.406 C 
ATOM     23  F   LIG    1       21.446 -30.858  12.100  0.00  0.00    -0.169 F 
ATOM     24  F   LIG    1       22.463 -30.049  10.353  0.00  0.00    -0.169 F 
ATOM     25  F   LIG    1       22.031 -28.764  12.068  0.00  0.00    -0.169 F 
ENDBRANCH  21  22
ENDBRANCH   8  21
TORSDOF 3
ENDMDL
MODEL 7
REMARK VINA RESULT:      -6.2      8.346     10.573
REMARK  Name = *****
REMARK                            x       y       z     vdW  Elec       q    Type
REMARK                         _______ _______ _______ _____ _____    ______ ____
ROOT
ATOM      1  C   LIG    1       26.232 -29.493  10.496  0.00  0.00    +0.078 C 
ATOM      2  C   LIG    1       25.716 -29.267   9.113  0.00  0.00    +0.023 A 
ATOM      3  C   LIG    1       24.958 -30.238   8.422  0.00  0.00    +0.044 A 
ATOM      4  C   LIG    1       24.457 -29.894   7.151  0.00  0.00    +0.025 A 
ATOM      5  C   LIG    1       24.723 -28.649   6.573  0.00  0.00    +0.022 A 
ATOM      6  C   LIG    1       25.501 -27.723   7.255  0.00  0.00    +0.042 A 
ATOM      7 CL   LIG    1       25.836 -26.197   6.540  0.00  0.00    -0.084 Cl
ATOM      8  N   LIG    1       24.689 -31.553   8.947  0.00  0.00    -0.287 N 
ATOM      9  C   LIG    1       25.655 -32.281   9.668  0.00  0.00    +0.077 C 
ATOM     10  S   LIG    1       25.422 -33.825  10.312  0.00  0.00    -0.038 S 
ATOM     11  C   LIG    1       27.025 -31.624   9.852  0.00  0.00    +0.201 C 
ATOM     12  C   LIG    1       26.006 -28.027   8.514  0.00  0.00    +0.032 A 
ATOM     13  N   LIG    1       26.868 -30.565  10.845  0.00  0.00    -0.276 NA
ENDROOT
BRANCH   1  16
ATOM     14  F   LIG    1       23.872 -29.166  12.162  0.00  0.00    -0.205 F 
ATOM     15  C   LIG    1       24.894 -28.311  12.307  0.00  0.00    +0.133 A 
ATOM     16  C   LIG    1       26.058 -28.437  11.546  0.00  0.00    +0.036 A 
ATOM     17  C   LIG    1       27.123 -27.557  11.793  0.00  0.00    +0.013 A 
ATOM     18  C   LIG    1       27.003 -26.546  12.751  0.00  0.00    +0.001 A 
ATOM     19  C   LIG    1       25.821 -26.408  13.476  0.00  0.00    +0.003 A 
ATOM     20  C   LIG    1       24.768 -27.297  13.259  0.00  0.00    +0.039 A 
ENDBRANCH   1  16
BRANCH   8  21
ATOM     21  C   LIG    1       23.345 -32.132   8.662  0.00  0.00    +0.224 C 
BRANCH  21  22
ATOM     22  C   LIG    1       22.263 -31.892   9.720  0.00  0.00    +0.406 C 
ATOM     23  F   LIG    1       21.172 -32.651   9.445  0.00  0.00    -0.169 F 
ATOM     24  F   LIG    1       21.855 -30.605   9.741  0.00  0.00    -0.169 F 
ATOM     25  F   LIG    1       22.665 -32.224  10.967  0.00  0.00    -0.169 F 
ENDBRANCH  21  22
ENDBRANCH   8  21
TORSDOF 3
ENDMDL
MODEL 8
REMARK VINA RESULT:      -6.1      6.866     10.686
REMARK  Name = *****
REMARK                            x       y       z     vdW  Elec       q    Type
REMARK                         _______ _______ _______ _____ _____    ______ ____
ROOT
ATOM      1  C   LIG    1       25.518 -28.998   7.742  0.00  0.00    +0.078 C 
ATOM      2  C   LIG    1       25.157 -30.346   7.211  0.00  0.00    +0.023 A 
ATOM      3  C   LIG    1       24.370 -31.261   7.945  0.00  0.00    +0.044 A 
ATOM      4  C   LIG    1       24.025 -32.475   7.322  0.00  0.00    +0.025 A 
ATOM      5  C   LIG    1       24.467 -32.786   6.032  0.00  0.00    +0.022 A 
ATOM      6  C   LIG    1       25.270 -31.888   5.342  0.00  0.00    +0.042 A 
ATOM      7 CL   LIG    1       25.822 -32.275   3.762  0.00  0.00    -0.084 Cl
ATOM      8  N   LIG    1       23.922 -31.015   9.293  0.00  0.00    -0.287 N 
ATOM      9  C   LIG    1       24.739 -30.378  10.247  0.00  0.00    +0.077 C 
ATOM     10  S   LIG    1       24.293 -30.057  11.844  0.00  0.00    -0.038 S 
ATOM     11  C   LIG    1       26.147 -29.977   9.799  0.00  0.00    +0.201 C 
ATOM     12  C   LIG    1       25.624 -30.676   5.925  0.00  0.00    +0.032 A 
ATOM     13  N   LIG    1       26.008 -28.815   8.926  0.00  0.00    -0.276 NA
ENDROOT
BRANCH   1  16
ATOM     14  F   LIG    1       23.434 -28.625   5.751  0.00  0.00    -0.205 F 
ATOM     15  C   LIG    1       24.348 -27.660   5.922  0.00  0.00    +0.133 A 
ATOM     16  C   LIG    1       25.358 -27.781   6.880  0.00  0.00    +0.036 A 
ATOM     17  C   LIG    1       26.243 -26.708   7.064  0.00  0.00    +0.013 A 
ATOM     18  C   LIG    1       26.143 -25.560   6.275  0.00  0.00    +0.001 A 
ATOM     19  C   LIG    1       25.154 -25.468   5.297  0.00  0.00    +0.003 A 
ATOM     20  C   LIG    1       24.251 -26.518   5.125  0.00  0.00    +0.039 A 
ENDBRANCH   1  16
BRANCH   8  21
ATOM     21  C   LIG    1       22.558 -31.499   9.650  0.00  0.00    +0.224 C 
BRANCH  21  22
ATOM     22  C   LIG    1       22.484 -32.840  10.388  0.00  0.00    +0.406 C 
ATOM     23  F   LIG    1       21.652 -33.685   9.728  0.00  0.00    -0.169 F 
ATOM     24  F   LIG    1       21.996 -32.700  11.639  0.00  0.00    -0.169 F 
ATOM     25  F   LIG    1       23.682 -33.459  10.472  0.00  0.00    -0.169 F 
ENDBRANCH  21  22
ENDBRANCH   8  21
TORSDOF 3
ENDMDL
MODEL 9
REMARK VINA RESULT:      -5.9      8.606     11.180
REMARK  Name = *****
REMARK                            x       y       z     vdW  Elec       q    Type
REMARK                         _______ _______ _______ _____ _____    ______ ____
ROOT
ATOM      1  C   LIG    1       25.323 -29.577  11.647  0.00  0.00    +0.078 C 
ATOM      2  C   LIG    1       24.976 -29.667  10.197  0.00  0.00    +0.023 A 
ATOM      3  C   LIG    1       24.004 -30.567   9.708  0.00  0.00    +0.044 A 
ATOM      4  C   LIG    1       23.699 -30.517   8.334  0.00  0.00    +0.025 A 
ATOM      5  C   LIG    1       24.355 -29.634   7.472  0.00  0.00    +0.022 A 
ATOM      6  C   LIG    1       25.334 -28.784   7.968  0.00  0.00    +0.042 A 
ATOM      7 CL   LIG    1       26.147 -27.706   6.905  0.00  0.00    -0.084 Cl
ATOM      8  N   LIG    1       23.327 -31.529  10.540  0.00  0.00    -0.287 N 
ATOM      9  C   LIG    1       23.990 -32.224  11.570  0.00  0.00    +0.077 C 
ATOM     10  S   LIG    1       23.273 -33.368  12.584  0.00  0.00    -0.038 S 
ATOM     11  C   LIG    1       25.481 -31.933  11.755  0.00  0.00    +0.201 C 
ATOM     12  C   LIG    1       25.655 -28.801   9.320  0.00  0.00    +0.032 A 
ATOM     13  N   LIG    1       25.591 -30.615  12.373  0.00  0.00    -0.276 NA
ENDROOT
BRANCH   1  16
ATOM     14  F   LIG    1       27.673 -27.867  11.652  0.00  0.00    -0.205 F 
ATOM     15  C   LIG    1       26.575 -27.464  12.308  0.00  0.00    +0.133 A 
ATOM     16  C   LIG    1       25.413 -28.240  12.318  0.00  0.00    +0.036 A 
ATOM     17  C   LIG    1       24.272 -27.734  12.960  0.00  0.00    +0.013 A 
ATOM     18  C   LIG    1       24.312 -26.499  13.613  0.00  0.00    +0.001 A 
ATOM     19  C   LIG    1       25.489 -25.753  13.626  0.00  0.00    +0.003 A 
ATOM     20  C   LIG    1       26.620 -26.234  12.966  0.00  0.00    +0.039 A 
ENDBRANCH   1  16
BRANCH   8  21
ATOM     21  C   LIG    1       21.889 -31.788  10.240  0.00  0.00    +0.224 C 
BRANCH  21  22
ATOM     22  C   LIG    1       20.873 -30.889  10.953  0.00  0.00    +0.406 C 
ATOM     23  F   LIG    1       21.489 -29.768  11.409  0.00  0.00    -0.169 F 
ATOM     24  F   LIG    1       20.323 -31.501  12.024  0.00  0.00    -0.169 F 
ATOM     25  F   LIG    1       19.872 -30.482  10.142  0.00  0.00    -0.169 F 
ENDBRANCH  21  22
ENDBRANCH   8  21
TORSDOF 3
ENDMDL
