MODEL 1
REMARK VINA RESULT:     -10.6      0.000      0.000
REMARK  Name = *****
REMARK                            x       y       z     vdW  Elec       q    Type
REMARK                         _______ _______ _______ _____ _____    ______ ____
ROOT
ATOM      1  C   LIG    1       24.618 -21.444   6.383  0.00  0.00    +0.067 C 
ENDROOT
BRANCH   1   2
ATOM      2  C   LIG    1       25.955 -20.795   6.812  0.00  0.00    +0.087 C 
ATOM      3  C   LIG    1       26.864 -20.322   5.941  0.00  0.00    +0.138 C 
ATOM      4  C   LIG    1       28.118 -19.692   6.388  0.00  0.00    +0.059 A 
ATOM      5  C   LIG    1       28.433 -19.785   7.740  0.00  0.00    +0.143 A 
ATOM      6  C   LIG    1       29.586 -19.226   8.293  0.00  0.00    +0.047 A 
ATOM      7  C   LIG    1       30.458 -18.525   7.473  0.00  0.00    +0.004 A 
ATOM      8  C   LIG    1       30.165 -18.394   6.115  0.00  0.00    +0.001 A 
ATOM      9  O   LIG    1       27.571 -20.415   8.638  0.00  0.00    -0.422 OA
ATOM     10  C   LIG    1       29.003 -18.972   5.576  0.00  0.00    +0.015 A 
ATOM     11  C   LIG    1       26.278 -20.742   8.272  0.00  0.00    +0.345 C 
ATOM     12  O   LIG    1       25.477 -21.032   9.142  0.00  0.00    -0.245 OA
BRANCH   3  13
ATOM     13  O   LIG    1       26.647 -20.412   4.576  0.00  0.00    -0.505 OA
ATOM     14  H   LIG    1       26.798 -21.328   4.290  0.00  0.00    +0.292 HD
ENDBRANCH   3  13
ENDBRANCH   1   2
BRANCH   1  15
ATOM     15  C   LIG    1       24.687 -22.980   6.431  0.00  0.00    -0.039 A 
ATOM     16  C   LIG    1       25.909 -23.669   6.495  0.00  0.00    +0.011 A 
ATOM     17  C   LIG    1       25.945 -25.070   6.482  0.00  0.00    +0.084 A 
ATOM     18  C   LIG    1       24.751 -25.801   6.430  0.00  0.00    +0.273 A 
ATOM     19  C   LIG    1       23.522 -25.137   6.408  0.00  0.00    +0.084 A 
ATOM     20  C   LIG    1       23.497 -23.736   6.407  0.00  0.00    +0.011 A 
BRANCH  18  21
ATOM     21  N   LIG    1       24.795 -27.270   6.395  0.00  0.00    +0.080 N 
ATOM     22  O   LIG    1       25.515 -27.846   7.224  0.00  0.00    -0.576 OA
ATOM     23  O   LIG    1       24.112 -27.849   5.538  0.00  0.00    +0.041 OA
ENDBRANCH  18  21
ENDBRANCH   1  15
BRANCH   1  24
ATOM     24  C   LIG    1       24.076 -20.902   5.035  0.00  0.00    +0.087 C 
BRANCH  24  26
ATOM     25  C   LIG    1       22.408 -18.956   4.971  0.00  0.00    +0.086 C 
ATOM     26  C   LIG    1       22.630 -20.455   5.001  0.00  0.00    +0.131 C 
ATOM     27  O   LIG    1       21.689 -21.247   5.039  0.00  0.00    -0.298 OA
ENDBRANCH  24  26
ENDBRANCH   1  24
TORSDOF 6
ENDMDL
MODEL 2
REMARK VINA RESULT:      -9.4      1.862      4.591
REMARK  Name = *****
REMARK                            x       y       z     vdW  Elec       q    Type
REMARK                         _______ _______ _______ _____ _____    ______ ____
ROOT
ATOM      1  C   LIG    1       25.987 -23.172   6.632  0.00  0.00    +0.067 C 
ENDROOT
BRANCH   1   2
ATOM      2  C   LIG    1       24.903 -22.212   6.086  0.00  0.00    +0.087 C 
ATOM      3  C   LIG    1       25.182 -21.111   5.366  0.00  0.00    +0.138 C 
ATOM      4  C   LIG    1       24.122 -20.232   4.844  0.00  0.00    +0.059 A 
ATOM      5  C   LIG    1       22.825 -20.458   5.294  0.00  0.00    +0.143 A 
ATOM      6  C   LIG    1       21.731 -19.702   4.874  0.00  0.00    +0.047 A 
ATOM      7  C   LIG    1       21.926 -18.686   3.949  0.00  0.00    +0.004 A 
ATOM      8  C   LIG    1       23.210 -18.441   3.462  0.00  0.00    +0.001 A 
ATOM      9  O   LIG    1       22.540 -21.506   6.171  0.00  0.00    -0.422 OA
ATOM     10  C   LIG    1       24.300 -19.209   3.904  0.00  0.00    +0.015 A 
ATOM     11  C   LIG    1       23.474 -22.495   6.423  0.00  0.00    +0.345 C 
ATOM     12  O   LIG    1       23.108 -23.523   6.964  0.00  0.00    -0.245 OA
BRANCH   3  13
ATOM     13  O   LIG    1       26.493 -20.764   5.085  0.00  0.00    -0.505 OA
ATOM     14  H   LIG    1       26.990 -20.704   5.918  0.00  0.00    +0.292 HD
ENDBRANCH   3  13
ENDBRANCH   1   2
BRANCH   1  15
ATOM     15  C   LIG    1       25.678 -24.638   6.284  0.00  0.00    -0.039 A 
ATOM     16  C   LIG    1       25.187 -25.018   5.024  0.00  0.00    +0.011 A 
ATOM     17  C   LIG    1       24.861 -26.353   4.753  0.00  0.00    +0.084 A 
ATOM     18  C   LIG    1       25.050 -27.333   5.735  0.00  0.00    +0.273 A 
ATOM     19  C   LIG    1       25.577 -26.986   6.982  0.00  0.00    +0.084 A 
ATOM     20  C   LIG    1       25.886 -25.645   7.249  0.00  0.00    +0.011 A 
BRANCH  18  21
ATOM     21  N   LIG    1       24.687 -28.730   5.453  0.00  0.00    +0.080 N 
ATOM     22  O   LIG    1       25.564 -29.470   4.981  0.00  0.00    -0.576 OA
ATOM     23  O   LIG    1       23.526 -29.088   5.699  0.00  0.00    +0.041 OA
ENDBRANCH  18  21
ENDBRANCH   1  15
BRANCH   1  24
ATOM     24  C   LIG    1       26.298 -22.956   8.135  0.00  0.00    +0.087 C 
BRANCH  24  26
ATOM     25  C   LIG    1       27.904 -20.958   8.075  0.00  0.00    +0.086 C 
ATOM     26  C   LIG    1       26.600 -21.542   8.582  0.00  0.00    +0.131 C 
ATOM     27  O   LIG    1       25.864 -20.914   9.342  0.00  0.00    -0.298 OA
ENDBRANCH  24  26
ENDBRANCH   1  24
TORSDOF 6
ENDMDL
MODEL 3
REMARK VINA RESULT:      -9.1      1.416      2.321
REMARK  Name = *****
REMARK                            x       y       z     vdW  Elec       q    Type
REMARK                         _______ _______ _______ _____ _____    ______ ____
ROOT
ATOM      1  C   LIG    1       24.844 -22.283   6.692  0.00  0.00    +0.067 C 
ENDROOT
BRANCH   1   2
ATOM      2  C   LIG    1       26.084 -21.380   6.491  0.00  0.00    +0.087 C 
ATOM      3  C   LIG    1       27.023 -21.189   7.434  0.00  0.00    +0.138 C 
ATOM      4  C   LIG    1       28.202 -20.338   7.198  0.00  0.00    +0.059 A 
ATOM      5  C   LIG    1       28.212 -19.566   6.041  0.00  0.00    +0.143 A 
ATOM      6  C   LIG    1       29.270 -18.724   5.697  0.00  0.00    +0.047 A 
ATOM      7  C   LIG    1       30.378 -18.656   6.528  0.00  0.00    +0.004 A 
ATOM      8  C   LIG    1       30.412 -19.429   7.689  0.00  0.00    +0.001 A 
ATOM      9  O   LIG    1       27.164 -19.634   5.122  0.00  0.00    -0.422 OA
ATOM     10  C   LIG    1       29.332 -20.265   8.022  0.00  0.00    +0.015 A 
ATOM     11  C   LIG    1       26.215 -20.637   5.199  0.00  0.00    +0.345 C 
ATOM     12  O   LIG    1       25.487 -20.832   4.242  0.00  0.00    -0.245 OA
BRANCH   3  13
ATOM     13  O   LIG    1       26.913 -21.797   8.674  0.00  0.00    -0.505 OA
ATOM     14  H   LIG    1       26.777 -21.114   9.351  0.00  0.00    +0.292 HD
ENDBRANCH   3  13
ENDBRANCH   1   2
BRANCH   1  15
ATOM     15  C   LIG    1       25.128 -23.741   6.292  0.00  0.00    -0.039 A 
ATOM     16  C   LIG    1       25.697 -24.661   7.187  0.00  0.00    +0.011 A 
ATOM     17  C   LIG    1       25.997 -25.968   6.779  0.00  0.00    +0.084 A 
ATOM     18  C   LIG    1       25.705 -26.378   5.473  0.00  0.00    +0.273 A 
ATOM     19  C   LIG    1       25.100 -25.493   4.577  0.00  0.00    +0.084 A 
ATOM     20  C   LIG    1       24.817 -24.183   4.990  0.00  0.00    +0.011 A 
BRANCH  18  21
ATOM     21  N   LIG    1       26.040 -27.743   5.043  0.00  0.00    +0.080 N 
ATOM     22  O   LIG    1       27.110 -27.912   4.438  0.00  0.00    -0.576 OA
ATOM     23  O   LIG    1       25.237 -28.649   5.309  0.00  0.00    +0.041 OA
ENDBRANCH  18  21
ENDBRANCH   1  15
BRANCH   1  24
ATOM     24  C   LIG    1       23.556 -21.714   6.042  0.00  0.00    +0.087 C 
BRANCH  24  26
ATOM     25  C   LIG    1       22.519 -19.439   5.471  0.00  0.00    +0.086 C 
ATOM     26  C   LIG    1       23.069 -20.368   6.535  0.00  0.00    +0.131 C 
ATOM     27  O   LIG    1       23.150 -20.025   7.714  0.00  0.00    -0.298 OA
ENDBRANCH  24  26
ENDBRANCH   1  24
TORSDOF 6
ENDMDL
MODEL 4
REMARK VINA RESULT:      -8.9      2.519      4.785
REMARK  Name = *****
REMARK                            x       y       z     vdW  Elec       q    Type
REMARK                         _______ _______ _______ _____ _____    ______ ____
ROOT
ATOM      1  C   LIG    1       25.660 -22.102   6.069  0.00  0.00    +0.067 C 
ENDROOT
BRANCH   1   2
ATOM      2  C   LIG    1       26.875 -21.401   6.720  0.00  0.00    +0.087 C 
ATOM      3  C   LIG    1       27.678 -20.546   6.064  0.00  0.00    +0.138 C 
ATOM      4  C   LIG    1       28.814 -19.881   6.724  0.00  0.00    +0.059 A 
ATOM      5  C   LIG    1       29.162 -20.322   7.996  0.00  0.00    +0.143 A 
ATOM      6  C   LIG    1       30.212 -19.773   8.732  0.00  0.00    +0.047 A 
ATOM      7  C   LIG    1       30.942 -18.724   8.190  0.00  0.00    +0.004 A 
ATOM      8  C   LIG    1       30.610 -18.242   6.924  0.00  0.00    +0.001 A 
ATOM      9  O   LIG    1       28.431 -21.326   8.634  0.00  0.00    -0.422 OA
ATOM     10  C   LIG    1       29.554 -18.815   6.196  0.00  0.00    +0.015 A 
ATOM     11  C   LIG    1       27.206 -21.736   8.141  0.00  0.00    +0.345 C 
ATOM     12  O   LIG    1       26.478 -22.402   8.855  0.00  0.00    -0.245 OA
BRANCH   3  13
ATOM     13  O   LIG    1       27.458 -20.256   4.727  0.00  0.00    -0.505 OA
ATOM     14  H   LIG    1       28.312 -20.097   4.293  0.00  0.00    +0.292 HD
ENDBRANCH   3  13
ENDBRANCH   1   2
BRANCH   1  15
ATOM     15  C   LIG    1       24.620 -21.089   5.561  0.00  0.00    -0.039 A 
ATOM     16  C   LIG    1       24.635 -20.605   4.242  0.00  0.00    +0.011 A 
ATOM     17  C   LIG    1       23.710 -19.640   3.821  0.00  0.00    +0.084 A 
ATOM     18  C   LIG    1       22.739 -19.166   4.711  0.00  0.00    +0.273 A 
ATOM     19  C   LIG    1       22.678 -19.663   6.016  0.00  0.00    +0.084 A 
ATOM     20  C   LIG    1       23.617 -20.617   6.432  0.00  0.00    +0.011 A 
BRANCH  18  21
ATOM     21  N   LIG    1       21.785 -18.138   4.271  0.00  0.00    +0.080 N 
ATOM     22  O   LIG    1       21.992 -16.967   4.625  0.00  0.00    -0.576 OA
ATOM     23  O   LIG    1       20.826 -18.498   3.572  0.00  0.00    +0.041 OA
ENDBRANCH  18  21
ENDBRANCH   1  15
BRANCH   1  24
ATOM     24  C   LIG    1       25.041 -23.213   6.957  0.00  0.00    +0.087 C 
BRANCH  24  26
ATOM     25  C   LIG    1       25.063 -24.910   5.034  0.00  0.00    +0.086 C 
ATOM     26  C   LIG    1       24.345 -24.356   6.249  0.00  0.00    +0.131 C 
ATOM     27  O   LIG    1       23.248 -24.786   6.603  0.00  0.00    -0.298 OA
ENDBRANCH  24  26
ENDBRANCH   1  24
TORSDOF 6
ENDMDL
MODEL 5
REMARK VINA RESULT:      -8.4      2.718      6.462
REMARK  Name = *****
REMARK                            x       y       z     vdW  Elec       q    Type
REMARK                         _______ _______ _______ _____ _____    ______ ____
ROOT
ATOM      1  C   LIG    1       25.418 -21.286   6.116  0.00  0.00    +0.067 C 
ENDROOT
BRANCH   1   2
ATOM      2  C   LIG    1       25.494 -22.825   6.256  0.00  0.00    +0.087 C 
ATOM      3  C   LIG    1       25.128 -23.678   5.283  0.00  0.00    +0.138 C 
ATOM      4  C   LIG    1       25.235 -25.137   5.445  0.00  0.00    +0.059 A 
ATOM      5  C   LIG    1       25.530 -25.619   6.716  0.00  0.00    +0.143 A 
ATOM      6  C   LIG    1       25.666 -26.977   7.003  0.00  0.00    +0.047 A 
ATOM      7  C   LIG    1       25.520 -27.903   5.980  0.00  0.00    +0.004 A 
ATOM      8  C   LIG    1       25.241 -27.456   4.688  0.00  0.00    +0.001 A 
ATOM      9  O   LIG    1       25.760 -24.746   7.781  0.00  0.00    -0.422 OA
ATOM     10  C   LIG    1       25.100 -26.084   4.422  0.00  0.00    +0.015 A 
ATOM     11  C   LIG    1       25.947 -23.393   7.564  0.00  0.00    +0.345 C 
ATOM     12  O   LIG    1       26.410 -22.713   8.461  0.00  0.00    -0.245 OA
BRANCH   3  13
ATOM     13  O   LIG    1       24.635 -23.204   4.078  0.00  0.00    -0.505 OA
ATOM     14  H   LIG    1       23.669 -23.125   4.140  0.00  0.00    +0.292 HD
ENDBRANCH   3  13
ENDBRANCH   1   2
BRANCH   1  15
ATOM     15  C   LIG    1       26.700 -20.602   6.619  0.00  0.00    -0.039 A 
ATOM     16  C   LIG    1       27.761 -20.282   5.756  0.00  0.00    +0.011 A 
ATOM     17  C   LIG    1       28.942 -19.710   6.250  0.00  0.00    +0.084 A 
ATOM     18  C   LIG    1       29.064 -19.427   7.616  0.00  0.00    +0.273 A 
ATOM     19  C   LIG    1       28.005 -19.698   8.488  0.00  0.00    +0.084 A 
ATOM     20  C   LIG    1       26.835 -20.283   7.986  0.00  0.00    +0.011 A 
BRANCH  18  21
ATOM     21  N   LIG    1       30.311 -18.847   8.133  0.00  0.00    +0.080 N 
ATOM     22  O   LIG    1       31.057 -18.269   7.327  0.00  0.00    -0.576 OA
ATOM     23  O   LIG    1       30.550 -18.968   9.344  0.00  0.00    +0.041 OA
ENDBRANCH  18  21
ENDBRANCH   1  15
BRANCH   1  24
ATOM     24  C   LIG    1       24.127 -20.676   6.720  0.00  0.00    +0.087 C 
BRANCH  24  26
ATOM     25  C   LIG    1       22.520 -19.303   5.268  0.00  0.00    +0.086 C 
ATOM     26  C   LIG    1       22.895 -20.656   5.840  0.00  0.00    +0.131 C 
ATOM     27  O   LIG    1       22.212 -21.657   5.632  0.00  0.00    -0.298 OA
ENDBRANCH  24  26
ENDBRANCH   1  24
TORSDOF 6
ENDMDL
MODEL 6
REMARK VINA RESULT:      -8.3      2.832      6.201
REMARK  Name = *****
REMARK                            x       y       z     vdW  Elec       q    Type
REMARK                         _______ _______ _______ _____ _____    ______ ____
ROOT
ATOM      1  C   LIG    1       26.105 -22.206   7.445  0.00  0.00    +0.067 C 
ENDROOT
BRANCH   1   2
ATOM      2  C   LIG    1       25.054 -21.346   6.704  0.00  0.00    +0.087 C 
ATOM      3  C   LIG    1       25.317 -20.658   5.579  0.00  0.00    +0.138 C 
ATOM      4  C   LIG    1       24.285 -19.866   4.890  0.00  0.00    +0.059 A 
ATOM      5  C   LIG    1       23.076 -19.680   5.551  0.00  0.00    +0.143 A 
ATOM      6  C   LIG    1       22.014 -18.957   5.006  0.00  0.00    +0.047 A 
ATOM      7  C   LIG    1       22.148 -18.408   3.739  0.00  0.00    +0.004 A 
ATOM      8  C   LIG    1       23.341 -18.590   3.038  0.00  0.00    +0.001 A 
ATOM      9  O   LIG    1       22.840 -20.260   6.799  0.00  0.00    -0.422 OA
ATOM     10  C   LIG    1       24.401 -19.315   3.608  0.00  0.00    +0.015 A 
ATOM     11  C   LIG    1       23.688 -21.229   7.302  0.00  0.00    +0.345 C 
ATOM     12  O   LIG    1       23.315 -21.902   8.247  0.00  0.00    -0.245 OA
BRANCH   3  13
ATOM     13  O   LIG    1       26.586 -20.674   5.022  0.00  0.00    -0.505 OA
ATOM     14  H   LIG    1       27.007 -21.528   5.219  0.00  0.00    +0.292 HD
ENDBRANCH   3  13
ENDBRANCH   1   2
BRANCH   1  15
ATOM     15  C   LIG    1       27.431 -21.450   7.634  0.00  0.00    -0.039 A 
ATOM     16  C   LIG    1       28.673 -22.043   7.352  0.00  0.00    +0.011 A 
ATOM     17  C   LIG    1       29.869 -21.352   7.587  0.00  0.00    +0.084 A 
ATOM     18  C   LIG    1       29.835 -20.043   8.083  0.00  0.00    +0.273 A 
ATOM     19  C   LIG    1       28.611 -19.417   8.331  0.00  0.00    +0.084 A 
ATOM     20  C   LIG    1       27.420 -20.122   8.108  0.00  0.00    +0.011 A 
BRANCH  18  21
ATOM     21  N   LIG    1       31.093 -19.329   8.347  0.00  0.00    +0.080 N 
ATOM     22  O   LIG    1       31.894 -19.845   9.142  0.00  0.00    -0.576 OA
ATOM     23  O   LIG    1       31.282 -18.252   7.763  0.00  0.00    +0.041 OA
ENDBRANCH  18  21
ENDBRANCH   1  15
BRANCH   1  24
ATOM     24  C   LIG    1       26.292 -23.616   6.828  0.00  0.00    +0.087 C 
BRANCH  24  26
ATOM     25  C   LIG    1       24.083 -24.914   6.713  0.00  0.00    +0.086 C 
ATOM     26  C   LIG    1       25.163 -24.151   5.972  0.00  0.00    +0.131 C 
ATOM     27  O   LIG    1       25.136 -24.016   4.749  0.00  0.00    -0.298 OA
ENDBRANCH  24  26
ENDBRANCH   1  24
TORSDOF 6
ENDMDL
MODEL 7
REMARK VINA RESULT:      -7.9      2.848      6.591
REMARK  Name = *****
REMARK                            x       y       z     vdW  Elec       q    Type
REMARK                         _______ _______ _______ _____ _____    ______ ____
ROOT
ATOM      1  C   LIG    1       25.695 -20.862   6.428  0.00  0.00    +0.067 C 
ENDROOT
BRANCH   1   2
ATOM      2  C   LIG    1       25.527 -22.358   6.072  0.00  0.00    +0.087 C 
ATOM      3  C   LIG    1       25.949 -23.361   6.861  0.00  0.00    +0.138 C 
ATOM      4  C   LIG    1       25.753 -24.775   6.498  0.00  0.00    +0.059 A 
ATOM      5  C   LIG    1       25.301 -25.047   5.211  0.00  0.00    +0.143 A 
ATOM      6  C   LIG    1       25.067 -26.341   4.744  0.00  0.00    +0.047 A 
ATOM      7  C   LIG    1       25.273 -27.415   5.598  0.00  0.00    +0.004 A 
ATOM      8  C   LIG    1       25.709 -27.180   6.902  0.00  0.00    +0.001 A 
ATOM      9  O   LIG    1       25.006 -24.015   4.319  0.00  0.00    -0.422 OA
ATOM     10  C   LIG    1       25.946 -25.870   7.350  0.00  0.00    +0.015 A 
ATOM     11  C   LIG    1       24.911 -22.706   4.753  0.00  0.00    +0.345 C 
ATOM     12  O   LIG    1       24.391 -21.881   4.023  0.00  0.00    -0.245 OA
BRANCH   3  13
ATOM     13  O   LIG    1       26.590 -23.094   8.061  0.00  0.00    -0.505 OA
ATOM     14  H   LIG    1       26.185 -22.310   8.468  0.00  0.00    +0.292 HD
ENDBRANCH   3  13
ENDBRANCH   1   2
BRANCH   1  15
ATOM     15  C   LIG    1       27.147 -20.525   6.809  0.00  0.00    -0.039 A 
ATOM     16  C   LIG    1       28.176 -20.480   5.854  0.00  0.00    +0.011 A 
ATOM     17  C   LIG    1       29.500 -20.226   6.237  0.00  0.00    +0.084 A 
ATOM     18  C   LIG    1       29.806 -19.985   7.582  0.00  0.00    +0.273 A 
ATOM     19  C   LIG    1       28.793 -19.983   8.544  0.00  0.00    +0.084 A 
ATOM     20  C   LIG    1       27.474 -20.254   8.153  0.00  0.00    +0.011 A 
BRANCH  18  21
ATOM     21  N   LIG    1       31.200 -19.740   7.981  0.00  0.00    +0.080 N 
ATOM     22  O   LIG    1       31.845 -18.899   7.337  0.00  0.00    -0.576 OA
ATOM     23  O   LIG    1       31.652 -20.387   8.937  0.00  0.00    +0.041 OA
ENDBRANCH  18  21
ENDBRANCH   1  15
BRANCH   1  24
ATOM     24  C   LIG    1       24.662 -20.357   7.468  0.00  0.00    +0.087 C 
BRANCH  24  26
ATOM     25  C   LIG    1       22.512 -20.130   6.089  0.00  0.00    +0.086 C 
ATOM     26  C   LIG    1       23.219 -20.772   7.266  0.00  0.00    +0.131 C 
ATOM     27  O   LIG    1       22.638 -21.545   8.026  0.00  0.00    -0.298 OA
ENDBRANCH  24  26
ENDBRANCH   1  24
TORSDOF 6
ENDMDL
MODEL 8
REMARK VINA RESULT:      -7.8      2.919      6.600
REMARK  Name = *****
REMARK                            x       y       z     vdW  Elec       q    Type
REMARK                         _______ _______ _______ _____ _____    ______ ____
ROOT
ATOM      1  C   LIG    1       26.296 -21.693   7.527  0.00  0.00    +0.067 C 
ENDROOT
BRANCH   1   2
ATOM      2  C   LIG    1       25.537 -20.917   6.425  0.00  0.00    +0.087 C 
ATOM      3  C   LIG    1       24.216 -20.666   6.469  0.00  0.00    +0.138 C 
ATOM      4  C   LIG    1       23.531 -19.905   5.411  0.00  0.00    +0.059 A 
ATOM      5  C   LIG    1       24.252 -19.630   4.254  0.00  0.00    +0.143 A 
ATOM      6  C   LIG    1       23.723 -18.912   3.181  0.00  0.00    +0.047 A 
ATOM      7  C   LIG    1       22.425 -18.429   3.264  0.00  0.00    +0.004 A 
ATOM      8  C   LIG    1       21.678 -18.670   4.417  0.00  0.00    +0.001 A 
ATOM      9  O   LIG    1       25.585 -20.023   4.125  0.00  0.00    -0.422 OA
ATOM     10  C   LIG    1       22.227 -19.401   5.484  0.00  0.00    +0.015 A 
ATOM     11  C   LIG    1       26.302 -20.471   5.220  0.00  0.00    +0.345 C 
ATOM     12  O   LIG    1       27.516 -20.543   5.137  0.00  0.00    -0.245 OA
BRANCH   3  13
ATOM     13  O   LIG    1       23.447 -21.119   7.529  0.00  0.00    -0.505 OA
ATOM     14  H   LIG    1       22.669 -21.584   7.180  0.00  0.00    +0.292 HD
ENDBRANCH   3  13
ENDBRANCH   1   2
BRANCH   1  15
ATOM     15  C   LIG    1       27.661 -21.056   7.837  0.00  0.00    -0.039 A 
ATOM     16  C   LIG    1       27.792 -19.695   8.159  0.00  0.00    +0.011 A 
ATOM     17  C   LIG    1       29.054 -19.128   8.382  0.00  0.00    +0.084 A 
ATOM     18  C   LIG    1       30.202 -19.925   8.311  0.00  0.00    +0.273 A 
ATOM     19  C   LIG    1       30.094 -21.291   8.034  0.00  0.00    +0.084 A 
ATOM     20  C   LIG    1       28.829 -21.846   7.797  0.00  0.00    +0.011 A 
BRANCH  18  21
ATOM     21  N   LIG    1       31.525 -19.321   8.525  0.00  0.00    +0.080 N 
ATOM     22  O   LIG    1       31.834 -18.344   7.826  0.00  0.00    -0.576 OA
ATOM     23  O   LIG    1       32.258 -19.822   9.390  0.00  0.00    +0.041 OA
ENDBRANCH  18  21
ENDBRANCH   1  15
BRANCH   1  24
ATOM     24  C   LIG    1       26.385 -23.218   7.256  0.00  0.00    +0.087 C 
BRANCH  24  26
ATOM     25  C   LIG    1       25.349 -24.586   5.351  0.00  0.00    +0.086 C 
ATOM     26  C   LIG    1       25.155 -23.890   6.683  0.00  0.00    +0.131 C 
ATOM     27  O   LIG    1       24.056 -23.845   7.234  0.00  0.00    -0.298 OA
ENDBRANCH  24  26
ENDBRANCH   1  24
TORSDOF 6
ENDMDL
