MODEL 1
REMARK VINA RESULT:      -8.0      0.000      0.000
REMARK  Name = *****
REMARK                            x       y       z     vdW  Elec       q    Type
REMARK                         _______ _______ _______ _____ _____    ______ ____
ROOT
ATOM      1  C   LIG    1       28.630 -20.052   6.714  0.00  0.00    -0.014 A 
ATOM      2  C   LIG    1       27.398 -19.995   6.051  0.00  0.00    +0.056 A 
ATOM      3  C   LIG    1       26.378 -20.934   6.242  0.00  0.00    +0.174 A 
ATOM      4  C   LIG    1       26.557 -21.927   7.222  0.00  0.00    +0.174 A 
ATOM      5  C   LIG    1       27.749 -21.928   7.955  0.00  0.00    +0.050 A 
ATOM      6  C   LIG    1       28.783 -21.036   7.688  0.00  0.00    +0.010 A 
ENDROOT
BRANCH   1   7
ATOM      7  C   LIG    1       29.702 -19.017   6.403  0.00  0.00    +0.158 C 
BRANCH   7   8
ATOM      8  O   LIG    1       29.304 -18.087   5.387  0.00  0.00    -0.386 OA
ATOM      9  H   LIG    1       29.927 -18.148   4.650  0.00  0.00    +0.210 HD
ENDBRANCH   7   8
BRANCH   7  10
ATOM     10  C   LIG    1       30.232 -18.187   7.618  0.00  0.00    +0.116 C 
BRANCH  10  12
ATOM     11  C   LIG    1       32.092 -17.579   9.037  0.00  0.00    +0.101 C 
ATOM     12  N   LIG    1       31.682 -18.334   7.860  0.00  0.00    -0.316 NA
ATOM     13  H   LIG    1       31.879 -19.327   7.992  0.00  0.00    +0.122 HD
ENDBRANCH  10  12
ENDBRANCH   7  10
ENDBRANCH   1   7
BRANCH   3  14
ATOM     14  O   LIG    1       25.250 -20.921   5.383  0.00  0.00    -0.422 OA
BRANCH  14  15
ATOM     15  C   LIG    1       23.997 -20.480   5.860  0.00  0.00    +0.318 C 
ATOM     16  O   LIG    1       23.690 -20.304   7.042  0.00  0.00    -0.250 OA
BRANCH  15  17
ATOM     17  C   LIG    1       23.022 -20.189   4.722  0.00  0.00    +0.060 C 
ATOM     18  C   LIG    1       23.802 -20.373   3.408  0.00  0.00    +0.022 C 
ATOM     19  C   LIG    1       22.521 -18.742   4.825  0.00  0.00    +0.022 C 
ATOM     20  C   LIG    1       21.811 -21.124   4.735  0.00  0.00    +0.022 C 
ENDBRANCH  15  17
ENDBRANCH  14  15
ENDBRANCH   3  14
BRANCH   4  21
ATOM     21  O   LIG    1       25.558 -22.882   7.563  0.00  0.00    -0.422 OA
BRANCH  21  22
ATOM     22  C   LIG    1       25.632 -24.117   6.876  0.00  0.00    +0.318 C 
ATOM     23  O   LIG    1       26.581 -24.864   6.902  0.00  0.00    -0.250 OA
BRANCH  22  24
ATOM     24  C   LIG    1       24.357 -24.469   6.087  0.00  0.00    +0.060 C 
ATOM     25  C   LIG    1       24.523 -24.005   4.643  0.00  0.00    +0.022 C 
ATOM     26  C   LIG    1       23.107 -23.842   6.713  0.00  0.00    +0.022 C 
ATOM     27  C   LIG    1       24.197 -26.010   6.110  0.00  0.00    +0.022 C 
ENDBRANCH  22  24
ENDBRANCH  21  22
ENDBRANCH   4  21
TORSDOF 10
ENDMDL
MODEL 2
REMARK VINA RESULT:      -7.9      1.174      3.911
REMARK  Name = *****
REMARK                            x       y       z     vdW  Elec       q    Type
REMARK                         _______ _______ _______ _____ _____    ______ ____
ROOT
ATOM      1  C   LIG    1       28.696 -20.840   7.550  0.00  0.00    -0.014 A 
ATOM      2  C   LIG    1       27.852 -21.944   7.719  0.00  0.00    +0.056 A 
ATOM      3  C   LIG    1       26.630 -22.088   7.052  0.00  0.00    +0.174 A 
ATOM      4  C   LIG    1       26.277 -21.127   6.087  0.00  0.00    +0.174 A 
ATOM      5  C   LIG    1       27.165 -20.072   5.846  0.00  0.00    +0.050 A 
ATOM      6  C   LIG    1       28.334 -19.905   6.583  0.00  0.00    +0.010 A 
ENDROOT
BRANCH   1   7
ATOM      7  C   LIG    1       29.981 -20.742   8.359  0.00  0.00    +0.158 C 
BRANCH   7   8
ATOM      8  O   LIG    1       30.770 -21.939   8.303  0.00  0.00    -0.386 OA
ATOM      9  H   LIG    1       30.928 -22.249   9.205  0.00  0.00    +0.210 HD
ENDBRANCH   7   8
BRANCH   7  10
ATOM     10  C   LIG    1       30.923 -19.542   8.015  0.00  0.00    +0.116 C 
BRANCH  10  12
ATOM     11  C   LIG    1       31.997 -17.784   9.278  0.00  0.00    +0.101 C 
ATOM     12  N   LIG    1       31.902 -19.224   9.075  0.00  0.00    -0.316 NA
ATOM     13  H   LIG    1       31.595 -19.682   9.934  0.00  0.00    +0.122 HD
ENDBRANCH  10  12
ENDBRANCH   7  10
ENDBRANCH   1   7
BRANCH   3  14
ATOM     14  O   LIG    1       25.746 -23.128   7.434  0.00  0.00    -0.422 OA
BRANCH  14  15
ATOM     15  C   LIG    1       25.794 -24.379   6.782  0.00  0.00    +0.318 C 
ATOM     16  O   LIG    1       26.744 -25.166   6.788  0.00  0.00    -0.250 OA
BRANCH  15  17
ATOM     17  C   LIG    1       24.485 -24.701   6.065  0.00  0.00    +0.060 C 
ATOM     18  C   LIG    1       24.650 -24.241   4.606  0.00  0.00    +0.022 C 
ATOM     19  C   LIG    1       23.332 -23.929   6.721  0.00  0.00    +0.022 C 
ATOM     20  C   LIG    1       24.150 -26.193   6.100  0.00  0.00    +0.022 C 
ENDBRANCH  15  17
ENDBRANCH  14  15
ENDBRANCH   3  14
BRANCH   4  21
ATOM     21  O   LIG    1       25.103 -21.213   5.287  0.00  0.00    -0.422 OA
BRANCH  21  22
ATOM     22  C   LIG    1       23.958 -20.566   5.809  0.00  0.00    +0.318 C 
ATOM     23  O   LIG    1       23.759 -20.357   6.983  0.00  0.00    -0.250 OA
BRANCH  22  24
ATOM     24  C   LIG    1       22.958 -20.103   4.733  0.00  0.00    +0.060 C 
ATOM     25  C   LIG    1       23.643 -20.142   3.370  0.00  0.00    +0.022 C 
ATOM     26  C   LIG    1       22.418 -18.699   5.024  0.00  0.00    +0.022 C 
ATOM     27  C   LIG    1       21.769 -21.096   4.734  0.00  0.00    +0.022 C 
ENDBRANCH  22  24
ENDBRANCH  21  22
ENDBRANCH   4  21
TORSDOF 10
ENDMDL
MODEL 3
REMARK VINA RESULT:      -7.7      2.587      5.975
REMARK  Name = *****
REMARK                            x       y       z     vdW  Elec       q    Type
REMARK                         _______ _______ _______ _____ _____    ______ ____
ROOT
ATOM      1  C   LIG    1       25.162 -23.608   6.642  0.00  0.00    -0.014 A 
ATOM      2  C   LIG    1       25.011 -22.520   5.774  0.00  0.00    +0.056 A 
ATOM      3  C   LIG    1       25.627 -21.280   5.981  0.00  0.00    +0.174 A 
ATOM      4  C   LIG    1       26.522 -21.149   7.057  0.00  0.00    +0.174 A 
ATOM      5  C   LIG    1       26.749 -22.264   7.872  0.00  0.00    +0.050 A 
ATOM      6  C   LIG    1       26.060 -23.461   7.696  0.00  0.00    +0.010 A 
ENDROOT
BRANCH   1   7
ATOM      7  C   LIG    1       24.410 -24.902   6.366  0.00  0.00    +0.158 C 
BRANCH   7   8
ATOM      8  O   LIG    1       22.986 -24.748   6.436  0.00  0.00    -0.386 OA
ATOM      9  H   LIG    1       22.684 -25.049   7.305  0.00  0.00    +0.210 HD
ENDBRANCH   7   8
BRANCH   7  10
ATOM     10  C   LIG    1       24.739 -25.616   5.014  0.00  0.00    +0.116 C 
BRANCH  10  12
ATOM     11  C   LIG    1       26.284 -26.960   6.297  0.00  0.00    +0.101 C 
ATOM     12  N   LIG    1       26.036 -26.325   5.010  0.00  0.00    -0.316 NA
ATOM     13  H   LIG    1       26.006 -27.027   4.270  0.00  0.00    +0.122 HD
ENDBRANCH  10  12
ENDBRANCH   7  10
ENDBRANCH   1   7
BRANCH   3  14
ATOM     14  O   LIG    1       25.260 -20.176   5.171  0.00  0.00    -0.422 OA
BRANCH  14  15
ATOM     15  C   LIG    1       24.135 -20.259   4.322  0.00  0.00    +0.318 C 
ATOM     16  O   LIG    1       24.145 -20.588   3.133  0.00  0.00    -0.250 OA
BRANCH  15  17
ATOM     17  C   LIG    1       22.838 -19.927   5.056  0.00  0.00    +0.060 C 
ATOM     18  C   LIG    1       21.825 -21.026   4.692  0.00  0.00    +0.022 C 
ATOM     19  C   LIG    1       22.311 -18.565   4.588  0.00  0.00    +0.022 C 
ATOM     20  C   LIG    1       23.022 -19.880   6.575  0.00  0.00    +0.022 C 
ENDBRANCH  15  17
ENDBRANCH  14  15
ENDBRANCH   3  14
BRANCH   4  21
ATOM     21  O   LIG    1       27.270 -19.965   7.316  0.00  0.00    -0.422 OA
BRANCH  21  22
ATOM     22  C   LIG    1       28.488 -19.843   6.606  0.00  0.00    +0.318 C 
ATOM     23  O   LIG    1       28.582 -19.786   5.402  0.00  0.00    -0.250 OA
BRANCH  22  24
ATOM     24  C   LIG    1       29.731 -19.755   7.511  0.00  0.00    +0.060 C 
ATOM     25  C   LIG    1       30.915 -19.266   6.681  0.00  0.00    +0.022 C 
ATOM     26  C   LIG    1       30.055 -21.100   8.168  0.00  0.00    +0.022 C 
ATOM     27  C   LIG    1       29.431 -18.723   8.627  0.00  0.00    +0.022 C 
ENDBRANCH  22  24
ENDBRANCH  21  22
ENDBRANCH   4  21
TORSDOF 10
ENDMDL
MODEL 4
REMARK VINA RESULT:      -7.7      2.890      6.839
REMARK  Name = *****
REMARK                            x       y       z     vdW  Elec       q    Type
REMARK                         _______ _______ _______ _____ _____    ______ ____
ROOT
ATOM      1  C   LIG    1       24.606 -25.088   6.613  0.00  0.00    -0.014 A 
ATOM      2  C   LIG    1       25.770 -24.335   6.812  0.00  0.00    +0.056 A 
ATOM      3  C   LIG    1       25.793 -22.936   6.792  0.00  0.00    +0.174 A 
ATOM      4  C   LIG    1       24.573 -22.248   6.666  0.00  0.00    +0.174 A 
ATOM      5  C   LIG    1       23.395 -22.998   6.563  0.00  0.00    +0.050 A 
ATOM      6  C   LIG    1       23.408 -24.389   6.500  0.00  0.00    +0.010 A 
ENDROOT
BRANCH   1   7
ATOM      7  C   LIG    1       24.686 -26.608   6.598  0.00  0.00    +0.158 C 
BRANCH   7   8
ATOM      8  O   LIG    1       24.098 -27.188   5.425  0.00  0.00    -0.386 OA
ATOM      9  H   LIG    1       23.304 -27.675   5.685  0.00  0.00    +0.210 HD
ENDBRANCH   7   8
BRANCH   7  10
ATOM     10  C   LIG    1       26.113 -27.225   6.762  0.00  0.00    +0.116 C 
BRANCH  10  12
ATOM     11  C   LIG    1       25.394 -29.129   8.066  0.00  0.00    +0.101 C 
ATOM     12  N   LIG    1       26.298 -27.987   8.015  0.00  0.00    -0.316 NA
ATOM     13  H   LIG    1       27.268 -28.303   8.050  0.00  0.00    +0.122 HD
ENDBRANCH  10  12
ENDBRANCH   7  10
ENDBRANCH   1   7
BRANCH   3  14
ATOM     14  O   LIG    1       27.039 -22.260   6.796  0.00  0.00    -0.422 OA
BRANCH  14  15
ATOM     15  C   LIG    1       27.427 -21.489   7.913  0.00  0.00    +0.318 C 
ATOM     16  O   LIG    1       26.835 -21.427   8.994  0.00  0.00    -0.250 OA
BRANCH  15  17
ATOM     17  C   LIG    1       28.731 -20.735   7.662  0.00  0.00    +0.060 C 
ATOM     18  C   LIG    1       28.881 -20.599   6.137  0.00  0.00    +0.022 C 
ATOM     19  C   LIG    1       29.911 -21.537   8.226  0.00  0.00    +0.022 C 
ATOM     20  C   LIG    1       28.736 -19.346   8.304  0.00  0.00    +0.022 C 
ENDBRANCH  15  17
ENDBRANCH  14  15
ENDBRANCH   3  14
BRANCH   4  21
ATOM     21  O   LIG    1       24.462 -20.830   6.718  0.00  0.00    -0.422 OA
BRANCH  21  22
ATOM     22  C   LIG    1       23.639 -20.244   5.727  0.00  0.00    +0.318 C 
ATOM     23  O   LIG    1       22.488 -19.914   5.893  0.00  0.00    -0.250 OA
BRANCH  22  24
ATOM     24  C   LIG    1       24.349 -20.020   4.378  0.00  0.00    +0.060 C 
ATOM     25  C   LIG    1       24.077 -21.215   3.470  0.00  0.00    +0.022 C 
ATOM     26  C   LIG    1       25.856 -19.810   4.555  0.00  0.00    +0.022 C 
ATOM     27  C   LIG    1       23.749 -18.745   3.735  0.00  0.00    +0.022 C 
ENDBRANCH  22  24
ENDBRANCH  21  22
ENDBRANCH   4  21
TORSDOF 10
ENDMDL
MODEL 5
REMARK VINA RESULT:      -7.5      3.199      7.042
REMARK  Name = *****
REMARK                            x       y       z     vdW  Elec       q    Type
REMARK                         _______ _______ _______ _____ _____    ______ ____
ROOT
ATOM      1  C   LIG    1       25.135 -25.473   6.518  0.00  0.00    -0.014 A 
ATOM      2  C   LIG    1       26.133 -24.508   6.701  0.00  0.00    +0.056 A 
ATOM      3  C   LIG    1       25.883 -23.131   6.690  0.00  0.00    +0.174 A 
ATOM      4  C   LIG    1       24.551 -22.693   6.591  0.00  0.00    +0.174 A 
ATOM      5  C   LIG    1       23.539 -23.658   6.505  0.00  0.00    +0.050 A 
ATOM      6  C   LIG    1       23.821 -25.019   6.433  0.00  0.00    +0.010 A 
ENDROOT
BRANCH   1   7
ATOM      7  C   LIG    1       25.508 -26.948   6.492  0.00  0.00    +0.158 C 
BRANCH   7   8
ATOM      8  O   LIG    1       26.215 -27.367   7.667  0.00  0.00    -0.386 OA
ATOM      9  H   LIG    1       26.604 -26.589   8.089  0.00  0.00    +0.210 HD
ENDBRANCH   7   8
BRANCH   7  10
ATOM     10  C   LIG    1       24.331 -27.953   6.268  0.00  0.00    +0.116 C 
BRANCH  10  12
ATOM     11  C   LIG    1       25.193 -30.061   5.460  0.00  0.00    +0.101 C 
ATOM     12  N   LIG    1       24.505 -28.830   5.091  0.00  0.00    -0.316 NA
ATOM     13  H   LIG    1       23.579 -29.042   4.718  0.00  0.00    +0.122 HD
ENDBRANCH  10  12
ENDBRANCH   7  10
ENDBRANCH   1   7
BRANCH   3  14
ATOM     14  O   LIG    1       26.974 -22.226   6.676  0.00  0.00    -0.422 OA
BRANCH  14  15
ATOM     15  C   LIG    1       27.356 -21.553   7.856  0.00  0.00    +0.318 C 
ATOM     16  O   LIG    1       26.774 -21.604   8.942  0.00  0.00    -0.250 OA
BRANCH  15  17
ATOM     17  C   LIG    1       28.640 -20.748   7.665  0.00  0.00    +0.060 C 
ATOM     18  C   LIG    1       29.781 -21.577   8.279  0.00  0.00    +0.022 C 
ATOM     19  C   LIG    1       28.525 -19.406   8.400  0.00  0.00    +0.022 C 
ATOM     20  C   LIG    1       28.942 -20.470   6.191  0.00  0.00    +0.022 C 
ENDBRANCH  15  17
ENDBRANCH  14  15
ENDBRANCH   3  14
BRANCH   4  21
ATOM     21  O   LIG    1       24.168 -21.324   6.654  0.00  0.00    -0.422 OA
BRANCH  21  22
ATOM     22  C   LIG    1       23.359 -20.865   5.587  0.00  0.00    +0.318 C 
ATOM     23  O   LIG    1       22.151 -20.911   5.567  0.00  0.00    -0.250 OA
BRANCH  22  24
ATOM     24  C   LIG    1       24.156 -20.251   4.420  0.00  0.00    +0.060 C 
ATOM     25  C   LIG    1       25.569 -19.930   4.899  0.00  0.00    +0.022 C 
ATOM     26  C   LIG    1       23.478 -18.995   3.865  0.00  0.00    +0.022 C 
ATOM     27  C   LIG    1       24.230 -21.309   3.290  0.00  0.00    +0.022 C 
ENDBRANCH  22  24
ENDBRANCH  21  22
ENDBRANCH   4  21
TORSDOF 10
ENDMDL
MODEL 6
REMARK VINA RESULT:      -7.4      2.551      4.922
REMARK  Name = *****
REMARK                            x       y       z     vdW  Elec       q    Type
REMARK                         _______ _______ _______ _____ _____    ______ ____
ROOT
ATOM      1  C   LIG    1       24.411 -19.670   4.534  0.00  0.00    -0.014 A 
ATOM      2  C   LIG    1       25.591 -20.175   5.091  0.00  0.00    +0.056 A 
ATOM      3  C   LIG    1       25.614 -21.199   6.045  0.00  0.00    +0.174 A 
ATOM      4  C   LIG    1       24.401 -21.821   6.389  0.00  0.00    +0.174 A 
ATOM      5  C   LIG    1       23.229 -21.382   5.761  0.00  0.00    +0.050 A 
ATOM      6  C   LIG    1       23.221 -20.306   4.879  0.00  0.00    +0.010 A 
ENDROOT
BRANCH   1   7
ATOM      7  C   LIG    1       24.479 -18.517   3.542  0.00  0.00    +0.158 C 
BRANCH   7   8
ATOM      8  O   LIG    1       23.524 -17.484   3.817  0.00  0.00    -0.386 OA
ATOM      9  H   LIG    1       23.035 -17.289   3.006  0.00  0.00    +0.210 HD
ENDBRANCH   7   8
BRANCH   7  10
ATOM     10  C   LIG    1       25.876 -17.835   3.374  0.00  0.00    +0.116 C 
BRANCH  10  12
ATOM     11  C   LIG    1       27.028 -15.720   3.585  0.00  0.00    +0.101 C 
ATOM     12  N   LIG    1       25.808 -16.378   3.134  0.00  0.00    -0.316 NA
ATOM     13  H   LIG    1       25.678 -16.231   2.132  0.00  0.00    +0.122 HD
ENDBRANCH  10  12
ENDBRANCH   7  10
ENDBRANCH   1   7
BRANCH   3  14
ATOM     14  O   LIG    1       26.830 -21.508   6.706  0.00  0.00    -0.422 OA
BRANCH  14  15
ATOM     15  C   LIG    1       27.323 -20.662   7.722  0.00  0.00    +0.318 C 
ATOM     16  O   LIG    1       26.696 -20.271   8.710  0.00  0.00    -0.250 OA
BRANCH  15  17
ATOM     17  C   LIG    1       28.786 -20.289   7.496  0.00  0.00    +0.060 C 
ATOM     18  C   LIG    1       29.632 -21.466   8.013  0.00  0.00    +0.022 C 
ATOM     19  C   LIG    1       29.127 -19.022   8.291  0.00  0.00    +0.022 C 
ATOM     20  C   LIG    1       29.105 -20.037   6.021  0.00  0.00    +0.022 C 
ENDBRANCH  15  17
ENDBRANCH  14  15
ENDBRANCH   3  14
BRANCH   4  21
ATOM     21  O   LIG    1       24.311 -22.926   7.281  0.00  0.00    -0.422 OA
BRANCH  21  22
ATOM     22  C   LIG    1       23.733 -24.101   6.744  0.00  0.00    +0.318 C 
ATOM     23  O   LIG    1       22.552 -24.358   6.758  0.00  0.00    -0.250 OA
BRANCH  22  24
ATOM     24  C   LIG    1       24.751 -25.053   6.088  0.00  0.00    +0.060 C 
ATOM     25  C   LIG    1       26.085 -24.934   6.820  0.00  0.00    +0.022 C 
ATOM     26  C   LIG    1       24.928 -24.758   4.596  0.00  0.00    +0.022 C 
ATOM     27  C   LIG    1       24.214 -26.498   6.243  0.00  0.00    +0.022 C 
ENDBRANCH  22  24
ENDBRANCH  21  22
ENDBRANCH   4  21
TORSDOF 10
ENDMDL
MODEL 7
REMARK VINA RESULT:      -7.2      3.002      6.323
REMARK  Name = *****
REMARK                            x       y       z     vdW  Elec       q    Type
REMARK                         _______ _______ _______ _____ _____    ______ ____
ROOT
ATOM      1  C   LIG    1       24.958 -24.600   6.384  0.00  0.00    -0.014 A 
ATOM      2  C   LIG    1       24.703 -23.726   5.320  0.00  0.00    +0.056 A 
ATOM      3  C   LIG    1       25.122 -22.390   5.306  0.00  0.00    +0.174 A 
ATOM      4  C   LIG    1       25.924 -21.929   6.365  0.00  0.00    +0.174 A 
ATOM      5  C   LIG    1       26.262 -22.829   7.383  0.00  0.00    +0.050 A 
ATOM      6  C   LIG    1       25.763 -24.127   7.417  0.00  0.00    +0.010 A 
ENDROOT
BRANCH   1   7
ATOM      7  C   LIG    1       24.418 -26.022   6.336  0.00  0.00    +0.158 C 
BRANCH   7   8
ATOM      8  O   LIG    1       23.574 -26.263   5.202  0.00  0.00    -0.386 OA
ATOM      9  H   LIG    1       22.916 -25.555   5.149  0.00  0.00    +0.210 HD
ENDBRANCH   7   8
BRANCH   7  10
ATOM     10  C   LIG    1       25.483 -27.167   6.381  0.00  0.00    +0.116 C 
BRANCH  10  12
ATOM     11  C   LIG    1       24.702 -29.443   6.164  0.00  0.00    +0.101 C 
ATOM     12  N   LIG    1       25.209 -28.280   5.448  0.00  0.00    -0.316 NA
ATOM     13  H   LIG    1       24.520 -27.956   4.768  0.00  0.00    +0.122 HD
ENDBRANCH  10  12
ENDBRANCH   7  10
ENDBRANCH   1   7
BRANCH   3  14
ATOM     14  O   LIG    1       24.647 -21.523   4.290  0.00  0.00    -0.422 OA
BRANCH  14  15
ATOM     15  C   LIG    1       24.288 -20.193   4.600  0.00  0.00    +0.318 C 
ATOM     16  O   LIG    1       24.951 -19.184   4.348  0.00  0.00    -0.250 OA
BRANCH  15  17
ATOM     17  C   LIG    1       22.919 -20.113   5.272  0.00  0.00    +0.060 C 
ATOM     18  C   LIG    1       22.310 -18.755   4.881  0.00  0.00    +0.022 C 
ATOM     19  C   LIG    1       23.084 -20.183   6.795  0.00  0.00    +0.022 C 
ATOM     20  C   LIG    1       21.984 -21.241   4.832  0.00  0.00    +0.022 C 
ENDBRANCH  15  17
ENDBRANCH  14  15
ENDBRANCH   3  14
BRANCH   4  21
ATOM     21  O   LIG    1       26.477 -20.618   6.416  0.00  0.00    -0.422 OA
BRANCH  21  22
ATOM     22  C   LIG    1       27.180 -20.297   7.602  0.00  0.00    +0.318 C 
ATOM     23  O   LIG    1       26.685 -20.240   8.703  0.00  0.00    -0.250 OA
BRANCH  22  24
ATOM     24  C   LIG    1       28.684 -20.045   7.387  0.00  0.00    +0.060 C 
ATOM     25  C   LIG    1       29.450 -21.333   7.678  0.00  0.00    +0.022 C 
ATOM     26  C   LIG    1       29.202 -18.901   8.264  0.00  0.00    +0.022 C 
ATOM     27  C   LIG    1       28.891 -19.656   5.901  0.00  0.00    +0.022 C 
ENDBRANCH  22  24
ENDBRANCH  21  22
ENDBRANCH   4  21
TORSDOF 10
ENDMDL
MODEL 8
REMARK VINA RESULT:      -6.9      2.864      6.279
REMARK  Name = *****
REMARK                            x       y       z     vdW  Elec       q    Type
REMARK                         _______ _______ _______ _____ _____    ______ ____
ROOT
ATOM      1  C   LIG    1       24.967 -24.421   6.473  0.00  0.00    -0.014 A 
ATOM      2  C   LIG    1       24.655 -23.477   5.487  0.00  0.00    +0.056 A 
ATOM      3  C   LIG    1       25.125 -22.158   5.510  0.00  0.00    +0.174 A 
ATOM      4  C   LIG    1       26.035 -21.789   6.516  0.00  0.00    +0.174 A 
ATOM      5  C   LIG    1       26.424 -22.759   7.448  0.00  0.00    +0.050 A 
ATOM      6  C   LIG    1       25.878 -24.039   7.454  0.00  0.00    +0.010 A 
ENDROOT
BRANCH   1   7
ATOM      7  C   LIG    1       24.366 -25.817   6.394  0.00  0.00    +0.158 C 
BRANCH   7   8
ATOM      8  O   LIG    1       23.585 -26.025   5.210  0.00  0.00    -0.386 OA
ATOM      9  H   LIG    1       23.253 -26.934   5.213  0.00  0.00    +0.210 HD
ENDBRANCH   7   8
BRANCH   7  10
ATOM     10  C   LIG    1       25.374 -27.008   6.508  0.00  0.00    +0.116 C 
BRANCH  10  12
ATOM     11  C   LIG    1       25.190 -29.161   5.426  0.00  0.00    +0.101 C 
ATOM     12  N   LIG    1       25.558 -27.762   5.250  0.00  0.00    -0.316 NA
ATOM     13  H   LIG    1       24.970 -27.330   4.537  0.00  0.00    +0.122 HD
ENDBRANCH  10  12
ENDBRANCH   7  10
ENDBRANCH   1   7
BRANCH   3  14
ATOM     14  O   LIG    1       24.598 -21.216   4.591  0.00  0.00    -0.422 OA
BRANCH  14  15
ATOM     15  C   LIG    1       23.685 -20.231   5.026  0.00  0.00    +0.318 C 
ATOM     16  O   LIG    1       23.138 -20.184   6.131  0.00  0.00    -0.250 OA
BRANCH  15  17
ATOM     17  C   LIG    1       23.456 -19.155   3.967  0.00  0.00    +0.060 C 
ATOM     18  C   LIG    1       22.235 -18.337   4.419  0.00  0.00    +0.022 C 
ATOM     19  C   LIG    1       23.161 -19.815   2.614  0.00  0.00    +0.022 C 
ATOM     20  C   LIG    1       24.663 -18.230   3.802  0.00  0.00    +0.022 C 
ENDBRANCH  15  17
ENDBRANCH  14  15
ENDBRANCH   3  14
BRANCH   4  21
ATOM     21  O   LIG    1       26.644 -20.504   6.591  0.00  0.00    -0.422 OA
BRANCH  21  22
ATOM     22  C   LIG    1       27.364 -20.237   7.779  0.00  0.00    +0.318 C 
ATOM     23  O   LIG    1       26.884 -20.223   8.888  0.00  0.00    -0.250 OA
BRANCH  22  24
ATOM     24  C   LIG    1       28.867 -19.984   7.554  0.00  0.00    +0.060 C 
ATOM     25  C   LIG    1       29.642 -21.249   7.911  0.00  0.00    +0.022 C 
ATOM     26  C   LIG    1       29.374 -18.793   8.373  0.00  0.00    +0.022 C 
ATOM     27  C   LIG    1       29.073 -19.669   6.051  0.00  0.00    +0.022 C 
ENDBRANCH  22  24
ENDBRANCH  21  22
ENDBRANCH   4  21
TORSDOF 10
ENDMDL
MODEL 9
REMARK VINA RESULT:      -6.8      1.812      2.532
REMARK  Name = *****
REMARK                            x       y       z     vdW  Elec       q    Type
REMARK                         _______ _______ _______ _____ _____    ______ ____
ROOT
ATOM      1  C   LIG    1       27.294 -20.940   6.989  0.00  0.00    -0.014 A 
ATOM      2  C   LIG    1       26.302 -20.763   6.016  0.00  0.00    +0.056 A 
ATOM      3  C   LIG    1       25.408 -21.770   5.637  0.00  0.00    +0.174 A 
ATOM      4  C   LIG    1       25.438 -22.990   6.336  0.00  0.00    +0.174 A 
ATOM      5  C   LIG    1       26.366 -23.137   7.375  0.00  0.00    +0.050 A 
ATOM      6  C   LIG    1       27.300 -22.151   7.676  0.00  0.00    +0.010 A 
ENDROOT
BRANCH   1   7
ATOM      7  C   LIG    1       28.258 -19.804   7.299  0.00  0.00    +0.158 C 
BRANCH   7   8
ATOM      8  O   LIG    1       28.402 -19.560   8.704  0.00  0.00    -0.386 OA
ATOM      9  H   LIG    1       28.200 -18.630   8.880  0.00  0.00    +0.210 HD
ENDBRANCH   7   8
BRANCH   7  10
ATOM     10  C   LIG    1       29.694 -19.934   6.694  0.00  0.00    +0.116 C 
BRANCH  10  12
ATOM     11  C   LIG    1       29.155 -18.104   5.211  0.00  0.00    +0.101 C 
ATOM     12  N   LIG    1       30.188 -18.701   6.048  0.00  0.00    -0.316 NA
ATOM     13  H   LIG    1       30.466 -18.051   6.784  0.00  0.00    +0.122 HD
ENDBRANCH  10  12
ENDBRANCH   7  10
ENDBRANCH   1   7
BRANCH   3  14
ATOM     14  O   LIG    1       24.576 -21.573   4.506  0.00  0.00    -0.422 OA
BRANCH  14  15
ATOM     15  C   LIG    1       24.025 -20.301   4.241  0.00  0.00    +0.318 C 
ATOM     16  O   LIG    1       24.489 -19.454   3.473  0.00  0.00    -0.250 OA
BRANCH  15  17
ATOM     17  C   LIG    1       22.718 -20.075   4.998  0.00  0.00    +0.060 C 
ATOM     18  C   LIG    1       22.185 -18.698   4.567  0.00  0.00    +0.022 C 
ATOM     19  C   LIG    1       22.987 -20.073   6.508  0.00  0.00    +0.022 C 
ATOM     20  C   LIG    1       21.672 -21.149   4.693  0.00  0.00    +0.022 C 
ENDBRANCH  15  17
ENDBRANCH  14  15
ENDBRANCH   3  14
BRANCH   4  21
ATOM     21  O   LIG    1       24.524 -24.055   6.096  0.00  0.00    -0.422 OA
BRANCH  21  22
ATOM     22  C   LIG    1       24.914 -24.985   5.104  0.00  0.00    +0.318 C 
ATOM     23  O   LIG    1       24.985 -24.743   3.921  0.00  0.00    -0.250 OA
BRANCH  22  24
ATOM     24  C   LIG    1       25.285 -26.372   5.660  0.00  0.00    +0.060 C 
ATOM     25  C   LIG    1       24.270 -26.766   6.729  0.00  0.00    +0.022 C 
ATOM     26  C   LIG    1       26.705 -26.397   6.232  0.00  0.00    +0.022 C 
ATOM     27  C   LIG    1       25.210 -27.386   4.490  0.00  0.00    +0.022 C 
ENDBRANCH  22  24
ENDBRANCH  21  22
ENDBRANCH   4  21
TORSDOF 10
ENDMDL
