MODEL 1
REMARK VINA RESULT:      22.8      0.000      0.000
REMARK  Name = *****
REMARK                            x       y       z     vdW  Elec       q    Type
REMARK                         _______ _______ _______ _____ _____    ______ ____
ROOT
ATOM      1  C   LIG    1       26.918 -19.335   4.923  0.00  0.00    +0.144 A 
ATOM      2  C   LIG    1       25.847 -18.843   4.160  0.00  0.00    +0.077 A 
ATOM      3  C   LIG    1       25.965 -17.561   3.600  0.00  0.00    +0.038 A 
ATOM      4  C   LIG    1       27.104 -16.716   3.862  0.00  0.00    +0.025 A 
ATOM      5  C   LIG    1       28.148 -17.261   4.633  0.00  0.00    +0.076 A 
ATOM      6  N   LIG    1       29.290 -16.635   4.937  0.00  0.00    -0.254 NA
ATOM      7  C   LIG    1       29.474 -15.391   4.477  0.00  0.00    +0.132 A 
ATOM      8  C   LIG    1       28.525 -14.724   3.730  0.00  0.00    +0.091 A 
ATOM      9  C   LIG    1       27.307 -15.362   3.432  0.00  0.00    +0.060 A 
ATOM     10  C   LIG    1       28.030 -18.525   5.154  0.00  0.00    +0.075 A 
ENDROOT
BRANCH   2  11
ATOM     11  N   LIG    1       24.714 -19.689   4.014  0.00  0.00    -0.279 N 
ATOM     12  H   LIG    1       23.917 -19.400   4.571  0.00  0.00    +0.155 HD
ATOM     13  C   LIG    1       24.486 -20.640   3.038  0.00  0.00    +0.241 C 
ATOM     14  O   LIG    1       25.252 -20.964   2.142  0.00  0.00    -0.271 OA
BRANCH  13  15
ATOM     15  C   LIG    1       23.103 -21.215   3.134  0.00  0.00    +0.064 C 
ATOM     16  C   LIG    1       22.032 -20.407   3.192  0.00  0.00    -0.007 C 
BRANCH  16  17
ATOM     17  C   LIG    1       20.600 -20.843   3.381  0.00  0.00    +0.111 C 
BRANCH  17  18
ATOM     18  N   LIG    1       19.726 -19.721   3.774  0.00  0.00    -0.305 NA
ATOM     19  C   LIG    1       19.352 -18.909   2.612  0.00  0.00    +0.105 C 
ATOM     20  C   LIG    1       20.365 -18.863   4.777  0.00  0.00    +0.105 C 
ENDBRANCH  17  18
ENDBRANCH  16  17
ENDBRANCH  13  15
ENDBRANCH   2  11
BRANCH   8  21
ATOM     21  C   LIG    1       28.829 -13.390   3.299  0.00  0.00    +0.103 C 
ATOM     22  N   LIG    1       29.039 -12.310   2.971  0.00  0.00    -0.191 NA
ENDBRANCH   8  21
BRANCH   9  23
ATOM     23  N   LIG    1       26.284 -14.583   2.829  0.00  0.00    -0.313 N 
ATOM     24  H   LIG    1       26.350 -14.524   1.815  0.00  0.00    +0.152 HD
BRANCH  23  25
ATOM     25  C   LIG    1       25.521 -13.516   3.359  0.00  0.00    +0.033 A 
ATOM     26  C   LIG    1       25.842 -12.850   4.547  0.00  0.00    +0.047 A 
ATOM     27  C   LIG    1       24.876 -12.097   5.222  0.00  0.00    +0.084 A 
ATOM     28 CL   LIG    1       25.268 -11.450   6.775  0.00  0.00    -0.080 Cl
ATOM     29  C   LIG    1       23.607 -11.938   4.665  0.00  0.00    +0.139 A 
ATOM     30  C   LIG    1       23.343 -12.428   3.389  0.00  0.00    +0.049 A 
ATOM     31  C   LIG    1       24.294 -13.221   2.746  0.00  0.00    +0.027 A 
BRANCH  29  32
ATOM     32  O   LIG    1       22.539 -11.563   5.435  0.00  0.00    -0.484 OA
BRANCH  32  33
ATOM     33  C   LIG    1       22.340 -12.391   6.577  0.00  0.00    +0.284 C 
BRANCH  33  34
ATOM     34  C   LIG    1       22.288 -13.828   6.098  0.00  0.00    +0.078 A 
ATOM     35  N   LIG    1       21.299 -14.621   6.589  0.00  0.00    -0.257 NA
ATOM     36  C   LIG    1       21.235 -15.892   6.133  0.00  0.00    +0.111 A 
ATOM     37  C   LIG    1       22.121 -16.430   5.214  0.00  0.00    +0.020 A 
ATOM     38  C   LIG    1       23.126 -15.609   4.718  0.00  0.00    +0.003 A 
ATOM     39  C   LIG    1       23.207 -14.288   5.154  0.00  0.00    +0.027 A 
ENDBRANCH  33  34
ENDBRANCH  32  33
ENDBRANCH  29  32
ENDBRANCH  23  25
ENDBRANCH   9  23
BRANCH   1  40
ATOM     40  O   LIG    1       26.800 -20.591   5.484  0.00  0.00    -0.490 OA
BRANCH  40  42
ATOM     41  C   LIG    1       24.846 -20.279   6.858  0.00  0.00    +0.048 C 
ATOM     42  C   LIG    1       26.329 -20.588   6.839  0.00  0.00    +0.226 C 
ENDBRANCH  40  42
ENDBRANCH   1  40
TORSDOF 12
ENDMDL
MODEL 2
REMARK VINA RESULT:      23.8      2.278      8.581
REMARK  Name = *****
REMARK                            x       y       z     vdW  Elec       q    Type
REMARK                         _______ _______ _______ _____ _____    ______ ____
ROOT
ATOM      1  C   LIG    1       23.103 -14.264   3.091  0.00  0.00    +0.144 A 
ATOM      2  C   LIG    1       23.801 -14.962   4.089  0.00  0.00    +0.077 A 
ATOM      3  C   LIG    1       23.367 -16.256   4.421  0.00  0.00    +0.038 A 
ATOM      4  C   LIG    1       22.184 -16.838   3.836  0.00  0.00    +0.025 A 
ATOM      5  C   LIG    1       21.524 -16.092   2.841  0.00  0.00    +0.076 A 
ATOM      6  N   LIG    1       20.440 -16.495   2.168  0.00  0.00    -0.254 NA
ATOM      7  C   LIG    1       19.933 -17.703   2.446  0.00  0.00    +0.132 A 
ATOM      8  C   LIG    1       20.463 -18.530   3.415  0.00  0.00    +0.091 A 
ATOM      9  C   LIG    1       21.582 -18.102   4.152  0.00  0.00    +0.060 A 
ATOM     10  C   LIG    1       21.973 -14.840   2.508  0.00  0.00    +0.075 A 
ENDROOT
BRANCH   2  11
ATOM     11  N   LIG    1       24.904 -14.299   4.693  0.00  0.00    -0.279 N 
ATOM     12  H   LIG    1       25.687 -14.158   4.065  0.00  0.00    +0.155 HD
ATOM     13  C   LIG    1       24.924 -13.606   5.888  0.00  0.00    +0.241 C 
ATOM     14  O   LIG    1       23.998 -13.480   6.675  0.00  0.00    -0.271 OA
BRANCH  13  15
ATOM     15  C   LIG    1       26.239 -12.915   6.107  0.00  0.00    +0.064 C 
ATOM     16  C   LIG    1       27.111 -12.774   5.095  0.00  0.00    -0.007 C 
BRANCH  16  17
ATOM     17  C   LIG    1       28.497 -12.186   5.193  0.00  0.00    +0.111 C 
BRANCH  17  18
ATOM     18  N   LIG    1       29.321 -12.509   4.013  0.00  0.00    -0.305 NA
ATOM     19  C   LIG    1       29.034 -11.597   2.902  0.00  0.00    +0.105 C 
ATOM     20  C   LIG    1       29.111 -13.891   3.568  0.00  0.00    +0.105 C 
ENDBRANCH  17  18
ENDBRANCH  16  17
ENDBRANCH  13  15
ENDBRANCH   2  11
BRANCH   8  21
ATOM     21  C   LIG    1       19.829 -19.798   3.632  0.00  0.00    +0.103 C 
ATOM     22  N   LIG    1       19.356 -20.830   3.806  0.00  0.00    -0.191 NA
ENDBRANCH   8  21
BRANCH   9  23
ATOM     23  N   LIG    1       21.982 -18.890   5.263  0.00  0.00    -0.313 N 
ATOM     24  H   LIG    1       21.685 -18.520   6.163  0.00  0.00    +0.152 HD
BRANCH  23  25
ATOM     25  C   LIG    1       23.080 -19.772   5.403  0.00  0.00    +0.033 A 
ATOM     26  C   LIG    1       24.155 -19.539   6.268  0.00  0.00    +0.047 A 
ATOM     27  C   LIG    1       25.369 -20.209   6.088  0.00  0.00    +0.084 A 
ATOM     28 CL   LIG    1       26.720 -19.751   7.061  0.00  0.00    -0.080 Cl
ATOM     29  C   LIG    1       25.483 -21.181   5.093  0.00  0.00    +0.139 A 
ATOM     30  C   LIG    1       24.360 -21.562   4.363  0.00  0.00    +0.049 A 
ATOM     31  C   LIG    1       23.168 -20.853   4.513  0.00  0.00    +0.027 A 
BRANCH  29  32
ATOM     32  O   LIG    1       26.708 -21.571   4.624  0.00  0.00    -0.484 OA
BRANCH  32  33
ATOM     33  C   LIG    1       27.137 -20.848   3.474  0.00  0.00    +0.284 C 
BRANCH  33  34
ATOM     34  C   LIG    1       27.407 -19.420   3.905  0.00  0.00    +0.078 A 
ATOM     35  N   LIG    1       26.556 -18.457   3.462  0.00  0.00    -0.257 NA
ATOM     36  C   LIG    1       26.779 -17.190   3.876  0.00  0.00    +0.111 A 
ATOM     37  C   LIG    1       27.824 -16.820   4.706  0.00  0.00    +0.020 A 
ATOM     38  C   LIG    1       28.686 -17.813   5.154  0.00  0.00    +0.003 A 
ATOM     39  C   LIG    1       28.471 -19.132   4.760  0.00  0.00    +0.027 A 
ENDBRANCH  33  34
ENDBRANCH  32  33
ENDBRANCH  29  32
ENDBRANCH  23  25
ENDBRANCH   9  23
BRANCH   1  40
ATOM     40  O   LIG    1       23.520 -12.988   2.770  0.00  0.00    -0.490 OA
BRANCH  40  42
ATOM     41  C   LIG    1       25.341 -11.561   2.098  0.00  0.00    +0.048 C 
ATOM     42  C   LIG    1       24.726 -12.942   1.994  0.00  0.00    +0.226 C 
ENDBRANCH  40  42
ENDBRANCH   1  40
TORSDOF 12
ENDMDL
MODEL 3
REMARK VINA RESULT:      24.2      2.339      8.273
REMARK  Name = *****
REMARK                            x       y       z     vdW  Elec       q    Type
REMARK                         _______ _______ _______ _____ _____    ______ ____
ROOT
ATOM      1  C   LIG    1       22.940 -13.899   5.205  0.00  0.00    +0.144 A 
ATOM      2  C   LIG    1       23.908 -14.351   4.294  0.00  0.00    +0.077 A 
ATOM      3  C   LIG    1       23.866 -15.697   3.894  0.00  0.00    +0.038 A 
ATOM      4  C   LIG    1       22.924 -16.632   4.459  0.00  0.00    +0.025 A 
ATOM      5  C   LIG    1       21.977 -16.123   5.368  0.00  0.00    +0.076 A 
ATOM      6  N   LIG    1       21.009 -16.837   5.953  0.00  0.00    -0.254 NA
ATOM      7  C   LIG    1       20.915 -18.140   5.660  0.00  0.00    +0.132 A 
ATOM      8  C   LIG    1       21.792 -18.777   4.805  0.00  0.00    +0.091 A 
ATOM      9  C   LIG    1       22.833 -18.042   4.210  0.00  0.00    +0.060 A 
ATOM     10  C   LIG    1       22.014 -14.800   5.731  0.00  0.00    +0.075 A 
ENDROOT
BRANCH   2  11
ATOM     11  N   LIG    1       24.866 -13.403   3.843  0.00  0.00    -0.279 N 
ATOM     12  H   LIG    1       25.801 -13.571   4.197  0.00  0.00    +0.155 HD
ATOM     13  C   LIG    1       24.740 -12.497   2.808  0.00  0.00    +0.241 C 
ATOM     14  O   LIG    1       23.749 -12.312   2.116  0.00  0.00    -0.271 OA
BRANCH  13  15
ATOM     15  C   LIG    1       26.029 -11.776   2.540  0.00  0.00    +0.064 C 
ATOM     16  C   LIG    1       27.207 -12.367   2.800  0.00  0.00    -0.007 C 
BRANCH  16  17
ATOM     17  C   LIG    1       28.568 -11.730   2.666  0.00  0.00    +0.111 C 
BRANCH  17  18
ATOM     18  N   LIG    1       29.468 -12.109   3.773  0.00  0.00    -0.305 NA
ATOM     19  C   LIG    1       29.473 -13.561   3.977  0.00  0.00    +0.105 C 
ATOM     20  C   LIG    1       29.094 -11.447   5.026  0.00  0.00    +0.105 C 
ENDBRANCH  17  18
ENDBRANCH  16  17
ENDBRANCH  13  15
ENDBRANCH   2  11
BRANCH   8  21
ATOM     21  C   LIG    1       21.600 -20.179   4.573  0.00  0.00    +0.103 C 
ATOM     22  N   LIG    1       21.474 -21.310   4.414  0.00  0.00    -0.191 NA
ENDBRANCH   8  21
BRANCH   9  23
ATOM     23  N   LIG    1       23.824 -18.763   3.491  0.00  0.00    -0.313 N 
ATOM     24  H   LIG    1       23.473 -19.231   2.658  0.00  0.00    +0.152 HD
BRANCH  23  25
ATOM     25  C   LIG    1       25.030 -19.346   3.943  0.00  0.00    +0.033 A 
ATOM     26  C   LIG    1       25.099 -20.274   4.988  0.00  0.00    +0.047 A 
ATOM     27  C   LIG    1       26.309 -20.514   5.646  0.00  0.00    +0.084 A 
ATOM     28 CL   LIG    1       26.303 -21.525   7.046  0.00  0.00    -0.080 Cl
ATOM     29  C   LIG    1       27.475 -19.889   5.203  0.00  0.00    +0.139 A 
ATOM     30  C   LIG    1       27.453 -19.122   4.041  0.00  0.00    +0.049 A 
ATOM     31  C   LIG    1       26.233 -18.846   3.421  0.00  0.00    +0.027 A 
BRANCH  29  32
ATOM     32  O   LIG    1       28.569 -19.776   6.018  0.00  0.00    -0.484 OA
BRANCH  32  33
ATOM     33  C   LIG    1       29.472 -18.748   5.623  0.00  0.00    +0.284 C 
BRANCH  33  34
ATOM     34  C   LIG    1       28.647 -17.535   5.242  0.00  0.00    +0.078 A 
ATOM     35  N   LIG    1       28.480 -16.566   6.181  0.00  0.00    -0.257 NA
ATOM     36  C   LIG    1       27.772 -15.469   5.826  0.00  0.00    +0.111 A 
ATOM     37  C   LIG    1       27.202 -15.287   4.578  0.00  0.00    +0.020 A 
ATOM     38  C   LIG    1       27.382 -16.283   3.626  0.00  0.00    +0.003 A 
ATOM     39  C   LIG    1       28.122 -17.417   3.955  0.00  0.00    +0.027 A 
ENDBRANCH  33  34
ENDBRANCH  32  33
ENDBRANCH  29  32
ENDBRANCH  23  25
ENDBRANCH   9  23
BRANCH   1  40
ATOM     40  O   LIG    1       22.986 -12.580   5.608  0.00  0.00    -0.490 OA
BRANCH  40  42
ATOM     41  C   LIG    1       25.112 -11.453   5.484  0.00  0.00    +0.048 C 
ATOM     42  C   LIG    1       24.157 -12.236   6.362  0.00  0.00    +0.226 C 
ENDBRANCH  40  42
ENDBRANCH   1  40
TORSDOF 12
ENDMDL
