MODEL 1
REMARK VINA RESULT:      -8.5      0.000      0.000
REMARK  Name = *****
REMARK                            x       y       z     vdW  Elec       q    Type
REMARK                         _______ _______ _______ _____ _____    ______ ____
ROOT
ATOM      1  C   LIG    1       25.504 -22.425   6.156  0.00  0.00    +0.050 C 
ATOM      2  C   LIG    1       25.266 -21.647   7.469  0.00  0.00    +0.065 C 
ATOM      3  C   LIG    1       24.004 -20.875   7.138  0.00  0.00    +0.140 C 
ATOM      4  O   LIG    1       23.302 -20.325   7.981  0.00  0.00    -0.297 OA
ATOM      5  C   LIG    1       23.671 -20.868   5.670  0.00  0.00    +0.106 C 
ATOM      6  C   LIG    1       24.884 -21.548   5.050  0.00  0.00    +0.129 C 
ENDROOT
BRANCH   6   7
ATOM      7  O   LIG    1       25.827 -20.568   4.624  0.00  0.00    -0.391 OA
ATOM      8  H   LIG    1       25.351 -19.721   4.525  0.00  0.00    +0.210 HD
ENDBRANCH   6   7
BRANCH   1  10
ATOM      9  C   LIG    1       25.199 -24.839   5.453  0.00  0.00    -0.028 C 
ATOM     10  C   LIG    1       24.829 -23.784   6.197  0.00  0.00    -0.024 C 
BRANCH   9  11
ATOM     11  C   LIG    1       24.526 -26.192   5.555  0.00  0.00    +0.061 C 
BRANCH  11  12
ATOM     12  C   LIG    1       25.505 -27.375   5.785  0.00  0.00    +0.067 C 
ATOM     13  C   LIG    1       25.026 -28.646   5.067  0.00  0.00    +0.041 C 
BRANCH  12  14
ATOM     14  O   LIG    1       26.798 -27.034   5.275  0.00  0.00    -0.389 OA
ATOM     15  H   LIG    1       26.815 -27.283   4.334  0.00  0.00    +0.210 HD
ENDBRANCH  12  14
BRANCH  12  16
ATOM     16  C   LIG    1       25.677 -27.699   7.285  0.00  0.00    +0.035 C 
BRANCH  16  17
ATOM     17  C   LIG    1       25.216 -29.099   7.721  0.00  0.00    +0.002 C 
BRANCH  17  19
ATOM     18  C   LIG    1       26.663 -28.463   9.723  0.00  0.00    +0.004 C 
ATOM     19  C   LIG    1       25.632 -29.431   9.161  0.00  0.00    -0.003 C 
ENDBRANCH  17  19
ENDBRANCH  16  17
ENDBRANCH  12  16
ENDBRANCH  11  12
ENDBRANCH   9  11
ENDBRANCH   1  10
BRANCH   2  20
ATOM     20  C   LIG    1       26.379 -20.669   7.898  0.00  0.00    +0.011 C 
BRANCH  20  21
ATOM     21  C   LIG    1       27.751 -21.346   8.048  0.00  0.00    +0.001 C 
BRANCH  21  22
ATOM     22  C   LIG    1       28.758 -21.044   6.919  0.00  0.00    +0.000 C 
BRANCH  22  23
ATOM     23  C   LIG    1       28.895 -19.550   6.595  0.00  0.00    +0.000 C 
BRANCH  23  24
ATOM     24  C   LIG    1       30.265 -18.964   6.978  0.00  0.00    +0.011 C 
BRANCH  24  25
ATOM     25  C   LIG    1       30.309 -18.527   8.448  0.00  0.00    +0.120 C 
BRANCH  25  26
ATOM     26  C   LIG    1       31.530 -19.104   9.167  0.00  0.00    +0.307 C 
ATOM     27  O   LIG    1       31.944 -20.243   9.051  0.00  0.00    -0.251 OA
BRANCH  26  28
ATOM     28  O   LIG    1       32.043 -18.133   9.992  0.00  0.00    -0.468 OA
ATOM     29  C   LIG    1       32.267 -16.868   9.359  0.00  0.00    +0.280 C 
ENDBRANCH  26  28
ENDBRANCH  25  26
ENDBRANCH  24  25
ENDBRANCH  23  24
ENDBRANCH  22  23
ENDBRANCH  21  22
ENDBRANCH  20  21
ENDBRANCH   2  20
TORSDOF 16
ENDMDL
MODEL 2
REMARK VINA RESULT:      -8.4      1.051      1.567
REMARK  Name = *****
REMARK                            x       y       z     vdW  Elec       q    Type
REMARK                         _______ _______ _______ _____ _____    ______ ____
ROOT
ATOM      1  C   LIG    1       25.709 -22.576   6.485  0.00  0.00    +0.050 C 
ATOM      2  C   LIG    1       25.383 -21.591   7.630  0.00  0.00    +0.065 C 
ATOM      3  C   LIG    1       24.020 -21.080   7.209  0.00  0.00    +0.140 C 
ATOM      4  O   LIG    1       23.260 -20.474   7.958  0.00  0.00    -0.297 OA
ATOM      5  C   LIG    1       23.666 -21.412   5.784  0.00  0.00    +0.106 C 
ATOM      6  C   LIG    1       24.954 -22.031   5.257  0.00  0.00    +0.129 C 
ENDROOT
BRANCH   6   7
ATOM      7  O   LIG    1       25.741 -21.037   4.607  0.00  0.00    -0.391 OA
ATOM      8  H   LIG    1       26.054 -20.413   5.289  0.00  0.00    +0.210 HD
ENDBRANCH   6   7
BRANCH   1  10
ATOM      9  C   LIG    1       24.639 -24.809   5.950  0.00  0.00    -0.028 C 
ATOM     10  C   LIG    1       25.235 -23.979   6.822  0.00  0.00    -0.024 C 
BRANCH   9  11
ATOM     11  C   LIG    1       24.218 -26.217   6.314  0.00  0.00    +0.061 C 
BRANCH  11  12
ATOM     12  C   LIG    1       25.270 -27.305   5.969  0.00  0.00    +0.067 C 
ATOM     13  C   LIG    1       25.999 -26.983   4.656  0.00  0.00    +0.041 C 
BRANCH  12  14
ATOM     14  O   LIG    1       26.245 -27.380   7.015  0.00  0.00    -0.389 OA
ATOM     15  H   LIG    1       26.898 -28.055   6.756  0.00  0.00    +0.210 HD
ENDBRANCH  12  14
BRANCH  12  16
ATOM     16  C   LIG    1       24.632 -28.706   5.840  0.00  0.00    +0.035 C 
BRANCH  16  17
ATOM     17  C   LIG    1       25.119 -29.756   6.850  0.00  0.00    +0.002 C 
BRANCH  17  19
ATOM     18  C   LIG    1       24.913 -29.767   9.393  0.00  0.00    +0.004 C 
ATOM     19  C   LIG    1       24.185 -29.882   8.062  0.00  0.00    -0.003 C 
ENDBRANCH  17  19
ENDBRANCH  16  17
ENDBRANCH  12  16
ENDBRANCH  11  12
ENDBRANCH   9  11
ENDBRANCH   1  10
BRANCH   2  20
ATOM     20  C   LIG    1       26.353 -20.404   7.809  0.00  0.00    +0.011 C 
BRANCH  20  21
ATOM     21  C   LIG    1       27.831 -20.808   7.678  0.00  0.00    +0.001 C 
BRANCH  21  22
ATOM     22  C   LIG    1       28.540 -20.295   6.408  0.00  0.00    +0.000 C 
BRANCH  22  23
ATOM     23  C   LIG    1       29.407 -19.050   6.645  0.00  0.00    +0.000 C 
BRANCH  23  24
ATOM     24  C   LIG    1       30.912 -19.358   6.723  0.00  0.00    +0.011 C 
BRANCH  24  25
ATOM     25  C   LIG    1       31.566 -18.704   7.947  0.00  0.00    +0.120 C 
BRANCH  25  26
ATOM     26  C   LIG    1       31.342 -19.535   9.212  0.00  0.00    +0.307 C 
ATOM     27  O   LIG    1       30.657 -19.203  10.163  0.00  0.00    -0.251 OA
BRANCH  26  28
ATOM     28  O   LIG    1       32.078 -20.690   9.106  0.00  0.00    -0.468 OA
ATOM     29  C   LIG    1       31.309 -21.897   9.162  0.00  0.00    +0.280 C 
ENDBRANCH  26  28
ENDBRANCH  25  26
ENDBRANCH  24  25
ENDBRANCH  23  24
ENDBRANCH  22  23
ENDBRANCH  21  22
ENDBRANCH  20  21
ENDBRANCH   2  20
TORSDOF 16
ENDMDL
MODEL 3
REMARK VINA RESULT:      -8.1      1.249      1.447
REMARK  Name = *****
REMARK                            x       y       z     vdW  Elec       q    Type
REMARK                         _______ _______ _______ _____ _____    ______ ____
ROOT
ATOM      1  C   LIG    1       25.384 -22.258   5.755  0.00  0.00    +0.050 C 
ATOM      2  C   LIG    1       25.192 -21.688   7.179  0.00  0.00    +0.065 C 
ATOM      3  C   LIG    1       23.917 -20.886   7.012  0.00  0.00    +0.140 C 
ATOM      4  O   LIG    1       23.245 -20.475   7.953  0.00  0.00    -0.297 OA
ATOM      5  C   LIG    1       23.530 -20.661   5.575  0.00  0.00    +0.106 C 
ATOM      6  C   LIG    1       24.722 -21.230   4.817  0.00  0.00    +0.129 C 
ENDROOT
BRANCH   6   7
ATOM      7  O   LIG    1       25.646 -20.189   4.510  0.00  0.00    -0.391 OA
ATOM      8  H   LIG    1       25.216 -19.339   4.723  0.00  0.00    +0.210 HD
ENDBRANCH   6   7
BRANCH   1  10
ATOM      9  C   LIG    1       24.913 -24.648   6.450  0.00  0.00    -0.028 C 
ATOM     10  C   LIG    1       24.714 -23.614   5.616  0.00  0.00    -0.024 C 
BRANCH   9  11
ATOM     11  C   LIG    1       24.193 -25.972   6.301  0.00  0.00    +0.061 C 
BRANCH  11  12
ATOM     12  C   LIG    1       25.129 -27.176   6.010  0.00  0.00    +0.067 C 
ATOM     13  C   LIG    1       25.937 -26.960   4.722  0.00  0.00    +0.041 C 
BRANCH  12  14
ATOM     14  O   LIG    1       26.050 -27.341   7.093  0.00  0.00    -0.389 OA
ATOM     15  H   LIG    1       25.532 -27.352   7.917  0.00  0.00    +0.210 HD
ENDBRANCH  12  14
BRANCH  12  16
ATOM     16  C   LIG    1       24.343 -28.499   5.874  0.00  0.00    +0.035 C 
BRANCH  16  17
ATOM     17  C   LIG    1       25.117 -29.775   6.241  0.00  0.00    +0.002 C 
BRANCH  17  19
ATOM     18  C   LIG    1       24.082 -29.950   8.566  0.00  0.00    +0.004 C 
ATOM     19  C   LIG    1       24.357 -30.653   7.245  0.00  0.00    -0.003 C 
ENDBRANCH  17  19
ENDBRANCH  16  17
ENDBRANCH  12  16
ENDBRANCH  11  12
ENDBRANCH   9  11
ENDBRANCH   1  10
BRANCH   2  20
ATOM     20  C   LIG    1       26.317 -20.777   7.709  0.00  0.00    +0.011 C 
BRANCH  20  21
ATOM     21  C   LIG    1       27.652 -21.516   7.900  0.00  0.00    +0.001 C 
BRANCH  21  22
ATOM     22  C   LIG    1       28.779 -21.093   6.935  0.00  0.00    +0.000 C 
BRANCH  22  23
ATOM     23  C   LIG    1       28.567 -19.710   6.304  0.00  0.00    +0.000 C 
BRANCH  23  24
ATOM     24  C   LIG    1       29.834 -18.838   6.303  0.00  0.00    +0.011 C 
BRANCH  24  25
ATOM     25  C   LIG    1       30.899 -19.375   7.267  0.00  0.00    +0.120 C 
BRANCH  25  26
ATOM     26  C   LIG    1       31.207 -18.370   8.378  0.00  0.00    +0.307 C 
ATOM     27  O   LIG    1       32.061 -17.503   8.329  0.00  0.00    -0.251 OA
BRANCH  26  28
ATOM     28  O   LIG    1       30.388 -18.644   9.447  0.00  0.00    -0.468 OA
ATOM     29  C   LIG    1       30.339 -17.614  10.442  0.00  0.00    +0.280 C 
ENDBRANCH  26  28
ENDBRANCH  25  26
ENDBRANCH  24  25
ENDBRANCH  23  24
ENDBRANCH  22  23
ENDBRANCH  21  22
ENDBRANCH  20  21
ENDBRANCH   2  20
TORSDOF 16
ENDMDL
MODEL 4
REMARK VINA RESULT:      -8.1      1.792      8.999
REMARK  Name = *****
REMARK                            x       y       z     vdW  Elec       q    Type
REMARK                         _______ _______ _______ _____ _____    ______ ____
ROOT
ATOM      1  C   LIG    1       25.484 -21.455   7.032  0.00  0.00    +0.050 C 
ATOM      2  C   LIG    1       25.326 -22.225   5.701  0.00  0.00    +0.065 C 
ATOM      3  C   LIG    1       24.288 -21.381   4.987  0.00  0.00    +0.140 C 
ATOM      4  O   LIG    1       24.051 -21.469   3.786  0.00  0.00    -0.297 OA
ATOM      5  C   LIG    1       23.589 -20.397   5.886  0.00  0.00    +0.106 C 
ATOM      6  C   LIG    1       24.124 -20.767   7.263  0.00  0.00    +0.129 C 
ENDROOT
BRANCH   6   7
ATOM      7  O   LIG    1       23.229 -21.669   7.907  0.00  0.00    -0.391 OA
ATOM      8  H   LIG    1       22.810 -22.215   7.216  0.00  0.00    +0.210 HD
ENDBRANCH   6   7
BRANCH   1  10
ATOM      9  C   LIG    1       27.892 -20.718   6.761  0.00  0.00    -0.028 C 
ATOM     10  C   LIG    1       26.593 -20.423   6.935  0.00  0.00    -0.024 C 
BRANCH   9  11
ATOM     11  C   LIG    1       28.964 -19.656   6.628  0.00  0.00    +0.061 C 
BRANCH  11  12
ATOM     12  C   LIG    1       30.175 -19.851   7.579  0.00  0.00    +0.067 C 
ATOM     13  C   LIG    1       30.109 -21.206   8.301  0.00  0.00    +0.041 C 
BRANCH  12  14
ATOM     14  O   LIG    1       31.391 -19.807   6.824  0.00  0.00    -0.389 OA
ATOM     15  H   LIG    1       32.026 -20.403   7.259  0.00  0.00    +0.210 HD
ENDBRANCH  12  14
BRANCH  12  16
ATOM     16  C   LIG    1       30.259 -18.736   8.645  0.00  0.00    +0.035 C 
BRANCH  16  17
ATOM     17  C   LIG    1       31.625 -18.047   8.782  0.00  0.00    +0.002 C 
BRANCH  17  19
ATOM     18  C   LIG    1       30.533 -17.230  10.938  0.00  0.00    +0.004 C 
ATOM     19  C   LIG    1       31.833 -17.430  10.172  0.00  0.00    -0.003 C 
ENDBRANCH  17  19
ENDBRANCH  16  17
ENDBRANCH  12  16
ENDBRANCH  11  12
ENDBRANCH   9  11
ENDBRANCH   1  10
BRANCH   2  20
ATOM     20  C   LIG    1       24.831 -23.682   5.807  0.00  0.00    +0.011 C 
BRANCH  20  21
ATOM     21  C   LIG    1       25.601 -24.505   6.853  0.00  0.00    +0.001 C 
BRANCH  21  22
ATOM     22  C   LIG    1       26.145 -25.859   6.350  0.00  0.00    +0.000 C 
BRANCH  22  23
ATOM     23  C   LIG    1       25.514 -26.328   5.032  0.00  0.00    +0.000 C 
BRANCH  23  24
ATOM     24  C   LIG    1       24.935 -27.751   5.103  0.00  0.00    +0.011 C 
BRANCH  24  25
ATOM     25  C   LIG    1       24.706 -28.203   6.552  0.00  0.00    +0.120 C 
BRANCH  25  26
ATOM     26  C   LIG    1       24.371 -29.694   6.626  0.00  0.00    +0.307 C 
ATOM     27  O   LIG    1       23.698 -30.224   7.492  0.00  0.00    -0.251 OA
BRANCH  26  28
ATOM     28  O   LIG    1       24.993 -30.329   5.578  0.00  0.00    -0.468 OA
ATOM     29  C   LIG    1       25.777 -31.468   5.951  0.00  0.00    +0.280 C 
ENDBRANCH  26  28
ENDBRANCH  25  26
ENDBRANCH  24  25
ENDBRANCH  23  24
ENDBRANCH  22  23
ENDBRANCH  21  22
ENDBRANCH  20  21
ENDBRANCH   2  20
TORSDOF 16
ENDMDL
MODEL 5
REMARK VINA RESULT:      -7.7      1.213      1.455
REMARK  Name = *****
REMARK                            x       y       z     vdW  Elec       q    Type
REMARK                         _______ _______ _______ _____ _____    ______ ____
ROOT
ATOM      1  C   LIG    1       25.689 -23.037   6.641  0.00  0.00    +0.050 C 
ATOM      2  C   LIG    1       25.247 -22.018   7.716  0.00  0.00    +0.065 C 
ATOM      3  C   LIG    1       23.770 -21.876   7.405  0.00  0.00    +0.140 C 
ATOM      4  O   LIG    1       22.960 -21.366   8.174  0.00  0.00    -0.297 OA
ATOM      5  C   LIG    1       23.377 -22.446   6.069  0.00  0.00    +0.106 C 
ATOM      6  C   LIG    1       24.721 -22.824   5.460  0.00  0.00    +0.129 C 
ENDROOT
BRANCH   6   7
ATOM      7  O   LIG    1       25.195 -21.765   4.632  0.00  0.00    -0.391 OA
ATOM      8  H   LIG    1       25.929 -21.326   5.102  0.00  0.00    +0.210 HD
ENDBRANCH   6   7
BRANCH   1  10
ATOM      9  C   LIG    1       26.104 -25.534   6.548  0.00  0.00    -0.028 C 
ATOM     10  C   LIG    1       25.584 -24.459   7.163  0.00  0.00    -0.024 C 
BRANCH   9  11
ATOM     11  C   LIG    1       26.014 -26.932   7.123  0.00  0.00    +0.061 C 
BRANCH  11  12
ATOM     12  C   LIG    1       25.319 -27.961   6.191  0.00  0.00    +0.067 C 
ATOM     13  C   LIG    1       24.155 -27.321   5.419  0.00  0.00    +0.041 C 
BRANCH  12  14
ATOM     14  O   LIG    1       26.264 -28.463   5.240  0.00  0.00    -0.389 OA
ATOM     15  H   LIG    1       26.617 -29.298   5.594  0.00  0.00    +0.210 HD
ENDBRANCH  12  14
BRANCH  12  16
ATOM     16  C   LIG    1       24.773 -29.175   6.976  0.00  0.00    +0.035 C 
BRANCH  16  17
ATOM     17  C   LIG    1       25.308 -29.339   8.406  0.00  0.00    +0.002 C 
BRANCH  17  19
ATOM     18  C   LIG    1       23.981 -30.080  10.455  0.00  0.00    +0.004 C 
ATOM     19  C   LIG    1       24.642 -30.504   9.151  0.00  0.00    -0.003 C 
ENDBRANCH  17  19
ENDBRANCH  16  17
ENDBRANCH  12  16
ENDBRANCH  11  12
ENDBRANCH   9  11
ENDBRANCH   1  10
BRANCH   2  20
ATOM     20  C   LIG    1       25.926 -20.634   7.668  0.00  0.00    +0.011 C 
BRANCH  20  21
ATOM     21  C   LIG    1       27.403 -20.703   7.245  0.00  0.00    +0.001 C 
BRANCH  21  22
ATOM     22  C   LIG    1       27.755 -19.920   5.963  0.00  0.00    +0.000 C 
BRANCH  22  23
ATOM     23  C   LIG    1       29.146 -19.271   5.997  0.00  0.00    +0.000 C 
BRANCH  23  24
ATOM     24  C   LIG    1       30.062 -19.845   7.090  0.00  0.00    +0.011 C 
BRANCH  24  25
ATOM     25  C   LIG    1       31.422 -19.136   7.126  0.00  0.00    +0.120 C 
BRANCH  25  26
ATOM     26  C   LIG    1       31.770 -18.663   8.538  0.00  0.00    +0.307 C 
ATOM     27  O   LIG    1       32.134 -19.380   9.453  0.00  0.00    -0.251 OA
BRANCH  26  28
ATOM     28  O   LIG    1       31.557 -17.307   8.604  0.00  0.00    -0.468 OA
ATOM     29  C   LIG    1       30.701 -16.888   9.673  0.00  0.00    +0.280 C 
ENDBRANCH  26  28
ENDBRANCH  25  26
ENDBRANCH  24  25
ENDBRANCH  23  24
ENDBRANCH  22  23
ENDBRANCH  21  22
ENDBRANCH  20  21
ENDBRANCH   2  20
TORSDOF 16
ENDMDL
MODEL 6
REMARK VINA RESULT:      -7.3      1.807      8.988
REMARK  Name = *****
REMARK                            x       y       z     vdW  Elec       q    Type
REMARK                         _______ _______ _______ _____ _____    ______ ____
ROOT
ATOM      1  C   LIG    1       26.663 -21.555   6.612  0.00  0.00    +0.050 C 
ATOM      2  C   LIG    1       25.214 -21.205   6.205  0.00  0.00    +0.065 C 
ATOM      3  C   LIG    1       24.597 -20.871   7.548  0.00  0.00    +0.140 C 
ATOM      4  O   LIG    1       23.527 -20.282   7.677  0.00  0.00    -0.297 OA
ATOM      5  C   LIG    1       25.435 -21.304   8.721  0.00  0.00    +0.106 C 
ATOM      6  C   LIG    1       26.559 -22.086   8.055  0.00  0.00    +0.129 C 
ENDROOT
BRANCH   6   7
ATOM      7  O   LIG    1       26.243 -23.475   8.039  0.00  0.00    -0.391 OA
ATOM      8  H   LIG    1       27.083 -23.971   8.045  0.00  0.00    +0.210 HD
ENDBRANCH   6   7
BRANCH   1  10
ATOM      9  C   LIG    1       28.696 -20.188   7.254  0.00  0.00    -0.028 C 
ATOM     10  C   LIG    1       27.555 -20.328   6.559  0.00  0.00    -0.024 C 
BRANCH   9  11
ATOM     11  C   LIG    1       29.581 -18.964   7.142  0.00  0.00    +0.061 C 
BRANCH  11  12
ATOM     12  C   LIG    1       30.972 -19.119   7.814  0.00  0.00    +0.067 C 
ATOM     13  C   LIG    1       31.039 -20.390   8.674  0.00  0.00    +0.041 C 
BRANCH  12  14
ATOM     14  O   LIG    1       31.985 -19.207   6.806  0.00  0.00    -0.389 OA
ATOM     15  H   LIG    1       32.154 -18.304   6.483  0.00  0.00    +0.210 HD
ENDBRANCH  12  14
BRANCH  12  16
ATOM     16  C   LIG    1       31.320 -17.908   8.707  0.00  0.00    +0.035 C 
BRANCH  16  17
ATOM     17  C   LIG    1       30.243 -17.498   9.724  0.00  0.00    +0.002 C 
BRANCH  17  19
ATOM     18  C   LIG    1       32.338 -16.693  10.936  0.00  0.00    +0.004 C 
ATOM     19  C   LIG    1       30.817 -16.678  10.887  0.00  0.00    -0.003 C 
ENDBRANCH  17  19
ENDBRANCH  16  17
ENDBRANCH  12  16
ENDBRANCH  11  12
ENDBRANCH   9  11
ENDBRANCH   1  10
BRANCH   2  20
ATOM     20  C   LIG    1       24.404 -22.327   5.522  0.00  0.00    +0.011 C 
BRANCH  20  21
ATOM     21  C   LIG    1       23.393 -22.999   6.466  0.00  0.00    +0.001 C 
BRANCH  21  22
ATOM     22  C   LIG    1       23.553 -24.526   6.618  0.00  0.00    +0.000 C 
BRANCH  22  23
ATOM     23  C   LIG    1       24.413 -25.170   5.521  0.00  0.00    +0.000 C 
BRANCH  23  24
ATOM     24  C   LIG    1       25.302 -26.316   6.034  0.00  0.00    +0.011 C 
BRANCH  24  25
ATOM     25  C   LIG    1       25.023 -27.630   5.294  0.00  0.00    +0.120 C 
BRANCH  25  26
ATOM     26  C   LIG    1       24.484 -28.702   6.242  0.00  0.00    +0.307 C 
ATOM     27  O   LIG    1       23.593 -29.491   5.983  0.00  0.00    -0.251 OA
BRANCH  26  28
ATOM     28  O   LIG    1       25.144 -28.589   7.442  0.00  0.00    -0.468 OA
ATOM     29  C   LIG    1       25.171 -29.788   8.225  0.00  0.00    +0.280 C 
ENDBRANCH  26  28
ENDBRANCH  25  26
ENDBRANCH  24  25
ENDBRANCH  23  24
ENDBRANCH  22  23
ENDBRANCH  21  22
ENDBRANCH  20  21
ENDBRANCH   2  20
TORSDOF 16
ENDMDL
MODEL 7
REMARK VINA RESULT:      -7.2      2.630      8.530
REMARK  Name = *****
REMARK                            x       y       z     vdW  Elec       q    Type
REMARK                         _______ _______ _______ _____ _____    ______ ____
ROOT
ATOM      1  C   LIG    1       27.083 -20.931   5.907  0.00  0.00    +0.050 C 
ATOM      2  C   LIG    1       26.223 -21.520   7.048  0.00  0.00    +0.065 C 
ATOM      3  C   LIG    1       26.654 -20.665   8.223  0.00  0.00    +0.140 C 
ATOM      4  O   LIG    1       26.037 -20.604   9.282  0.00  0.00    -0.297 OA
ATOM      5  C   LIG    1       27.904 -19.867   7.961  0.00  0.00    +0.106 C 
ATOM      6  C   LIG    1       28.347 -20.382   6.598  0.00  0.00    +0.129 C 
ENDROOT
BRANCH   6   7
ATOM      7  O   LIG    1       29.302 -21.428   6.759  0.00  0.00    -0.391 OA
ATOM      8  H   LIG    1       29.544 -21.465   7.704  0.00  0.00    +0.210 HD
ENDBRANCH   6   7
BRANCH   1  10
ATOM      9  C   LIG    1       25.251 -19.997   4.427  0.00  0.00    -0.028 C 
ATOM     10  C   LIG    1       26.344 -19.816   5.188  0.00  0.00    -0.024 C 
BRANCH   9  11
ATOM     11  C   LIG    1       24.518 -18.852   3.760  0.00  0.00    +0.061 C 
BRANCH  11  12
ATOM     12  C   LIG    1       23.021 -18.739   4.154  0.00  0.00    +0.067 C 
ATOM     13  C   LIG    1       22.629 -17.285   4.458  0.00  0.00    +0.041 C 
BRANCH  12  14
ATOM     14  O   LIG    1       22.204 -19.206   3.074  0.00  0.00    -0.389 OA
ATOM     15  H   LIG    1       22.797 -19.426   2.334  0.00  0.00    +0.210 HD
ENDBRANCH  12  14
BRANCH  12  16
ATOM     16  C   LIG    1       22.681 -19.603   5.388  0.00  0.00    +0.035 C 
BRANCH  16  17
ATOM     17  C   LIG    1       22.117 -21.001   5.089  0.00  0.00    +0.002 C 
BRANCH  17  19
ATOM     18  C   LIG    1       23.051 -21.497   7.410  0.00  0.00    +0.004 C 
ATOM     19  C   LIG    1       22.646 -22.066   6.059  0.00  0.00    -0.003 C 
ENDBRANCH  17  19
ENDBRANCH  16  17
ENDBRANCH  12  16
ENDBRANCH  11  12
ENDBRANCH   9  11
ENDBRANCH   1  10
BRANCH   2  20
ATOM     20  C   LIG    1       26.448 -23.010   7.376  0.00  0.00    +0.011 C 
BRANCH  20  21
ATOM     21  C   LIG    1       25.604 -23.954   6.504  0.00  0.00    +0.001 C 
BRANCH  21  22
ATOM     22  C   LIG    1       25.893 -25.457   6.695  0.00  0.00    +0.000 C 
BRANCH  22  23
ATOM     23  C   LIG    1       25.811 -26.272   5.396  0.00  0.00    +0.000 C 
BRANCH  23  24
ATOM     24  C   LIG    1       24.665 -27.299   5.389  0.00  0.00    +0.011 C 
BRANCH  24  25
ATOM     25  C   LIG    1       24.832 -28.348   6.496  0.00  0.00    +0.120 C 
BRANCH  25  26
ATOM     26  C   LIG    1       24.509 -29.754   5.987  0.00  0.00    +0.307 C 
ATOM     27  O   LIG    1       23.492 -30.378   6.233  0.00  0.00    -0.251 OA
BRANCH  26  28
ATOM     28  O   LIG    1       25.577 -30.201   5.248  0.00  0.00    -0.468 OA
ATOM     29  C   LIG    1       25.798 -31.615   5.311  0.00  0.00    +0.280 C 
ENDBRANCH  26  28
ENDBRANCH  25  26
ENDBRANCH  24  25
ENDBRANCH  23  24
ENDBRANCH  22  23
ENDBRANCH  21  22
ENDBRANCH  20  21
ENDBRANCH   2  20
TORSDOF 16
ENDMDL
MODEL 8
REMARK VINA RESULT:      -7.0      2.029      3.977
REMARK  Name = *****
REMARK                            x       y       z     vdW  Elec       q    Type
REMARK                         _______ _______ _______ _____ _____    ______ ____
ROOT
ATOM      1  C   LIG    1       26.057 -26.655   6.586  0.00  0.00    +0.050 C 
ATOM      2  C   LIG    1       25.451 -25.304   7.028  0.00  0.00    +0.065 C 
ATOM      3  C   LIG    1       24.095 -25.347   6.352  0.00  0.00    +0.140 C 
ATOM      4  O   LIG    1       23.168 -24.597   6.642  0.00  0.00    -0.297 OA
ATOM      5  C   LIG    1       23.977 -26.422   5.305  0.00  0.00    +0.106 C 
ATOM      6  C   LIG    1       25.396 -26.969   5.229  0.00  0.00    +0.129 C 
ENDROOT
BRANCH   6   7
ATOM      7  O   LIG    1       26.113 -26.321   4.181  0.00  0.00    -0.391 OA
ATOM      8  H   LIG    1       25.587 -26.409   3.364  0.00  0.00    +0.210 HD
ENDBRANCH   6   7
BRANCH   1  10
ATOM      9  C   LIG    1       25.040 -28.857   7.318  0.00  0.00    -0.028 C 
ATOM     10  C   LIG    1       25.745 -27.747   7.594  0.00  0.00    -0.024 C 
BRANCH   9  11
ATOM     11  C   LIG    1       24.787 -29.944   8.342  0.00  0.00    +0.061 C 
BRANCH  11  12
ATOM     12  C   LIG    1       25.802 -31.117   8.289  0.00  0.00    +0.067 C 
ATOM     13  C   LIG    1       25.113 -32.466   8.547  0.00  0.00    +0.041 C 
BRANCH  12  14
ATOM     14  O   LIG    1       26.412 -31.167   6.995  0.00  0.00    -0.389 OA
ATOM     15  H   LIG    1       27.358 -31.358   7.126  0.00  0.00    +0.210 HD
ENDBRANCH  12  14
BRANCH  12  16
ATOM     16  C   LIG    1       26.937 -30.946   9.323  0.00  0.00    +0.035 C 
BRANCH  16  17
ATOM     17  C   LIG    1       26.536 -30.283  10.650  0.00  0.00    +0.002 C 
BRANCH  17  19
ATOM     18  C   LIG    1       28.607 -29.333  11.796  0.00  0.00    +0.004 C 
ATOM     19  C   LIG    1       27.373 -29.034  10.958  0.00  0.00    -0.003 C 
ENDBRANCH  17  19
ENDBRANCH  16  17
ENDBRANCH  12  16
ENDBRANCH  11  12
ENDBRANCH   9  11
ENDBRANCH   1  10
BRANCH   2  20
ATOM     20  C   LIG    1       26.213 -24.036   6.590  0.00  0.00    +0.011 C 
BRANCH  20  21
ATOM     21  C   LIG    1       26.069 -22.873   7.584  0.00  0.00    +0.001 C 
BRANCH  21  22
ATOM     22  C   LIG    1       25.797 -21.494   6.946  0.00  0.00    +0.000 C 
BRANCH  22  23
ATOM     23  C   LIG    1       26.833 -20.425   7.320  0.00  0.00    +0.000 C 
BRANCH  23  24
ATOM     24  C   LIG    1       27.904 -20.205   6.238  0.00  0.00    +0.011 C 
BRANCH  24  25
ATOM     25  C   LIG    1       29.305 -20.580   6.737  0.00  0.00    +0.120 C 
BRANCH  25  26
ATOM     26  C   LIG    1       30.270 -19.397   6.639  0.00  0.00    +0.307 C 
ATOM     27  O   LIG    1       30.050 -18.354   6.049  0.00  0.00    -0.251 OA
BRANCH  26  28
ATOM     28  O   LIG    1       31.433 -19.733   7.288  0.00  0.00    -0.468 OA
ATOM     29  C   LIG    1       31.567 -19.175   8.600  0.00  0.00    +0.280 C 
ENDBRANCH  26  28
ENDBRANCH  25  26
ENDBRANCH  24  25
ENDBRANCH  23  24
ENDBRANCH  22  23
ENDBRANCH  21  22
ENDBRANCH  20  21
ENDBRANCH   2  20
TORSDOF 16
ENDMDL
MODEL 9
REMARK VINA RESULT:      -7.0      2.064      8.038
REMARK  Name = *****
REMARK                            x       y       z     vdW  Elec       q    Type
REMARK                         _______ _______ _______ _____ _____    ______ ____
ROOT
ATOM      1  C   LIG    1       25.261 -19.706   5.139  0.00  0.00    +0.050 C 
ATOM      2  C   LIG    1       24.635 -21.114   5.258  0.00  0.00    +0.065 C 
ATOM      3  C   LIG    1       24.374 -21.451   3.803  0.00  0.00    +0.140 C 
ATOM      4  O   LIG    1       24.125 -22.584   3.402  0.00  0.00    -0.297 OA
ATOM      5  C   LIG    1       24.478 -20.265   2.882  0.00  0.00    +0.106 C 
ATOM      6  C   LIG    1       24.663 -19.105   3.852  0.00  0.00    +0.129 C 
ENDROOT
BRANCH   6   7
ATOM      7  O   LIG    1       23.402 -18.505   4.140  0.00  0.00    -0.391 OA
ATOM      8  H   LIG    1       23.024 -18.965   4.912  0.00  0.00    +0.210 HD
ENDBRANCH   6   7
BRANCH   1  10
ATOM      9  C   LIG    1       27.599 -19.974   6.077  0.00  0.00    -0.028 C 
ATOM     10  C   LIG    1       26.774 -19.790   5.033  0.00  0.00    -0.024 C 
BRANCH   9  11
ATOM     11  C   LIG    1       29.101 -20.094   5.924  0.00  0.00    +0.061 C 
BRANCH  11  12
ATOM     12  C   LIG    1       29.880 -20.090   7.267  0.00  0.00    +0.067 C 
ATOM     13  C   LIG    1       29.559 -21.337   8.105  0.00  0.00    +0.041 C 
BRANCH  12  14
ATOM     14  O   LIG    1       31.288 -20.078   7.006  0.00  0.00    -0.389 OA
ATOM     15  H   LIG    1       31.463 -19.345   6.390  0.00  0.00    +0.210 HD
ENDBRANCH  12  14
BRANCH  12  16
ATOM     16  C   LIG    1       29.563 -18.839   8.115  0.00  0.00    +0.035 C 
BRANCH  16  17
ATOM     17  C   LIG    1       30.666 -18.399   9.091  0.00  0.00    +0.002 C 
BRANCH  17  19
ATOM     18  C   LIG    1       31.183 -17.082  11.213  0.00  0.00    +0.004 C 
ATOM     19  C   LIG    1       30.160 -17.388  10.129  0.00  0.00    -0.003 C 
ENDBRANCH  17  19
ENDBRANCH  16  17
ENDBRANCH  12  16
ENDBRANCH  11  12
ENDBRANCH   9  11
ENDBRANCH   1  10
BRANCH   2  20
ATOM     20  C   LIG    1       23.321 -21.213   6.060  0.00  0.00    +0.011 C 
BRANCH  20  21
ATOM     21  C   LIG    1       23.463 -22.038   7.350  0.00  0.00    +0.001 C 
BRANCH  21  22
ATOM     22  C   LIG    1       24.867 -22.016   7.990  0.00  0.00    +0.000 C 
BRANCH  22  23
ATOM     23  C   LIG    1       25.755 -23.196   7.572  0.00  0.00    +0.000 C 
BRANCH  23  24
ATOM     24  C   LIG    1       24.996 -24.293   6.806  0.00  0.00    +0.011 C 
BRANCH  24  25
ATOM     25  C   LIG    1       25.832 -25.571   6.660  0.00  0.00    +0.120 C 
BRANCH  25  26
ATOM     26  C   LIG    1       25.397 -26.387   5.441  0.00  0.00    +0.307 C 
ATOM     27  O   LIG    1       25.989 -26.438   4.378  0.00  0.00    -0.251 OA
BRANCH  26  28
ATOM     28  O   LIG    1       24.209 -27.009   5.740  0.00  0.00    -0.468 OA
ATOM     29  C   LIG    1       24.326 -28.399   6.061  0.00  0.00    +0.280 C 
ENDBRANCH  26  28
ENDBRANCH  25  26
ENDBRANCH  24  25
ENDBRANCH  23  24
ENDBRANCH  22  23
ENDBRANCH  21  22
ENDBRANCH  20  21
ENDBRANCH   2  20
TORSDOF 16
ENDMDL
