MODEL 1
REMARK VINA RESULT:      -5.3      0.000      0.000
REMARK  Name = *****
REMARK                            x       y       z     vdW  Elec       q    Type
REMARK                         _______ _______ _______ _____ _____    ______ ____
ROOT
ATOM      1  O   LIG    1       21.820 -15.873   5.090  0.00  0.00    -0.287 OA
ATOM      2  C   LIG    1       22.882 -16.234   4.593  0.00  0.00    +0.195 C 
ATOM      3  C   LIG    1       23.167 -17.666   4.411  0.00  0.00    +0.037 A 
ATOM      4  C   LIG    1       24.372 -18.079   3.848  0.00  0.00    +0.074 A 
ATOM      5  C   LIG    1       24.611 -19.452   3.690  0.00  0.00    +0.128 A 
ATOM      6  C   LIG    1       23.662 -20.393   4.087  0.00  0.00    +0.046 A 
ATOM      7  C   LIG    1       22.459 -19.973   4.649  0.00  0.00    +0.004 A 
ATOM      8  C   LIG    1       25.377 -17.079   3.427  0.00  0.00    +0.202 C 
ATOM      9  O   LIG    1       26.421 -17.501   2.938  0.00  0.00    -0.286 OA
ATOM     10  C   LIG    1       25.099 -15.629   3.607  0.00  0.00    +0.074 A 
ATOM     11  C   LIG    1       26.014 -14.633   3.226  0.00  0.00    +0.128 A 
ATOM     12  C   LIG    1       25.718 -13.278   3.410  0.00  0.00    +0.046 A 
ATOM     13  C   LIG    1       24.504 -12.900   3.977  0.00  0.00    +0.004 A 
ATOM     14  C   LIG    1       23.587 -13.875   4.359  0.00  0.00    +0.012 A 
ATOM     15  C   LIG    1       22.210 -18.611   4.812  0.00  0.00    +0.012 A 
ATOM     16  C   LIG    1       23.884 -15.235   4.174  0.00  0.00    +0.037 A 
ENDROOT
BRANCH   5  17
ATOM     17  O   LIG    1       25.764 -19.954   3.147  0.00  0.00    -0.506 OA
ATOM     18  H   LIG    1       26.340 -19.191   2.905  0.00  0.00    +0.292 HD
ENDBRANCH   5  17
BRANCH  11  19
ATOM     19  O   LIG    1       27.215 -14.961   2.665  0.00  0.00    -0.506 OA
ATOM     20  H   LIG    1       27.115 -15.702   2.047  0.00  0.00    +0.292 HD
ENDBRANCH  11  19
TORSDOF 2
ENDMDL
MODEL 2
REMARK VINA RESULT:      -5.3      0.039      4.717
REMARK  Name = *****
REMARK                            x       y       z     vdW  Elec       q    Type
REMARK                         _______ _______ _______ _____ _____    ______ ____
ROOT
ATOM      1  O   LIG    1       21.810 -15.889   5.098  0.00  0.00    -0.287 OA
ATOM      2  C   LIG    1       22.875 -16.242   4.602  0.00  0.00    +0.195 C 
ATOM      3  C   LIG    1       23.871 -15.239   4.192  0.00  0.00    +0.037 A 
ATOM      4  C   LIG    1       25.080 -15.636   3.628  0.00  0.00    +0.074 A 
ATOM      5  C   LIG    1       26.006 -14.653   3.248  0.00  0.00    +0.128 A 
ATOM      6  C   LIG    1       25.726 -13.299   3.430  0.00  0.00    +0.046 A 
ATOM      7  C   LIG    1       24.515 -12.910   3.994  0.00  0.00    +0.004 A 
ATOM      8  C   LIG    1       25.376 -17.072   3.437  0.00  0.00    +0.202 C 
ATOM      9  O   LIG    1       26.458 -17.364   2.934  0.00  0.00    -0.286 OA
ATOM     10  C   LIG    1       24.376 -18.095   3.848  0.00  0.00    +0.074 A 
ATOM     11  C   LIG    1       24.600 -19.472   3.692  0.00  0.00    +0.128 A 
ATOM     12  C   LIG    1       23.637 -20.406   4.090  0.00  0.00    +0.046 A 
ATOM     13  C   LIG    1       22.437 -19.974   4.649  0.00  0.00    +0.004 A 
ATOM     14  C   LIG    1       22.201 -18.612   4.811  0.00  0.00    +0.012 A 
ATOM     15  C   LIG    1       23.585 -13.877   4.376  0.00  0.00    +0.012 A 
ATOM     16  C   LIG    1       23.168 -17.676   4.411  0.00  0.00    +0.037 A 
ENDROOT
BRANCH   5  17
ATOM     17  O   LIG    1       27.221 -14.945   2.687  0.00  0.00    -0.506 OA
ATOM     18  H   LIG    1       27.878 -14.300   3.039  0.00  0.00    +0.292 HD
ENDBRANCH   5  17
BRANCH  11  19
ATOM     19  O   LIG    1       25.764 -19.938   3.149  0.00  0.00    -0.506 OA
ATOM     20  H   LIG    1       25.924 -19.532   2.283  0.00  0.00    +0.292 HD
ENDBRANCH  11  19
TORSDOF 2
ENDMDL
MODEL 3
REMARK VINA RESULT:      -3.9      3.153      4.568
REMARK  Name = *****
REMARK                            x       y       z     vdW  Elec       q    Type
REMARK                         _______ _______ _______ _____ _____    ______ ____
ROOT
ATOM      1  O   LIG    1       26.141 -21.569   7.061  0.00  0.00    -0.287 OA
ATOM      2  C   LIG    1       25.949 -20.712   6.206  0.00  0.00    +0.195 C 
ATOM      3  C   LIG    1       24.622 -20.565   5.586  0.00  0.00    +0.037 A 
ATOM      4  C   LIG    1       24.401 -19.593   4.615  0.00  0.00    +0.074 A 
ATOM      5  C   LIG    1       23.124 -19.482   4.045  0.00  0.00    +0.128 A 
ATOM      6  C   LIG    1       22.089 -20.327   4.442  0.00  0.00    +0.046 A 
ATOM      7  C   LIG    1       22.317 -21.297   5.414  0.00  0.00    +0.004 A 
ATOM      8  C   LIG    1       25.501 -18.697   4.196  0.00  0.00    +0.202 C 
ATOM      9  O   LIG    1       25.248 -17.859   3.335  0.00  0.00    -0.286 OA
ATOM     10  C   LIG    1       26.846 -18.837   4.816  0.00  0.00    +0.074 A 
ATOM     11  C   LIG    1       27.928 -18.015   4.460  0.00  0.00    +0.128 A 
ATOM     12  C   LIG    1       29.180 -18.175   5.064  0.00  0.00    +0.046 A 
ATOM     13  C   LIG    1       29.367 -19.158   6.031  0.00  0.00    +0.004 A 
ATOM     14  C   LIG    1       28.304 -19.979   6.395  0.00  0.00    +0.012 A 
ATOM     15  C   LIG    1       23.582 -21.419   5.988  0.00  0.00    +0.012 A 
ATOM     16  C   LIG    1       27.047 -19.819   5.789  0.00  0.00    +0.037 A 
ENDROOT
BRANCH   5  17
ATOM     17  O   LIG    1       22.810 -18.558   3.084  0.00  0.00    -0.506 OA
ATOM     18  H   LIG    1       21.838 -18.401   3.123  0.00  0.00    +0.292 HD
ENDBRANCH   5  17
BRANCH  11  19
ATOM     19  O   LIG    1       27.787 -17.038   3.516  0.00  0.00    -0.506 OA
ATOM     20  H   LIG    1       28.428 -17.160   2.797  0.00  0.00    +0.292 HD
ENDBRANCH  11  19
TORSDOF 2
ENDMDL
MODEL 4
REMARK VINA RESULT:      -3.5      1.266      5.654
REMARK  Name = *****
REMARK                            x       y       z     vdW  Elec       q    Type
REMARK                         _______ _______ _______ _____ _____    ______ ____
ROOT
ATOM      1  O   LIG    1       27.330 -17.576   3.149  0.00  0.00    -0.287 OA
ATOM      2  C   LIG    1       26.252 -17.068   3.438  0.00  0.00    +0.195 C 
ATOM      3  C   LIG    1       26.119 -15.604   3.516  0.00  0.00    +0.037 A 
ATOM      4  C   LIG    1       24.896 -15.025   3.844  0.00  0.00    +0.074 A 
ATOM      5  C   LIG    1       24.805 -13.627   3.910  0.00  0.00    +0.128 A 
ATOM      6  C   LIG    1       25.917 -12.825   3.652  0.00  0.00    +0.046 A 
ATOM      7  C   LIG    1       27.136 -13.412   3.325  0.00  0.00    +0.004 A 
ATOM      8  C   LIG    1       23.719 -15.877   4.117  0.00  0.00    +0.202 C 
ATOM      9  O   LIG    1       22.667 -15.310   4.402  0.00  0.00    -0.286 OA
ATOM     10  C   LIG    1       23.843 -17.357   4.041  0.00  0.00    +0.074 A 
ATOM     11  C   LIG    1       22.760 -18.217   4.288  0.00  0.00    +0.128 A 
ATOM     12  C   LIG    1       22.913 -19.606   4.207  0.00  0.00    +0.046 A 
ATOM     13  C   LIG    1       24.150 -20.153   3.878  0.00  0.00    +0.004 A 
ATOM     14  C   LIG    1       25.232 -19.313   3.629  0.00  0.00    +0.012 A 
ATOM     15  C   LIG    1       27.240 -14.801   3.256  0.00  0.00    +0.012 A 
ATOM     16  C   LIG    1       25.078 -17.920   3.710  0.00  0.00    +0.037 A 
ENDROOT
BRANCH   5  17
ATOM     17  O   LIG    1       23.648 -12.965   4.224  0.00  0.00    -0.506 OA
ATOM     18  H   LIG    1       23.387 -13.231   5.137  0.00  0.00    +0.292 HD
ENDBRANCH   5  17
BRANCH  11  19
ATOM     19  O   LIG    1       21.529 -17.722   4.613  0.00  0.00    -0.506 OA
ATOM     20  H   LIG    1       21.019 -18.375   5.119  0.00  0.00    +0.292 HD
ENDBRANCH  11  19
TORSDOF 2
ENDMDL
MODEL 5
REMARK VINA RESULT:      -3.5      1.266      3.154
REMARK  Name = *****
REMARK                            x       y       z     vdW  Elec       q    Type
REMARK                         _______ _______ _______ _____ _____    ______ ____
ROOT
ATOM      1  O   LIG    1       27.331 -17.574   3.141  0.00  0.00    -0.287 OA
ATOM      2  C   LIG    1       26.254 -17.068   3.434  0.00  0.00    +0.195 C 
ATOM      3  C   LIG    1       25.081 -17.918   3.694  0.00  0.00    +0.037 A 
ATOM      4  C   LIG    1       23.856 -17.346   4.027  0.00  0.00    +0.074 A 
ATOM      5  C   LIG    1       22.759 -18.186   4.268  0.00  0.00    +0.128 A 
ATOM      6  C   LIG    1       22.887 -19.572   4.180  0.00  0.00    +0.046 A 
ATOM      7  C   LIG    1       24.115 -20.137   3.847  0.00  0.00    +0.004 A 
ATOM      8  C   LIG    1       23.722 -15.876   4.121  0.00  0.00    +0.202 C 
ATOM      9  O   LIG    1       22.618 -15.428   4.417  0.00  0.00    -0.286 OA
ATOM     10  C   LIG    1       24.902 -15.008   3.859  0.00  0.00    +0.074 A 
ATOM     11  C   LIG    1       24.836 -13.606   3.935  0.00  0.00    +0.128 A 
ATOM     12  C   LIG    1       25.966 -12.821   3.682  0.00  0.00    +0.046 A 
ATOM     13  C   LIG    1       27.176 -13.425   3.351  0.00  0.00    +0.004 A 
ATOM     14  C   LIG    1       27.256 -14.812   3.274  0.00  0.00    +0.012 A 
ATOM     15  C   LIG    1       25.214 -19.312   3.603  0.00  0.00    +0.012 A 
ATOM     16  C   LIG    1       26.122 -15.601   3.527  0.00  0.00    +0.037 A 
ENDROOT
BRANCH   5  17
ATOM     17  O   LIG    1       21.515 -17.718   4.601  0.00  0.00    -0.506 OA
ATOM     18  H   LIG    1       21.039 -18.439   5.076  0.00  0.00    +0.292 HD
ENDBRANCH   5  17
BRANCH  11  19
ATOM     19  O   LIG    1       23.669 -12.974   4.257  0.00  0.00    -0.506 OA
ATOM     20  H   LIG    1       22.913 -13.417   3.842  0.00  0.00    +0.292 HD
ENDBRANCH  11  19
TORSDOF 2
ENDMDL
