MODEL 1
REMARK VINA RESULT:      -0.9      0.000      0.000
REMARK  Name = *****
REMARK                            x       y       z     vdW  Elec       q    Type
REMARK                         _______ _______ _______ _____ _____    ______ ____
ROOT
ATOM      1  C   UNK A  0       21.947 -17.797   4.428  0.00  0.00    +0.069 A 
ATOM      2  S   UNK A  0       23.093 -16.867   3.536  0.00  0.00    -0.069 S 
ATOM      3  C   UNK A  0       23.073 -15.576   4.643  0.00  0.00    +0.076 A 
ATOM      4  C   UNK A  0       22.231 -15.837   5.700  0.00  0.00    +0.022 A 
ATOM      5  C   UNK A  0       21.630 -17.129   5.599  0.00  0.00    +0.032 A 
ENDROOT
BRANCH   3   6
ATOM      6  C   UNK A  0       23.858 -14.390   4.386  0.00  0.00    +0.251 C 
ATOM      7  N   GLU A  1       24.928 -14.551   3.537  0.00  0.00    -0.298 N 
ATOM      8  H   GLU A  1       25.005 -15.441   3.059  0.00  0.00    +0.150 HD
ATOM      9  O   UNK A  0       23.613 -13.276   4.858  0.00  0.00    -0.270 OA
BRANCH   7  10
ATOM     10  CA  GLU A  1       25.869 -13.471   3.232  0.00  0.00    +0.182 C 
BRANCH  10  11
ATOM     11  C   GLU A  1       25.272 -12.453   2.240  0.00  0.00    +0.325 C 
ATOM     12  O   GLU A  1       25.864 -11.473   1.812  0.00  0.00    -0.249 OA
BRANCH  11  13
ATOM     13  OXT GLU A  1       23.976 -12.704   1.932  0.00  0.00    -0.479 OA
ATOM     14  HXT GLU A  1       23.456 -11.890   1.721  0.00  0.00    +0.295 HD
ENDBRANCH  11  13
ENDBRANCH  10  11
BRANCH  10  15
ATOM     15  CB  GLU A  1       27.256 -13.997   2.828  0.00  0.00    +0.045 C 
BRANCH  15  16
ATOM     16  CG  GLU A  1       28.435 -13.505   3.678  0.00  0.00    +0.123 C 
BRANCH  16  17
ATOM     17  CD  GLU A  1       27.984 -13.090   5.059  0.00  0.00    +0.305 C 
ATOM     18  OE1 GLU A  1       27.131 -13.615   5.746  0.00  0.00    -0.251 OA
BRANCH  17  19
ATOM     19  OE2 GLU A  1       28.681 -12.029   5.511  0.00  0.00    -0.481 OA
ATOM     20  HE2 GLU A  1       28.321 -11.861   6.407  0.00  0.00    +0.295 HD
ENDBRANCH  17  19
ENDBRANCH  16  17
ENDBRANCH  15  16
ENDBRANCH  10  15
ENDBRANCH   7  10
ENDBRANCH   3   6
BRANCH   1  21
ATOM     21  N   UNK A  0       21.467 -19.011   3.997  0.00  0.00    -0.323 N 
ATOM     22  C   UNK A  0       21.247 -19.229   2.567  0.00  0.00    +0.130 C 
BRANCH  21  23
ATOM     23  C   UNK A  0       21.588 -20.207   4.846  0.00  0.00    +0.140 C 
BRANCH  23  31
ATOM     24  C   UNK A  0       29.333 -20.704   6.721  0.00  0.00    +0.086 C 
ATOM     25  C   UNK A  0       27.936 -20.441   6.212  0.00  0.00    +0.108 A 
ATOM     26  N   UNK A  0       26.897 -21.051   6.871  0.00  0.00    -0.343 N 
ATOM     27  H   UNK A  0       27.064 -21.664   7.657  0.00  0.00    +0.167 HD
ATOM     28  C   UNK A  0       25.591 -20.836   6.435  0.00  0.00    +0.053 A 
ATOM     29  C   UNK A  0       25.378 -20.015   5.324  0.00  0.00    +0.065 A 
ATOM     30  C   UNK A  0       24.094 -19.797   4.813  0.00  0.00    +0.020 A 
ATOM     31  C   UNK A  0       22.983 -20.392   5.422  0.00  0.00    -0.029 A 
ATOM     32  C   UNK A  0       23.194 -21.189   6.561  0.00  0.00    +0.007 A 
ATOM     33  C   UNK A  0       26.567 -19.395   4.686  0.00  0.00    +0.281 A 
ATOM     34  O   UNK A  0       26.390 -18.671   3.714  0.00  0.00    -0.265 OA
ATOM     35  C   UNK A  0       24.485 -21.412   7.062  0.00  0.00    +0.026 A 
ATOM     36  N   UNK A  0       27.821 -19.658   5.188  0.00  0.00    -0.196 NA
ENDBRANCH  23  31
ENDBRANCH  21  23
ENDBRANCH   1  21
TORSDOF 11
ENDMDL
MODEL 2
REMARK VINA RESULT:       0.6      1.221      2.253
REMARK  Name = *****
REMARK                            x       y       z     vdW  Elec       q    Type
REMARK                         _______ _______ _______ _____ _____    ______ ____
ROOT
ATOM      1  C   UNK A  0       21.709 -17.895   4.364  0.00  0.00    +0.069 A 
ATOM      2  S   UNK A  0       22.630 -17.200   3.083  0.00  0.00    -0.069 S 
ATOM      3  C   UNK A  0       23.213 -15.925   4.046  0.00  0.00    +0.076 A 
ATOM      4  C   UNK A  0       22.746 -16.020   5.338  0.00  0.00    +0.022 A 
ATOM      5  C   UNK A  0       21.929 -17.177   5.527  0.00  0.00    +0.032 A 
ENDROOT
BRANCH   3   6
ATOM      6  C   UNK A  0       24.060 -14.907   3.466  0.00  0.00    +0.251 C 
ATOM      7  N   GLU A  1       25.379 -14.932   3.855  0.00  0.00    -0.298 N 
ATOM      8  H   GLU A  1       25.681 -15.728   4.404  0.00  0.00    +0.150 HD
ATOM      9  O   UNK A  0       23.676 -14.061   2.654  0.00  0.00    -0.270 OA
BRANCH   7  10
ATOM     10  CA  GLU A  1       26.353 -13.928   3.423  0.00  0.00    +0.182 C 
BRANCH  10  11
ATOM     11  C   GLU A  1       27.759 -14.212   3.988  0.00  0.00    +0.325 C 
ATOM     12  O   GLU A  1       28.590 -13.352   4.244  0.00  0.00    -0.249 OA
BRANCH  11  13
ATOM     13  OXT GLU A  1       28.029 -15.535   4.110  0.00  0.00    -0.479 OA
ATOM     14  HXT GLU A  1       28.946 -15.723   4.426  0.00  0.00    +0.295 HD
ENDBRANCH  11  13
ENDBRANCH  10  11
BRANCH  10  15
ATOM     15  CB  GLU A  1       25.862 -12.491   3.664  0.00  0.00    +0.045 C 
BRANCH  15  16
ATOM     16  CG  GLU A  1       25.294 -12.200   5.060  0.00  0.00    +0.123 C 
BRANCH  16  17
ATOM     17  CD  GLU A  1       23.878 -11.680   4.982  0.00  0.00    +0.305 C 
ATOM     18  OE1 GLU A  1       23.124 -11.448   5.906  0.00  0.00    -0.251 OA
BRANCH  17  19
ATOM     19  OE2 GLU A  1       23.504 -11.447   3.709  0.00  0.00    -0.481 OA
ATOM     20  HE2 GLU A  1       23.550 -12.324   3.274  0.00  0.00    +0.295 HD
ENDBRANCH  17  19
ENDBRANCH  16  17
ENDBRANCH  15  16
ENDBRANCH  10  15
ENDBRANCH   7  10
ENDBRANCH   3   6
BRANCH   1  21
ATOM     21  N   UNK A  0       20.906 -18.999   4.197  0.00  0.00    -0.323 N 
ATOM     22  C   UNK A  0       19.691 -18.888   3.390  0.00  0.00    +0.130 C 
BRANCH  21  23
ATOM     23  C   UNK A  0       21.440 -20.352   4.422  0.00  0.00    +0.140 C 
BRANCH  23  31
ATOM     24  C   UNK A  0       29.035 -20.179   6.879  0.00  0.00    +0.086 C 
ATOM     25  C   UNK A  0       27.676 -20.086   6.226  0.00  0.00    +0.108 A 
ATOM     26  N   UNK A  0       26.597 -20.533   6.947  0.00  0.00    -0.343 N 
ATOM     27  H   UNK A  0       26.710 -20.924   7.873  0.00  0.00    +0.167 HD
ATOM     28  C   UNK A  0       25.323 -20.466   6.384  0.00  0.00    +0.053 A 
ATOM     29  C   UNK A  0       25.186 -19.958   5.090  0.00  0.00    +0.065 A 
ATOM     30  C   UNK A  0       23.940 -19.906   4.455  0.00  0.00    +0.020 A 
ATOM     31  C   UNK A  0       22.792 -20.353   5.119  0.00  0.00    -0.029 A 
ATOM     32  C   UNK A  0       22.926 -20.830   6.435  0.00  0.00    +0.007 A 
ATOM     33  C   UNK A  0       26.413 -19.492   4.397  0.00  0.00    +0.281 A 
ATOM     34  O   UNK A  0       26.302 -19.043   3.262  0.00  0.00    -0.265 OA
ATOM     35  C   UNK A  0       24.179 -20.890   7.061  0.00  0.00    +0.026 A 
ATOM     36  N   UNK A  0       27.631 -19.591   5.032  0.00  0.00    -0.196 NA
ENDBRANCH  23  31
ENDBRANCH  21  23
ENDBRANCH   1  21
TORSDOF 11
ENDMDL
