MODEL 1
REMARK VINA RESULT:      -5.2      0.000      0.000
REMARK  Name = *****
REMARK                            x       y       z     vdW  Elec       q    Type
REMARK                         _______ _______ _______ _____ _____    ______ ____
ROOT
ATOM      1  O   LIG    1       23.193 -19.406   3.862  0.00  0.00    -0.492 OA
ENDROOT
BRANCH   1   2
ATOM      2  C   LIG    1       23.344 -18.058   4.076  0.00  0.00    +0.121 A 
ATOM      3  C   LIG    1       24.492 -17.358   3.715  0.00  0.00    +0.050 A 
ATOM      4  C   LIG    1       24.576 -15.969   3.835  0.00  0.00    -0.030 A 
ATOM      5  C   LIG    1       23.494 -15.272   4.377  0.00  0.00    +0.005 A 
ATOM      6  C   LIG    1       22.363 -15.970   4.814  0.00  0.00    +0.004 A 
ATOM      7  C   LIG    1       22.292 -17.362   4.675  0.00  0.00    +0.045 A 
BRANCH   4   8
ATOM      8  C   LIG    1       25.838 -15.286   3.361  0.00  0.00    +0.119 C 
BRANCH   8   9
ATOM      9  N   LIG    1       25.759 -13.814   3.425  0.00  0.00    -0.298 NA
ATOM     10  C   LIG    1       25.673 -13.335   4.811  0.00  0.00    +0.085 C 
ATOM     11  C   LIG    1       26.975 -13.496   5.601  0.00  0.00    +0.015 C 
ATOM     12  C   LIG    1       28.170 -12.893   4.865  0.00  0.00    +0.002 C 
ATOM     13  C   LIG    1       28.216 -13.326   3.402  0.00  0.00    +0.015 C 
ATOM     14  C   LIG    1       26.859 -13.133   2.725  0.00  0.00    +0.085 C 
ENDBRANCH   8   9
ENDBRANCH   4   8
ENDBRANCH   1   2
BRANCH   1  15
ATOM     15  C   LIG    1       22.252 -20.053   4.738  0.00  0.00    +0.230 C 
BRANCH  15  16
ATOM     16  C   LIG    1       22.834 -20.158   6.135  0.00  0.00    +0.060 C 
BRANCH  16  17
ATOM     17  C   LIG    1       23.453 -21.534   6.360  0.00  0.00    +0.107 C 
BRANCH  17  19
ATOM     18  C   LIG    1       25.862 -21.003   6.136  0.00  0.00    +0.251 C 
ATOM     19  N   LIG    1       24.788 -21.413   6.893  0.00  0.00    -0.312 N 
ATOM     20  H   LIG    1       24.930 -21.587   7.886  0.00  0.00    +0.149 HD
ATOM     21  O   LIG    1       25.772 -20.710   4.947  0.00  0.00    -0.272 OA
BRANCH  18  22
ATOM     22  C   LIG    1       27.184 -20.907   6.909  0.00  0.00    +0.327 C 
BRANCH  22  23
ATOM     23  O   LIG    1       28.304 -20.590   6.076  0.00  0.00    -0.455 OA
BRANCH  23  25
ATOM     24  C   LIG    1       28.365 -18.529   4.959  0.00  0.00    +0.136 C 
ATOM     25  C   LIG    1       28.755 -19.308   6.179  0.00  0.00    +0.304 C 
ATOM     26  O   LIG    1       29.475 -18.884   7.061  0.00  0.00    -0.251 OA
ENDBRANCH  23  25
ENDBRANCH  22  23
ENDBRANCH  18  22
ENDBRANCH  17  19
ENDBRANCH  16  17
ENDBRANCH  15  16
ENDBRANCH   1  15
TORSDOF 10
ENDMDL
MODEL 2
REMARK VINA RESULT:      -4.9      2.475      6.394
REMARK  Name = *****
REMARK                            x       y       z     vdW  Elec       q    Type
REMARK                         _______ _______ _______ _____ _____    ______ ____
ROOT
ATOM      1  O   LIG    1       21.972 -17.367   4.276  0.00  0.00    -0.492 OA
ENDROOT
BRANCH   1   2
ATOM      2  C   LIG    1       22.158 -18.676   4.644  0.00  0.00    +0.121 A 
ATOM      3  C   LIG    1       23.172 -19.084   5.507  0.00  0.00    +0.050 A 
ATOM      4  C   LIG    1       23.269 -20.401   5.960  0.00  0.00    -0.030 A 
ATOM      5  C   LIG    1       22.351 -21.344   5.493  0.00  0.00    +0.005 A 
ATOM      6  C   LIG    1       21.372 -20.966   4.568  0.00  0.00    +0.004 A 
ATOM      7  C   LIG    1       21.282 -19.637   4.134  0.00  0.00    +0.045 A 
BRANCH   4   8
ATOM      8  C   LIG    1       24.365 -20.740   6.944  0.00  0.00    +0.119 C 
BRANCH   8   9
ATOM      9  N   LIG    1       25.434 -21.571   6.357  0.00  0.00    -0.298 NA
ATOM     10  C   LIG    1       25.618 -21.288   4.927  0.00  0.00    +0.085 C 
ATOM     11  C   LIG    1       26.253 -19.924   4.646  0.00  0.00    +0.015 C 
ATOM     12  C   LIG    1       27.545 -19.719   5.436  0.00  0.00    +0.002 C 
ATOM     13  C   LIG    1       27.377 -20.089   6.907  0.00  0.00    +0.015 C 
ATOM     14  C   LIG    1       26.721 -21.460   7.061  0.00  0.00    +0.085 C 
ENDBRANCH   8   9
ENDBRANCH   4   8
ENDBRANCH   1   2
BRANCH   1  15
ATOM     15  C   LIG    1       23.138 -16.533   4.405  0.00  0.00    +0.230 C 
BRANCH  15  16
ATOM     16  C   LIG    1       22.742 -15.174   4.952  0.00  0.00    +0.060 C 
BRANCH  16  17
ATOM     17  C   LIG    1       23.478 -14.061   4.212  0.00  0.00    +0.107 C 
BRANCH  17  19
ATOM     18  C   LIG    1       25.486 -13.899   2.772  0.00  0.00    +0.251 C 
ATOM     19  N   LIG    1       24.784 -14.504   3.790  0.00  0.00    -0.312 N 
ATOM     20  H   LIG    1       25.227 -15.263   4.304  0.00  0.00    +0.149 HD
ATOM     21  O   LIG    1       25.057 -12.938   2.140  0.00  0.00    -0.272 OA
BRANCH  18  22
ATOM     22  C   LIG    1       26.871 -14.505   2.509  0.00  0.00    +0.327 C 
BRANCH  22  23
ATOM     23  O   LIG    1       27.617 -14.750   3.705  0.00  0.00    -0.455 OA
BRANCH  23  25
ATOM     24  C   LIG    1       28.844 -12.770   3.982  0.00  0.00    +0.136 C 
ATOM     25  C   LIG    1       27.772 -13.669   4.521  0.00  0.00    +0.304 C 
ATOM     26  O   LIG    1       27.220 -13.511   5.592  0.00  0.00    -0.251 OA
ENDBRANCH  23  25
ENDBRANCH  22  23
ENDBRANCH  18  22
ENDBRANCH  17  19
ENDBRANCH  16  17
ENDBRANCH  15  16
ENDBRANCH   1  15
TORSDOF 10
ENDMDL
MODEL 3
REMARK VINA RESULT:      -4.6      2.540      6.317
REMARK  Name = *****
REMARK                            x       y       z     vdW  Elec       q    Type
REMARK                         _______ _______ _______ _____ _____    ______ ____
ROOT
ATOM      1  O   LIG    1       22.561 -18.779   3.968  0.00  0.00    -0.492 OA
ENDROOT
BRANCH   1   2
ATOM      2  C   LIG    1       23.020 -19.687   4.888  0.00  0.00    +0.121 A 
ATOM      3  C   LIG    1       24.308 -19.646   5.416  0.00  0.00    +0.050 A 
ATOM      4  C   LIG    1       24.715 -20.507   6.436  0.00  0.00    -0.030 A 
ATOM      5  C   LIG    1       23.817 -21.468   6.906  0.00  0.00    +0.005 A 
ATOM      6  C   LIG    1       22.544 -21.571   6.334  0.00  0.00    +0.004 A 
ATOM      7  C   LIG    1       22.150 -20.690   5.319  0.00  0.00    +0.045 A 
BRANCH   4   8
ATOM      8  C   LIG    1       26.112 -20.349   6.990  0.00  0.00    +0.119 C 
BRANCH   8   9
ATOM      9  N   LIG    1       27.154 -20.893   6.098  0.00  0.00    -0.298 NA
ATOM     10  C   LIG    1       27.271 -20.110   4.860  0.00  0.00    +0.085 C 
ATOM     11  C   LIG    1       27.889 -18.724   5.064  0.00  0.00    +0.015 C 
ATOM     12  C   LIG    1       29.216 -18.795   5.818  0.00  0.00    +0.002 C 
ATOM     13  C   LIG    1       29.118 -19.674   7.062  0.00  0.00    +0.015 C 
ATOM     14  C   LIG    1       28.472 -21.020   6.738  0.00  0.00    +0.085 C 
ENDBRANCH   8   9
ENDBRANCH   4   8
ENDBRANCH   1   2
BRANCH   1  15
ATOM     15  C   LIG    1       22.402 -17.439   4.470  0.00  0.00    +0.230 C 
BRANCH  15  16
ATOM     16  C   LIG    1       23.626 -16.611   4.126  0.00  0.00    +0.060 C 
BRANCH  16  17
ATOM     17  C   LIG    1       23.292 -15.123   4.141  0.00  0.00    +0.107 C 
BRANCH  17  19
ATOM     18  C   LIG    1       24.820 -13.222   3.711  0.00  0.00    +0.251 C 
ATOM     19  N   LIG    1       24.206 -14.385   3.304  0.00  0.00    -0.312 N 
ATOM     20  H   LIG    1       24.448 -14.771   2.393  0.00  0.00    +0.149 HD
ATOM     21  O   LIG    1       24.638 -12.717   4.815  0.00  0.00    -0.272 OA
BRANCH  18  22
ATOM     22  C   LIG    1       25.783 -12.619   2.680  0.00  0.00    +0.327 C 
BRANCH  22  23
ATOM     23  O   LIG    1       26.958 -13.409   2.473  0.00  0.00    -0.455 OA
BRANCH  23  25
ATOM     24  C   LIG    1       28.780 -12.925   3.868  0.00  0.00    +0.136 C 
ATOM     25  C   LIG    1       27.595 -13.806   3.611  0.00  0.00    +0.304 C 
ATOM     26  O   LIG    1       27.327 -14.799   4.258  0.00  0.00    -0.251 OA
ENDBRANCH  23  25
ENDBRANCH  22  23
ENDBRANCH  18  22
ENDBRANCH  17  19
ENDBRANCH  16  17
ENDBRANCH  15  16
ENDBRANCH   1  15
TORSDOF 10
ENDMDL
MODEL 4
REMARK VINA RESULT:      -3.8      2.464      7.550
REMARK  Name = *****
REMARK                            x       y       z     vdW  Elec       q    Type
REMARK                         _______ _______ _______ _____ _____    ______ ____
ROOT
ATOM      1  O   LIG    1       29.276 -18.039   5.683  0.00  0.00    -0.492 OA
ENDROOT
BRANCH   1   2
ATOM      2  C   LIG    1       28.666 -19.164   6.180  0.00  0.00    +0.121 A 
ATOM      3  C   LIG    1       27.283 -19.316   6.233  0.00  0.00    +0.050 A 
ATOM      4  C   LIG    1       26.688 -20.513   6.632  0.00  0.00    -0.030 A 
ATOM      5  C   LIG    1       27.506 -21.571   7.036  0.00  0.00    +0.005 A 
ATOM      6  C   LIG    1       28.895 -21.409   7.059  0.00  0.00    +0.004 A 
ATOM      7  C   LIG    1       29.475 -20.203   6.643  0.00  0.00    +0.045 A 
BRANCH   4   8
ATOM      8  C   LIG    1       25.180 -20.608   6.600  0.00  0.00    +0.119 C 
BRANCH   8   9
ATOM      9  N   LIG    1       24.663 -21.200   5.351  0.00  0.00    -0.298 NA
ATOM     10  C   LIG    1       23.195 -21.259   5.345  0.00  0.00    +0.085 C 
ATOM     11  C   LIG    1       22.525 -19.890   5.205  0.00  0.00    +0.015 C 
ATOM     12  C   LIG    1       23.067 -19.106   4.011  0.00  0.00    +0.002 C 
ATOM     13  C   LIG    1       24.592 -19.112   3.971  0.00  0.00    +0.015 C 
ATOM     14  C   LIG    1       25.145 -20.526   4.136  0.00  0.00    +0.085 C 
ENDBRANCH   8   9
ENDBRANCH   4   8
ENDBRANCH   1   2
BRANCH   1  15
ATOM     15  C   LIG    1       28.675 -17.505   4.489  0.00  0.00    +0.230 C 
BRANCH  15  16
ATOM     16  C   LIG    1       27.939 -16.217   4.813  0.00  0.00    +0.060 C 
BRANCH  16  17
ATOM     17  C   LIG    1       28.489 -15.060   3.986  0.00  0.00    +0.107 C 
BRANCH  17  19
ATOM     18  C   LIG    1       26.725 -13.763   2.828  0.00  0.00    +0.251 C 
ATOM     19  N   LIG    1       27.535 -13.980   3.920  0.00  0.00    -0.312 N 
ATOM     20  H   LIG    1       27.418 -13.386   4.739  0.00  0.00    +0.149 HD
ATOM     21  O   LIG    1       26.750 -14.467   1.823  0.00  0.00    -0.272 OA
BRANCH  18  22
ATOM     22  C   LIG    1       25.755 -12.583   2.981  0.00  0.00    +0.327 C 
BRANCH  22  23
ATOM     23  O   LIG    1       24.381 -12.959   2.850  0.00  0.00    -0.455 OA
BRANCH  23  25
ATOM     24  C   LIG    1       24.047 -12.940   5.171  0.00  0.00    +0.136 C 
ATOM     25  C   LIG    1       23.881 -13.692   3.884  0.00  0.00    +0.304 C 
ATOM     26  O   LIG    1       23.475 -14.834   3.806  0.00  0.00    -0.251 OA
ENDBRANCH  23  25
ENDBRANCH  22  23
ENDBRANCH  18  22
ENDBRANCH  17  19
ENDBRANCH  16  17
ENDBRANCH  15  16
ENDBRANCH   1  15
TORSDOF 10
ENDMDL
MODEL 5
REMARK VINA RESULT:      -3.8      1.683      4.394
REMARK  Name = *****
REMARK                            x       y       z     vdW  Elec       q    Type
REMARK                         _______ _______ _______ _____ _____    ______ ____
ROOT
ATOM      1  O   LIG    1       29.009 -18.572   5.003  0.00  0.00    -0.492 OA
ENDROOT
BRANCH   1   2
ATOM      2  C   LIG    1       27.935 -17.932   4.437  0.00  0.00    +0.121 A 
ATOM      3  C   LIG    1       27.900 -16.557   4.220  0.00  0.00    +0.050 A 
ATOM      4  C   LIG    1       26.847 -15.946   3.537  0.00  0.00    -0.030 A 
ATOM      5  C   LIG    1       25.777 -16.731   3.103  0.00  0.00    +0.005 A 
ATOM      6  C   LIG    1       25.762 -18.103   3.379  0.00  0.00    +0.004 A 
ATOM      7  C   LIG    1       26.834 -18.701   4.055  0.00  0.00    +0.045 A 
BRANCH   4   8
ATOM      8  C   LIG    1       26.923 -14.456   3.293  0.00  0.00    +0.119 C 
BRANCH   8   9
ATOM      9  N   LIG    1       26.151 -13.668   4.274  0.00  0.00    -0.298 NA
ATOM     10  C   LIG    1       26.138 -12.239   3.933  0.00  0.00    +0.085 C 
ATOM     11  C   LIG    1       25.290 -11.907   2.703  0.00  0.00    +0.015 C 
ATOM     12  C   LIG    1       23.877 -12.478   2.811  0.00  0.00    +0.002 C 
ATOM     13  C   LIG    1       23.885 -13.941   3.243  0.00  0.00    +0.015 C 
ATOM     14  C   LIG    1       24.775 -14.152   4.466  0.00  0.00    +0.085 C 
ENDBRANCH   8   9
ENDBRANCH   4   8
ENDBRANCH   1   2
BRANCH   1  15
ATOM     15  C   LIG    1       28.809 -19.000   6.362  0.00  0.00    +0.230 C 
BRANCH  15  16
ATOM     16  C   LIG    1       29.039 -20.496   6.471  0.00  0.00    +0.060 C 
BRANCH  16  17
ATOM     17  C   LIG    1       27.815 -21.188   7.062  0.00  0.00    +0.107 C 
BRANCH  17  19
ATOM     18  C   LIG    1       25.558 -21.126   6.044  0.00  0.00    +0.251 C 
ATOM     19  N   LIG    1       26.873 -21.533   6.025  0.00  0.00    -0.312 N 
ATOM     20  H   LIG    1       27.211 -22.054   5.218  0.00  0.00    +0.149 HD
ATOM     21  O   LIG    1       25.080 -20.442   6.944  0.00  0.00    -0.272 OA
BRANCH  18  22
ATOM     22  C   LIG    1       24.739 -21.571   4.825  0.00  0.00    +0.327 C 
BRANCH  22  23
ATOM     23  O   LIG    1       23.918 -20.531   4.285  0.00  0.00    -0.455 OA
BRANCH  23  25
ATOM     24  C   LIG    1       22.105 -19.068   4.558  0.00  0.00    +0.136 C 
ATOM     25  C   LIG    1       22.680 -20.423   4.844  0.00  0.00    +0.304 C 
ATOM     26  O   LIG    1       22.162 -21.246   5.573  0.00  0.00    -0.251 OA
ENDBRANCH  23  25
ENDBRANCH  22  23
ENDBRANCH  18  22
ENDBRANCH  17  19
ENDBRANCH  16  17
ENDBRANCH  15  16
ENDBRANCH   1  15
TORSDOF 10
ENDMDL
MODEL 6
REMARK VINA RESULT:      -3.6      1.604      4.630
REMARK  Name = *****
REMARK                            x       y       z     vdW  Elec       q    Type
REMARK                         _______ _______ _______ _____ _____    ______ ____
ROOT
ATOM      1  O   LIG    1       26.397 -20.710   5.539  0.00  0.00    -0.492 OA
ENDROOT
BRANCH   1   2
ATOM      2  C   LIG    1       27.139 -19.607   5.198  0.00  0.00    +0.121 A 
ATOM      3  C   LIG    1       26.623 -18.548   4.454  0.00  0.00    +0.050 A 
ATOM      4  C   LIG    1       27.359 -17.386   4.219  0.00  0.00    -0.030 A 
ATOM      5  C   LIG    1       28.666 -17.304   4.704  0.00  0.00    +0.005 A 
ATOM      6  C   LIG    1       29.224 -18.389   5.389  0.00  0.00    +0.004 A 
ATOM      7  C   LIG    1       28.466 -19.544   5.626  0.00  0.00    +0.045 A 
BRANCH   4   8
ATOM      8  C   LIG    1       26.697 -16.263   3.454  0.00  0.00    +0.119 C 
BRANCH   8   9
ATOM      9  N   LIG    1       27.436 -14.988   3.539  0.00  0.00    -0.298 NA
ATOM     10  C   LIG    1       27.208 -14.148   2.356  0.00  0.00    +0.085 C 
ATOM     11  C   LIG    1       25.799 -13.554   2.284  0.00  0.00    +0.015 C 
ATOM     12  C   LIG    1       25.416 -12.832   3.575  0.00  0.00    +0.002 C 
ATOM     13  C   LIG    1       25.726 -13.672   4.811  0.00  0.00    +0.015 C 
ATOM     14  C   LIG    1       27.150 -14.223   4.762  0.00  0.00    +0.085 C 
ENDBRANCH   8   9
ENDBRANCH   4   8
ENDBRANCH   1   2
BRANCH   1  15
ATOM     15  C   LIG    1       25.971 -20.748   6.914  0.00  0.00    +0.230 C 
BRANCH  15  16
ATOM     16  C   LIG    1       24.521 -21.188   6.992  0.00  0.00    +0.060 C 
BRANCH  16  17
ATOM     17  C   LIG    1       23.941 -21.385   5.594  0.00  0.00    +0.107 C 
BRANCH  17  19
ATOM     18  C   LIG    1       22.160 -19.933   4.672  0.00  0.00    +0.251 C 
ATOM     19  N   LIG    1       23.466 -20.133   5.057  0.00  0.00    -0.312 N 
ATOM     20  H   LIG    1       24.113 -19.348   5.013  0.00  0.00    +0.149 HD
ATOM     21  O   LIG    1       21.296 -20.802   4.749  0.00  0.00    -0.272 OA
BRANCH  18  22
ATOM     22  C   LIG    1       21.858 -18.516   4.164  0.00  0.00    +0.327 C 
BRANCH  22  23
ATOM     23  O   LIG    1       22.898 -17.578   4.455  0.00  0.00    -0.455 OA
BRANCH  23  25
ATOM     24  C   LIG    1       23.114 -15.281   4.031  0.00  0.00    +0.136 C 
ATOM     25  C   LIG    1       22.471 -16.350   4.863  0.00  0.00    +0.304 C 
ATOM     26  O   LIG    1       21.774 -16.134   5.835  0.00  0.00    -0.251 OA
ENDBRANCH  23  25
ENDBRANCH  22  23
ENDBRANCH  18  22
ENDBRANCH  17  19
ENDBRANCH  16  17
ENDBRANCH  15  16
ENDBRANCH   1  15
TORSDOF 10
ENDMDL
MODEL 7
REMARK VINA RESULT:      -3.5      1.516      2.493
REMARK  Name = *****
REMARK                            x       y       z     vdW  Elec       q    Type
REMARK                         _______ _______ _______ _____ _____    ______ ____
ROOT
ATOM      1  O   LIG    1       22.943 -16.208   4.416  0.00  0.00    -0.492 OA
ENDROOT
BRANCH   1   2
ATOM      2  C   LIG    1       23.638 -15.038   4.238  0.00  0.00    +0.121 A 
ATOM      3  C   LIG    1       24.853 -14.975   3.561  0.00  0.00    +0.050 A 
ATOM      4  C   LIG    1       25.483 -13.759   3.291  0.00  0.00    -0.030 A 
ATOM      5  C   LIG    1       24.899 -12.578   3.756  0.00  0.00    +0.005 A 
ATOM      6  C   LIG    1       23.718 -12.632   4.502  0.00  0.00    +0.004 A 
ATOM      7  C   LIG    1       23.093 -13.861   4.754  0.00  0.00    +0.045 A 
BRANCH   4   8
ATOM      8  C   LIG    1       26.769 -13.781   2.496  0.00  0.00    +0.119 C 
BRANCH   8   9
ATOM      9  N   LIG    1       27.912 -14.318   3.259  0.00  0.00    -0.298 NA
ATOM     10  C   LIG    1       29.026 -13.361   3.313  0.00  0.00    +0.085 C 
ATOM     11  C   LIG    1       28.750 -12.146   4.202  0.00  0.00    +0.015 C 
ATOM     12  C   LIG    1       28.282 -12.552   5.598  0.00  0.00    +0.002 C 
ATOM     13  C   LIG    1       27.179 -13.606   5.545  0.00  0.00    +0.015 C 
ATOM     14  C   LIG    1       27.560 -14.758   4.617  0.00  0.00    +0.085 C 
ENDBRANCH   8   9
ENDBRANCH   4   8
ENDBRANCH   1   2
BRANCH   1  15
ATOM     15  C   LIG    1       23.654 -17.398   4.027  0.00  0.00    +0.230 C 
BRANCH  15  16
ATOM     16  C   LIG    1       22.812 -18.624   4.329  0.00  0.00    +0.060 C 
BRANCH  16  17
ATOM     17  C   LIG    1       23.543 -19.896   3.912  0.00  0.00    +0.107 C 
BRANCH  17  19
ATOM     18  C   LIG    1       24.975 -20.702   5.765  0.00  0.00    +0.251 C 
ATOM     19  N   LIG    1       24.811 -20.003   4.591  0.00  0.00    -0.312 N 
ATOM     20  H   LIG    1       25.632 -19.588   4.152  0.00  0.00    +0.149 HD
ATOM     21  O   LIG    1       24.056 -21.287   6.331  0.00  0.00    -0.272 OA
BRANCH  18  22
ATOM     22  C   LIG    1       26.414 -20.720   6.298  0.00  0.00    +0.327 C 
BRANCH  22  23
ATOM     23  O   LIG    1       27.287 -19.827   5.599  0.00  0.00    -0.455 OA
BRANCH  23  25
ATOM     24  C   LIG    1       29.273 -18.581   5.599  0.00  0.00    +0.136 C 
ATOM     25  C   LIG    1       28.585 -19.847   6.012  0.00  0.00    +0.304 C 
ATOM     26  O   LIG    1       29.146 -20.794   6.527  0.00  0.00    -0.251 OA
ENDBRANCH  23  25
ENDBRANCH  22  23
ENDBRANCH  18  22
ENDBRANCH  17  19
ENDBRANCH  16  17
ENDBRANCH  15  16
ENDBRANCH   1  15
TORSDOF 10
ENDMDL
MODEL 8
REMARK VINA RESULT:      -3.2      2.534      7.558
REMARK  Name = *****
REMARK                            x       y       z     vdW  Elec       q    Type
REMARK                         _______ _______ _______ _____ _____    ______ ____
ROOT
ATOM      1  O   LIG    1       28.025 -18.331   4.149  0.00  0.00    -0.492 OA
ENDROOT
BRANCH   1   2
ATOM      2  C   LIG    1       27.493 -19.231   5.038  0.00  0.00    +0.121 A 
ATOM      3  C   LIG    1       26.262 -19.852   4.842  0.00  0.00    +0.050 A 
ATOM      4  C   LIG    1       25.795 -20.851   5.698  0.00  0.00    -0.030 A 
ATOM      5  C   LIG    1       26.566 -21.202   6.808  0.00  0.00    +0.005 A 
ATOM      6  C   LIG    1       27.770 -20.535   7.060  0.00  0.00    +0.004 A 
ATOM      7  C   LIG    1       28.228 -19.543   6.183  0.00  0.00    +0.045 A 
BRANCH   4   8
ATOM      8  C   LIG    1       24.475 -21.512   5.373  0.00  0.00    +0.119 C 
BRANCH   8   9
ATOM      9  N   LIG    1       23.355 -21.000   6.186  0.00  0.00    -0.298 NA
ATOM     10  C   LIG    1       23.288 -19.533   6.155  0.00  0.00    +0.085 C 
ATOM     11  C   LIG    1       22.829 -18.966   4.809  0.00  0.00    +0.015 C 
ATOM     12  C   LIG    1       21.525 -19.604   4.334  0.00  0.00    +0.002 C 
ATOM     13  C   LIG    1       21.563 -21.126   4.441  0.00  0.00    +0.015 C 
ATOM     14  C   LIG    1       22.051 -21.571   5.818  0.00  0.00    +0.085 C 
ENDBRANCH   8   9
ENDBRANCH   4   8
ENDBRANCH   1   2
BRANCH   1  15
ATOM     15  C   LIG    1       28.108 -16.979   4.638  0.00  0.00    +0.230 C 
BRANCH  15  16
ATOM     16  C   LIG    1       27.405 -16.039   3.676  0.00  0.00    +0.060 C 
BRANCH  16  17
ATOM     17  C   LIG    1       27.930 -14.615   3.835  0.00  0.00    +0.107 C 
BRANCH  17  19
ATOM     18  C   LIG    1       26.311 -13.251   5.120  0.00  0.00    +0.251 C 
ATOM     19  N   LIG    1       26.839 -13.676   3.922  0.00  0.00    -0.312 N 
ATOM     20  H   LIG    1       26.480 -13.268   3.060  0.00  0.00    +0.149 HD
ATOM     21  O   LIG    1       26.722 -13.640   6.210  0.00  0.00    -0.272 OA
BRANCH  18  22
ATOM     22  C   LIG    1       25.181 -12.221   4.987  0.00  0.00    +0.327 C 
BRANCH  22  23
ATOM     23  O   LIG    1       23.890 -12.817   4.824  0.00  0.00    -0.455 OA
BRANCH  23  25
ATOM     24  C   LIG    1       23.362 -15.013   4.194  0.00  0.00    +0.136 C 
ATOM     25  C   LIG    1       23.766 -13.641   3.745  0.00  0.00    +0.304 C 
ATOM     26  O   LIG    1       24.058 -13.352   2.601  0.00  0.00    -0.251 OA
ENDBRANCH  23  25
ENDBRANCH  22  23
ENDBRANCH  18  22
ENDBRANCH  17  19
ENDBRANCH  16  17
ENDBRANCH  15  16
ENDBRANCH   1  15
TORSDOF 10
ENDMDL
MODEL 9
REMARK VINA RESULT:      -2.8      1.757      3.107
REMARK  Name = *****
REMARK                            x       y       z     vdW  Elec       q    Type
REMARK                         _______ _______ _______ _____ _____    ______ ____
ROOT
ATOM      1  O   LIG    1       25.084 -19.886   3.657  0.00  0.00    -0.492 OA
ENDROOT
BRANCH   1   2
ATOM      2  C   LIG    1       24.083 -19.029   4.042  0.00  0.00    +0.121 A 
ATOM      3  C   LIG    1       24.148 -17.652   3.850  0.00  0.00    +0.050 A 
ATOM      4  C   LIG    1       23.070 -16.815   4.142  0.00  0.00    -0.030 A 
ATOM      5  C   LIG    1       21.911 -17.372   4.687  0.00  0.00    +0.005 A 
ATOM      6  C   LIG    1       21.858 -18.744   4.957  0.00  0.00    +0.004 A 
ATOM      7  C   LIG    1       22.946 -19.571   4.646  0.00  0.00    +0.045 A 
BRANCH   4   8
ATOM      8  C   LIG    1       23.209 -15.340   3.843  0.00  0.00    +0.119 C 
BRANCH   8   9
ATOM      9  N   LIG    1       24.592 -14.847   3.988  0.00  0.00    -0.298 NA
ATOM     10  C   LIG    1       25.181 -14.492   2.689  0.00  0.00    +0.085 C 
ATOM     11  C   LIG    1       24.585 -13.226   2.069  0.00  0.00    +0.015 C 
ATOM     12  C   LIG    1       24.604 -12.048   3.042  0.00  0.00    +0.002 C 
ATOM     13  C   LIG    1       24.066 -12.436   4.416  0.00  0.00    +0.015 C 
ATOM     14  C   LIG    1       24.721 -13.720   4.924  0.00  0.00    +0.085 C 
ENDBRANCH   8   9
ENDBRANCH   4   8
ENDBRANCH   1   2
BRANCH   1  15
ATOM     15  C   LIG    1       25.178 -21.092   4.437  0.00  0.00    +0.230 C 
BRANCH  15  16
ATOM     16  C   LIG    1       25.222 -20.749   5.915  0.00  0.00    +0.060 C 
BRANCH  16  17
ATOM     17  C   LIG    1       26.659 -20.750   6.426  0.00  0.00    +0.107 C 
BRANCH  17  19
ATOM     18  C   LIG    1       28.785 -19.564   5.967  0.00  0.00    +0.251 C 
ATOM     19  N   LIG    1       27.425 -19.699   5.801  0.00  0.00    -0.312 N 
ATOM     20  H   LIG    1       26.946 -19.063   5.167  0.00  0.00    +0.149 HD
ATOM     21  O   LIG    1       29.455 -20.323   6.662  0.00  0.00    -0.272 OA
BRANCH  18  22
ATOM     22  C   LIG    1       29.407 -18.401   5.184  0.00  0.00    +0.327 C 
BRANCH  22  23
ATOM     23  O   LIG    1       28.740 -17.154   5.398  0.00  0.00    -0.455 OA
BRANCH  23  25
ATOM     24  C   LIG    1       28.019 -15.216   4.290  0.00  0.00    +0.136 C 
ATOM     25  C   LIG    1       27.987 -16.714   4.350  0.00  0.00    +0.304 C 
ATOM     26  O   LIG    1       27.290 -17.412   3.642  0.00  0.00    -0.251 OA
ENDBRANCH  23  25
ENDBRANCH  22  23
ENDBRANCH  18  22
ENDBRANCH  17  19
ENDBRANCH  16  17
ENDBRANCH  15  16
ENDBRANCH   1  15
TORSDOF 10
ENDMDL
