MODEL 1
REMARK VINA RESULT:      -2.2      0.000      0.000
REMARK  Name = *****
REMARK                            x       y       z     vdW  Elec       q    Type
REMARK                         _______ _______ _______ _____ _____    ______ ____
ROOT
ATOM      1  N   LIG    1       23.906 -19.570   5.827  0.00  0.00    -0.297 NA
ATOM      2  C   LIG    1       24.559 -20.516   4.864  0.00  0.00    +0.064 C 
ATOM      3  C   LIG    1       25.170 -19.779   3.657  0.00  0.00    +0.013 C 
ATOM      4  C   LIG    1       26.381 -18.912   4.065  0.00  0.00    +0.044 C 
ATOM      5  C   LIG    1       27.338 -19.539   5.055  0.00  0.00    -0.002 A 
ATOM      6  C   LIG    1       26.967 -20.709   5.748  0.00  0.00    -0.039 A 
ATOM      7  C   LIG    1       27.819 -21.239   6.731  0.00  0.00    +0.004 A 
ATOM      8  C   LIG    1       29.011 -20.595   7.062  0.00  0.00    +0.004 A 
ATOM      9  C   LIG    1       29.376 -19.432   6.392  0.00  0.00    +0.045 A 
ATOM     10  C   LIG    1       28.549 -18.913   5.398  0.00  0.00    +0.120 A 
ATOM     11  C   LIG    1       24.057 -19.030   2.916  0.00  0.00    +0.027 C 
ATOM     12  C   LIG    1       23.365 -17.984   3.782  0.00  0.00    +0.092 C 
ATOM     13  C   LIG    1       25.693 -21.436   5.395  0.00  0.00    +0.054 C 
ATOM     14  C   LIG    1       22.957 -18.647   5.131  0.00  0.00    +0.105 C 
ENDROOT
BRANCH  10  15
ATOM     15  O   LIG    1       28.990 -17.759   4.812  0.00  0.00    -0.506 OA
ATOM     16  H   LIG    1       28.582 -17.662   3.937  0.00  0.00    +0.292 HD
ENDBRANCH  10  15
BRANCH  12  17
ATOM     17  N   LIG    1       24.174 -16.766   3.982  0.00  0.00    -0.175 NA
ATOM     18  H   LIG    1       25.106 -16.886   4.399  0.00  0.00    +0.149 HD
BRANCH  17  19
ATOM     19  S   LIG    1       23.493 -15.271   4.278  0.00  0.00    +0.097 S 
ATOM     20  O   LIG    1       22.970 -15.232   5.615  0.00  0.00    -0.141 OA
ATOM     21  O   LIG    1       22.663 -14.991   3.148  0.00  0.00    -0.141 OA
BRANCH  19  22
ATOM     22  N   LIG    1       24.870 -14.252   4.163  0.00  0.00    -0.167 NA
BRANCH  22  23
ATOM     23  C   LIG    1       24.559 -12.859   3.724  0.00  0.00    +0.107 C 
ATOM     24  C   LIG    1       23.886 -12.025   4.803  0.00  0.00    +0.022 C 
ENDBRANCH  22  23
BRANCH  22  25
ATOM     25  C   LIG    1       26.046 -14.899   3.492  0.00  0.00    +0.107 C 
ATOM     26  C   LIG    1       27.396 -14.501   4.074  0.00  0.00    +0.022 C 
ENDBRANCH  22  25
ENDBRANCH  19  22
ENDBRANCH  17  19
ENDBRANCH  12  17
BRANCH   1  27
ATOM     27  C   LIG    1       23.156 -20.326   6.874  0.00  0.00    +0.084 C 
BRANCH  27  29
ATOM     28  C   LIG    1       21.652 -21.284   5.069  0.00  0.00    +0.005 C 
ATOM     29  C   LIG    1       22.400 -21.572   6.368  0.00  0.00    +0.012 C 
ENDBRANCH  27  29
ENDBRANCH   1  27
TORSDOF 8
ENDMDL
MODEL 2
REMARK VINA RESULT:       0.7      1.927      2.489
REMARK  Name = *****
REMARK                            x       y       z     vdW  Elec       q    Type
REMARK                         _______ _______ _______ _____ _____    ______ ____
ROOT
ATOM      1  N   LIG    1       23.826 -18.263   4.628  0.00  0.00    -0.297 NA
ATOM      2  C   LIG    1       24.485 -19.219   3.679  0.00  0.00    +0.064 C 
ATOM      3  C   LIG    1       25.757 -18.621   3.050  0.00  0.00    +0.013 C 
ATOM      4  C   LIG    1       26.883 -18.436   4.091  0.00  0.00    +0.044 C 
ATOM      5  C   LIG    1       27.062 -19.569   5.078  0.00  0.00    -0.002 A 
ATOM      6  C   LIG    1       26.074 -20.567   5.189  0.00  0.00    -0.039 A 
ATOM      7  C   LIG    1       26.197 -21.567   6.168  0.00  0.00    +0.004 A 
ATOM      8  C   LIG    1       27.268 -21.560   7.061  0.00  0.00    +0.004 A 
ATOM      9  C   LIG    1       28.239 -20.569   6.966  0.00  0.00    +0.045 A 
ATOM     10  C   LIG    1       28.137 -19.587   5.983  0.00  0.00    +0.120 A 
ATOM     11  C   LIG    1       25.380 -17.355   2.272  0.00  0.00    +0.027 C 
ATOM     12  C   LIG    1       24.761 -16.277   3.154  0.00  0.00    +0.092 C 
ATOM     13  C   LIG    1       24.916 -20.610   4.222  0.00  0.00    +0.054 C 
ATOM     14  C   LIG    1       23.623 -16.920   4.001  0.00  0.00    +0.105 C 
ENDROOT
BRANCH  10  15
ATOM     15  O   LIG    1       29.134 -18.651   5.983  0.00  0.00    -0.506 OA
ATOM     16  H   LIG    1       29.917 -19.010   5.536  0.00  0.00    +0.292 HD
ENDBRANCH  10  15
BRANCH  12  17
ATOM     17  N   LIG    1       25.751 -15.574   3.994  0.00  0.00    -0.175 NA
ATOM     18  H   LIG    1       25.489 -15.385   4.969  0.00  0.00    +0.149 HD
BRANCH  17  19
ATOM     19  S   LIG    1       26.846 -14.478   3.369  0.00  0.00    +0.097 S 
ATOM     20  O   LIG    1       26.857 -14.568   1.935  0.00  0.00    -0.141 OA
ATOM     21  O   LIG    1       28.043 -14.646   4.132  0.00  0.00    -0.141 OA
BRANCH  19  22
ATOM     22  N   LIG    1       26.137 -12.992   3.852  0.00  0.00    -0.167 NA
BRANCH  22  23
ATOM     23  C   LIG    1       25.510 -13.032   5.207  0.00  0.00    +0.107 C 
ATOM     24  C   LIG    1       26.444 -13.557   6.287  0.00  0.00    +0.022 C 
ENDBRANCH  22  23
BRANCH  22  25
ATOM     25  C   LIG    1       25.324 -12.332   2.778  0.00  0.00    +0.107 C 
ATOM     26  C   LIG    1       23.857 -12.742   2.763  0.00  0.00    +0.022 C 
ENDBRANCH  22  25
ENDBRANCH  19  22
ENDBRANCH  17  19
ENDBRANCH  12  17
BRANCH   1  27
ATOM     27  C   LIG    1       22.500 -18.791   5.064  0.00  0.00    +0.084 C 
BRANCH  27  29
ATOM     28  C   LIG    1       21.772 -21.222   5.049  0.00  0.00    +0.005 C 
ATOM     29  C   LIG    1       22.544 -20.144   5.804  0.00  0.00    +0.012 C 
ENDBRANCH  27  29
ENDBRANCH   1  27
TORSDOF 8
ENDMDL
