MODEL 1
REMARK VINA RESULT:      -7.0      0.000      0.000
REMARK  Name = *****
REMARK                            x       y       z     vdW  Elec       q    Type
REMARK                         _______ _______ _______ _____ _____    ______ ____
ROOT
ATOM      1  C   LIG    1       24.363 -12.696   3.203  0.00  0.00    +0.028 A 
ATOM      2  C   LIG    1       25.519 -12.928   2.454  0.00  0.00    +0.069 A 
ATOM      3  C   LIG    1       26.213 -14.135   2.569  0.00  0.00    +0.133 A 
ATOM      4  C   LIG    1       25.731 -15.156   3.399  0.00  0.00    +0.101 A 
ATOM      5  C   LIG    1       24.540 -14.945   4.108  0.00  0.00    +0.020 A 
ATOM      6  C   LIG    1       23.857 -13.730   3.991  0.00  0.00    +0.024 A 
ENDROOT
BRANCH   1   7
ATOM      7  N   LIG    1       23.601 -11.542   2.992  0.00  0.00    -0.358 N 
ATOM      8  H   LIG    1       22.799 -11.461   3.610  0.00  0.00    +0.142 HD
ATOM      9  H   LIG    1       23.353 -11.383   2.021  0.00  0.00    +0.142 HD
ENDBRANCH   1   7
BRANCH   3  10
ATOM     10  O   LIG    1       27.361 -14.242   1.826  0.00  0.00    -0.506 OA
ATOM     11  H   LIG    1       27.336 -13.577   1.103  0.00  0.00    +0.292 HD
ENDBRANCH   3  10
BRANCH   4  12
ATOM     12  C   LIG    1       26.474 -16.437   3.495  0.00  0.00    +0.348 C 
ATOM     13  O   LIG    1       27.560 -16.517   4.056  0.00  0.00    -0.244 OA
BRANCH  12  14
ATOM     14  O   LIG    1       25.761 -17.448   2.876  0.00  0.00    -0.422 OA
BRANCH  14  15
ATOM     15  C   LIG    1       25.228 -18.521   3.613  0.00  0.00    +0.132 A 
ATOM     16  C   LIG    1       23.836 -18.570   3.712  0.00  0.00    +0.046 A 
ATOM     17  C   LIG    1       23.236 -19.573   4.473  0.00  0.00    +0.004 A 
ATOM     18  C   LIG    1       24.028 -20.513   5.134  0.00  0.00    +0.000 A 
ATOM     19  C   LIG    1       25.419 -20.443   5.046  0.00  0.00    +0.004 A 
ATOM     20  C   LIG    1       26.025 -19.439   4.295  0.00  0.00    +0.046 A 
ENDBRANCH  14  15
ENDBRANCH  12  14
ENDBRANCH   4  12
TORSDOF 5
ENDMDL
MODEL 2
REMARK VINA RESULT:      -6.1      2.851      5.993
REMARK  Name = *****
REMARK                            x       y       z     vdW  Elec       q    Type
REMARK                         _______ _______ _______ _____ _____    ______ ____
ROOT
ATOM      1  C   LIG    1       23.291 -20.664   4.528  0.00  0.00    +0.028 A 
ATOM      2  C   LIG    1       24.623 -20.937   4.847  0.00  0.00    +0.069 A 
ATOM      3  C   LIG    1       25.633 -20.021   4.541  0.00  0.00    +0.133 A 
ATOM      4  C   LIG    1       25.318 -18.785   3.958  0.00  0.00    +0.101 A 
ATOM      5  C   LIG    1       23.975 -18.487   3.690  0.00  0.00    +0.020 A 
ATOM      6  C   LIG    1       22.973 -19.415   3.993  0.00  0.00    +0.024 A 
ENDROOT
BRANCH   1   7
ATOM      7  N   LIG    1       22.271 -21.523   4.949  0.00  0.00    -0.358 N 
ATOM      8  H   LIG    1       21.357 -21.290   4.573  0.00  0.00    +0.142 HD
ATOM      9  H   LIG    1       22.244 -21.672   5.953  0.00  0.00    +0.142 HD
ENDBRANCH   1   7
BRANCH   3  10
ATOM     10  O   LIG    1       26.911 -20.408   4.852  0.00  0.00    -0.506 OA
ATOM     11  H   LIG    1       27.385 -19.649   5.257  0.00  0.00    +0.292 HD
ENDBRANCH   3  10
BRANCH   4  12
ATOM     12  C   LIG    1       26.403 -17.819   3.655  0.00  0.00    +0.348 C 
ATOM     13  O   LIG    1       27.555 -17.999   4.027  0.00  0.00    -0.244 OA
BRANCH  12  14
ATOM     14  O   LIG    1       25.901 -16.755   2.927  0.00  0.00    -0.422 OA
BRANCH  14  15
ATOM     15  C   LIG    1       25.851 -15.458   3.471  0.00  0.00    +0.132 A 
ATOM     16  C   LIG    1       27.080 -14.839   3.701  0.00  0.00    +0.046 A 
ATOM     17  C   LIG    1       27.114 -13.576   4.290  0.00  0.00    +0.004 A 
ATOM     18  C   LIG    1       25.922 -12.944   4.650  0.00  0.00    +0.000 A 
ATOM     19  C   LIG    1       24.699 -13.580   4.434  0.00  0.00    +0.004 A 
ATOM     20  C   LIG    1       24.659 -14.846   3.855  0.00  0.00    +0.046 A 
ENDBRANCH  14  15
ENDBRANCH  12  14
ENDBRANCH   4  12
TORSDOF 5
ENDMDL
MODEL 3
REMARK VINA RESULT:      -5.9      2.869      5.951
REMARK  Name = *****
REMARK                            x       y       z     vdW  Elec       q    Type
REMARK                         _______ _______ _______ _____ _____    ______ ____
ROOT
ATOM      1  C   LIG    1       23.316 -20.731   4.651  0.00  0.00    +0.028 A 
ATOM      2  C   LIG    1       24.639 -20.989   5.015  0.00  0.00    +0.069 A 
ATOM      3  C   LIG    1       25.657 -20.086   4.697  0.00  0.00    +0.133 A 
ATOM      4  C   LIG    1       25.358 -18.877   4.053  0.00  0.00    +0.101 A 
ATOM      5  C   LIG    1       24.022 -18.592   3.738  0.00  0.00    +0.020 A 
ATOM      6  C   LIG    1       23.012 -19.506   4.055  0.00  0.00    +0.024 A 
ENDROOT
BRANCH   1   7
ATOM      7  N   LIG    1       22.284 -21.572   5.083  0.00  0.00    -0.358 N 
ATOM      8  H   LIG    1       21.994 -21.406   6.041  0.00  0.00    +0.142 HD
ATOM      9  H   LIG    1       22.450 -22.556   4.898  0.00  0.00    +0.142 HD
ENDBRANCH   1   7
BRANCH   3  10
ATOM     10  O   LIG    1       26.926 -20.458   5.057  0.00  0.00    -0.506 OA
ATOM     11  H   LIG    1       26.982 -21.439   5.064  0.00  0.00    +0.292 HD
ENDBRANCH   3  10
BRANCH   4  12
ATOM     12  C   LIG    1       26.450 -17.924   3.737  0.00  0.00    +0.348 C 
ATOM     13  O   LIG    1       27.603 -18.112   4.104  0.00  0.00    -0.244 OA
BRANCH  12  14
ATOM     14  O   LIG    1       25.954 -16.860   3.004  0.00  0.00    -0.422 OA
BRANCH  14  15
ATOM     15  C   LIG    1       26.007 -15.545   3.500  0.00  0.00    +0.132 A 
ATOM     16  C   LIG    1       24.780 -14.950   3.797  0.00  0.00    +0.046 A 
ATOM     17  C   LIG    1       24.747 -13.628   4.241  0.00  0.00    +0.004 A 
ATOM     18  C   LIG    1       25.936 -12.910   4.378  0.00  0.00    +0.000 A 
ATOM     19  C   LIG    1       27.156 -13.508   4.059  0.00  0.00    +0.004 A 
ATOM     20  C   LIG    1       27.195 -14.825   3.607  0.00  0.00    +0.046 A 
ENDBRANCH  14  15
ENDBRANCH  12  14
ENDBRANCH   4  12
TORSDOF 5
ENDMDL
MODEL 4
REMARK VINA RESULT:      -5.4      0.862      1.662
REMARK  Name = *****
REMARK                            x       y       z     vdW  Elec       q    Type
REMARK                         _______ _______ _______ _____ _____    ______ ____
ROOT
ATOM      1  C   LIG    1       24.473 -12.713   2.731  0.00  0.00    +0.028 A 
ATOM      2  C   LIG    1       23.853 -13.712   3.485  0.00  0.00    +0.069 A 
ATOM      3  C   LIG    1       24.491 -14.935   3.711  0.00  0.00    +0.133 A 
ATOM      4  C   LIG    1       25.788 -15.159   3.230  0.00  0.00    +0.101 A 
ATOM      5  C   LIG    1       26.432 -14.135   2.521  0.00  0.00    +0.020 A 
ATOM      6  C   LIG    1       25.782 -12.918   2.295  0.00  0.00    +0.024 A 
ENDROOT
BRANCH   1   7
ATOM      7  N   LIG    1       23.889 -11.447   2.615  0.00  0.00    -0.358 N 
ATOM      8  H   LIG    1       23.398 -11.143   3.451  0.00  0.00    +0.142 HD
ATOM      9  H   LIG    1       23.329 -11.326   1.778  0.00  0.00    +0.142 HD
ENDBRANCH   1   7
BRANCH   3  10
ATOM     10  O   LIG    1       23.776 -15.863   4.421  0.00  0.00    -0.506 OA
ATOM     11  H   LIG    1       22.861 -15.531   4.553  0.00  0.00    +0.292 HD
ENDBRANCH   3  10
BRANCH   4  12
ATOM     12  C   LIG    1       26.454 -16.459   3.493  0.00  0.00    +0.348 C 
ATOM     13  O   LIG    1       27.486 -16.539   4.146  0.00  0.00    -0.244 OA
BRANCH  12  14
ATOM     14  O   LIG    1       25.739 -17.486   2.902  0.00  0.00    -0.422 OA
BRANCH  14  15
ATOM     15  C   LIG    1       25.356 -18.624   3.637  0.00  0.00    +0.132 A 
ATOM     16  C   LIG    1       23.992 -18.917   3.650  0.00  0.00    +0.046 A 
ATOM     17  C   LIG    1       23.528 -19.996   4.402  0.00  0.00    +0.004 A 
ATOM     18  C   LIG    1       24.428 -20.769   5.138  0.00  0.00    +0.000 A 
ATOM     19  C   LIG    1       25.787 -20.455   5.134  0.00  0.00    +0.004 A 
ATOM     20  C   LIG    1       26.256 -19.373   4.393  0.00  0.00    +0.046 A 
ENDBRANCH  14  15
ENDBRANCH  12  14
ENDBRANCH   4  12
TORSDOF 5
ENDMDL
MODEL 5
REMARK VINA RESULT:      -5.4      2.359      2.879
REMARK  Name = *****
REMARK                            x       y       z     vdW  Elec       q    Type
REMARK                         _______ _______ _______ _____ _____    ______ ____
ROOT
ATOM      1  C   LIG    1       28.303 -12.716   4.669  0.00  0.00    +0.028 A 
ATOM      2  C   LIG    1       28.051 -13.178   3.375  0.00  0.00    +0.069 A 
ATOM      3  C   LIG    1       26.926 -13.962   3.104  0.00  0.00    +0.133 A 
ATOM      4  C   LIG    1       26.002 -14.254   4.117  0.00  0.00    +0.101 A 
ATOM      5  C   LIG    1       26.226 -13.742   5.403  0.00  0.00    +0.020 A 
ATOM      6  C   LIG    1       27.358 -12.965   5.665  0.00  0.00    +0.024 A 
ENDROOT
BRANCH   1   7
ATOM      7  N   LIG    1       29.355 -11.827   4.912  0.00  0.00    -0.358 N 
ATOM      8  H   LIG    1       29.367 -11.453   5.856  0.00  0.00    +0.142 HD
ATOM      9  H   LIG    1       29.451 -11.099   4.211  0.00  0.00    +0.142 HD
ENDBRANCH   1   7
BRANCH   3  10
ATOM     10  O   LIG    1       26.798 -14.404   1.813  0.00  0.00    -0.506 OA
ATOM     11  H   LIG    1       25.868 -14.678   1.659  0.00  0.00    +0.292 HD
ENDBRANCH   3  10
BRANCH   4  12
ATOM     12  C   LIG    1       24.806 -15.076   3.806  0.00  0.00    +0.348 C 
ATOM     13  O   LIG    1       23.670 -14.679   4.025  0.00  0.00    -0.244 OA
BRANCH  12  14
ATOM     14  O   LIG    1       25.193 -16.288   3.260  0.00  0.00    -0.422 OA
BRANCH  14  15
ATOM     15  C   LIG    1       24.588 -17.494   3.661  0.00  0.00    +0.132 A 
ATOM     16  C   LIG    1       25.379 -18.640   3.565  0.00  0.00    +0.046 A 
ATOM     17  C   LIG    1       24.832 -19.880   3.891  0.00  0.00    +0.004 A 
ATOM     18  C   LIG    1       23.501 -19.968   4.302  0.00  0.00    +0.000 A 
ATOM     19  C   LIG    1       22.713 -18.818   4.375  0.00  0.00    +0.004 A 
ATOM     20  C   LIG    1       23.251 -17.577   4.042  0.00  0.00    +0.046 A 
ENDBRANCH  14  15
ENDBRANCH  12  14
ENDBRANCH   4  12
TORSDOF 5
ENDMDL
MODEL 6
REMARK VINA RESULT:      -5.0      2.708      5.879
REMARK  Name = *****
REMARK                            x       y       z     vdW  Elec       q    Type
REMARK                         _______ _______ _______ _____ _____    ______ ____
ROOT
ATOM      1  C   LIG    1       25.761 -19.826   4.208  0.00  0.00    +0.028 A 
ATOM      2  C   LIG    1       27.033 -19.380   4.577  0.00  0.00    +0.069 A 
ATOM      3  C   LIG    1       27.429 -18.064   4.324  0.00  0.00    +0.133 A 
ATOM      4  C   LIG    1       26.537 -17.153   3.743  0.00  0.00    +0.101 A 
ATOM      5  C   LIG    1       25.242 -17.585   3.424  0.00  0.00    +0.020 A 
ATOM      6  C   LIG    1       24.858 -18.906   3.674  0.00  0.00    +0.024 A 
ENDROOT
BRANCH   1   7
ATOM      7  N   LIG    1       25.322 -21.102   4.577  0.00  0.00    -0.358 N 
ATOM      8  H   LIG    1       25.095 -21.701   3.789  0.00  0.00    +0.142 HD
ATOM      9  H   LIG    1       24.590 -21.098   5.279  0.00  0.00    +0.142 HD
ENDBRANCH   1   7
BRANCH   3  10
ATOM     10  O   LIG    1       28.713 -17.744   4.683  0.00  0.00    -0.506 OA
ATOM     11  H   LIG    1       28.806 -16.766   4.701  0.00  0.00    +0.292 HD
ENDBRANCH   3  10
BRANCH   4  12
ATOM     12  C   LIG    1       26.972 -15.755   3.496  0.00  0.00    +0.348 C 
ATOM     13  O   LIG    1       27.929 -15.261   4.078  0.00  0.00    -0.244 OA
BRANCH  12  14
ATOM     14  O   LIG    1       26.151 -15.162   2.553  0.00  0.00    -0.422 OA
BRANCH  14  15
ATOM     15  C   LIG    1       25.421 -13.997   2.852  0.00  0.00    +0.132 A 
ATOM     16  C   LIG    1       24.869 -13.928   4.132  0.00  0.00    +0.046 A 
ATOM     17  C   LIG    1       24.085 -12.830   4.483  0.00  0.00    +0.004 A 
ATOM     18  C   LIG    1       23.853 -11.815   3.554  0.00  0.00    +0.000 A 
ATOM     19  C   LIG    1       24.392 -11.904   2.270  0.00  0.00    +0.004 A 
ATOM     20  C   LIG    1       25.168 -13.002   1.909  0.00  0.00    +0.046 A 
ENDBRANCH  14  15
ENDBRANCH  12  14
ENDBRANCH   4  12
TORSDOF 5
ENDMDL
MODEL 7
REMARK VINA RESULT:      -5.0      3.414      6.484
REMARK  Name = *****
REMARK                            x       y       z     vdW  Elec       q    Type
REMARK                         _______ _______ _______ _____ _____    ______ ____
ROOT
ATOM      1  C   LIG    1       28.183 -20.427   6.316  0.00  0.00    +0.028 A 
ATOM      2  C   LIG    1       26.869 -20.859   6.121  0.00  0.00    +0.069 A 
ATOM      3  C   LIG    1       26.006 -20.159   5.273  0.00  0.00    +0.133 A 
ATOM      4  C   LIG    1       26.462 -19.041   4.562  0.00  0.00    +0.101 A 
ATOM      5  C   LIG    1       27.796 -18.640   4.715  0.00  0.00    +0.020 A 
ATOM      6  C   LIG    1       28.649 -19.344   5.571  0.00  0.00    +0.024 A 
ENDROOT
BRANCH   1   7
ATOM      7  N   LIG    1       29.080 -21.199   7.062  0.00  0.00    -0.358 N 
ATOM      8  H   LIG    1       30.002 -21.274   6.644  0.00  0.00    +0.142 HD
ATOM      9  H   LIG    1       28.712 -22.103   7.342  0.00  0.00    +0.142 HD
ENDBRANCH   1   7
BRANCH   3  10
ATOM     10  O   LIG    1       24.725 -20.640   5.189  0.00  0.00    -0.506 OA
ATOM     11  H   LIG    1       24.385 -20.488   4.280  0.00  0.00    +0.292 HD
ENDBRANCH   3  10
BRANCH   4  12
ATOM     12  C   LIG    1       25.534 -18.320   3.655  0.00  0.00    +0.348 C 
ATOM     13  O   LIG    1       24.366 -18.660   3.516  0.00  0.00    -0.244 OA
BRANCH  12  14
ATOM     14  O   LIG    1       26.192 -17.268   3.041  0.00  0.00    -0.422 OA
BRANCH  14  15
ATOM     15  C   LIG    1       26.016 -15.943   3.479  0.00  0.00    +0.132 A 
ATOM     16  C   LIG    1       27.181 -15.220   3.737  0.00  0.00    +0.046 A 
ATOM     17  C   LIG    1       27.087 -13.918   4.228  0.00  0.00    +0.004 A 
ATOM     18  C   LIG    1       25.833 -13.351   4.462  0.00  0.00    +0.000 A 
ATOM     19  C   LIG    1       24.674 -14.090   4.219  0.00  0.00    +0.004 A 
ATOM     20  C   LIG    1       24.761 -15.394   3.738  0.00  0.00    +0.046 A 
ENDBRANCH  14  15
ENDBRANCH  12  14
ENDBRANCH   4  12
TORSDOF 5
ENDMDL
MODEL 8
REMARK VINA RESULT:      -5.0      2.245      2.973
REMARK  Name = *****
REMARK                            x       y       z     vdW  Elec       q    Type
REMARK                         _______ _______ _______ _____ _____    ______ ____
ROOT
ATOM      1  C   LIG    1       27.211 -13.705   3.380  0.00  0.00    +0.028 A 
ATOM      2  C   LIG    1       26.081 -13.030   3.848  0.00  0.00    +0.069 A 
ATOM      3  C   LIG    1       24.893 -13.719   4.105  0.00  0.00    +0.133 A 
ATOM      4  C   LIG    1       24.830 -15.110   3.947  0.00  0.00    +0.101 A 
ATOM      5  C   LIG    1       25.980 -15.795   3.531  0.00  0.00    +0.020 A 
ATOM      6  C   LIG    1       27.162 -15.095   3.270  0.00  0.00    +0.024 A 
ENDROOT
BRANCH   1   7
ATOM      7  N   LIG    1       28.432 -13.036   3.248  0.00  0.00    -0.358 N 
ATOM      8  H   LIG    1       28.495 -12.184   3.796  0.00  0.00    +0.142 HD
ATOM      9  H   LIG    1       28.723 -12.895   2.286  0.00  0.00    +0.142 HD
ENDBRANCH   1   7
BRANCH   3  10
ATOM     10  O   LIG    1       23.831 -12.955   4.514  0.00  0.00    -0.506 OA
ATOM     11  H   LIG    1       23.831 -12.111   4.011  0.00  0.00    +0.292 HD
ENDBRANCH   3  10
BRANCH   4  12
ATOM     12  C   LIG    1       23.563 -15.826   4.238  0.00  0.00    +0.348 C 
ATOM     13  O   LIG    1       22.751 -15.404   5.051  0.00  0.00    -0.244 OA
BRANCH  12  14
ATOM     14  O   LIG    1       23.481 -16.977   3.474  0.00  0.00    -0.422 OA
BRANCH  14  15
ATOM     15  C   LIG    1       23.500 -18.251   4.070  0.00  0.00    +0.132 A 
ATOM     16  C   LIG    1       24.619 -19.040   3.802  0.00  0.00    +0.046 A 
ATOM     17  C   LIG    1       24.684 -20.336   4.311  0.00  0.00    +0.004 A 
ATOM     18  C   LIG    1       23.630 -20.836   5.078  0.00  0.00    +0.000 A 
ATOM     19  C   LIG    1       22.506 -20.046   5.323  0.00  0.00    +0.004 A 
ATOM     20  C   LIG    1       22.431 -18.754   4.809  0.00  0.00    +0.046 A 
ENDBRANCH  14  15
ENDBRANCH  12  14
ENDBRANCH   4  12
TORSDOF 5
ENDMDL
MODEL 9
REMARK VINA RESULT:      -4.7      2.872      6.158
REMARK  Name = *****
REMARK                            x       y       z     vdW  Elec       q    Type
REMARK                         _______ _______ _______ _____ _____    ______ ____
ROOT
ATOM      1  C   LIG    1       22.429 -20.520   4.651  0.00  0.00    +0.028 A 
ATOM      2  C   LIG    1       21.983 -19.196   4.656  0.00  0.00    +0.069 A 
ATOM      3  C   LIG    1       22.847 -18.150   4.321  0.00  0.00    +0.133 A 
ATOM      4  C   LIG    1       24.164 -18.416   3.922  0.00  0.00    +0.101 A 
ATOM      5  C   LIG    1       24.595 -19.749   3.863  0.00  0.00    +0.020 A 
ATOM      6  C   LIG    1       23.725 -20.788   4.207  0.00  0.00    +0.024 A 
ENDROOT
BRANCH   1   7
ATOM      7  N   LIG    1       21.532 -21.572   4.860  0.00  0.00    -0.358 N 
ATOM      8  H   LIG    1       20.962 -21.465   5.694  0.00  0.00    +0.142 HD
ATOM      9  H   LIG    1       21.954 -22.492   4.801  0.00  0.00    +0.142 HD
ENDBRANCH   1   7
BRANCH   3  10
ATOM     10  O   LIG    1       22.322 -16.887   4.404  0.00  0.00    -0.506 OA
ATOM     11  H   LIG    1       22.636 -16.358   3.638  0.00  0.00    +0.292 HD
ENDBRANCH   3  10
BRANCH   4  12
ATOM     12  C   LIG    1       25.062 -17.293   3.556  0.00  0.00    +0.348 C 
ATOM     13  O   LIG    1       26.093 -17.466   2.920  0.00  0.00    -0.244 OA
BRANCH  12  14
ATOM     14  O   LIG    1       24.550 -16.101   4.038  0.00  0.00    -0.422 OA
BRANCH  14  15
ATOM     15  C   LIG    1       25.020 -14.861   3.565  0.00  0.00    +0.132 A 
ATOM     16  C   LIG    1       24.066 -13.851   3.433  0.00  0.00    +0.046 A 
ATOM     17  C   LIG    1       24.446 -12.612   2.918  0.00  0.00    +0.004 A 
ATOM     18  C   LIG    1       25.770 -12.393   2.534  0.00  0.00    +0.000 A 
ATOM     19  C   LIG    1       26.711 -13.417   2.651  0.00  0.00    +0.004 A 
ATOM     20  C   LIG    1       26.337 -14.660   3.156  0.00  0.00    +0.046 A 
ENDBRANCH  14  15
ENDBRANCH  12  14
ENDBRANCH   4  12
TORSDOF 5
ENDMDL
