MODEL 1
REMARK VINA RESULT:       5.6      0.000      0.000
REMARK  Name = *****
REMARK                            x       y       z     vdW  Elec       q    Type
REMARK                         _______ _______ _______ _____ _____    ______ ____
ROOT
ATOM      1  C   LIG    1       26.790 -19.888   4.984  0.00  0.00    +0.169 C 
ATOM      2  C   LIG    1       26.757 -19.062   3.653  0.00  0.00    +0.175 C 
ATOM      3  C   LIG    1       27.165 -17.556   3.805  0.00  0.00    +0.169 C 
ATOM      4  C   LIG    1       28.601 -17.550   4.394  0.00  0.00    +0.084 C 
ATOM      5  C   LIG    1       28.579 -18.171   5.792  0.00  0.00    +0.042 C 
ATOM      6  C   LIG    1       28.162 -19.649   5.705  0.00  0.00    +0.084 C 
ENDROOT
BRANCH   4   7
ATOM      7  N   LIG    1       29.328 -16.281   4.410  0.00  0.00    -0.325 NA
ATOM      8  H   LIG    1       30.191 -16.337   4.950  0.00  0.00    +0.118 HD
ATOM      9  H   LIG    1       29.543 -15.920   3.486  0.00  0.00    +0.118 HD
ENDBRANCH   4   7
BRANCH   6  10
ATOM     10  N   LIG    1       28.329 -20.254   7.033  0.00  0.00    -0.325 NA
ATOM     11  H   LIG    1       27.409 -20.454   7.427  0.00  0.00    +0.118 HD
ATOM     12  H   LIG    1       28.757 -21.176   6.933  0.00  0.00    +0.118 HD
ENDBRANCH   6  10
BRANCH   2  13
ATOM     13  O   LIG    1       25.460 -19.157   3.043  0.00  0.00    -0.387 OA
ATOM     14  H   LIG    1       24.974 -18.378   3.380  0.00  0.00    +0.210 HD
ENDBRANCH   2  13
BRANCH   1  15
ATOM     15  O   LIG    1       25.577 -19.561   5.680  0.00  0.00    -0.342 OA
BRANCH  15  18
ATOM     16  C   LIG    1       22.238 -19.113   4.176  0.00  0.00    +0.138 C 
ATOM     17  O   LIG    1       23.357 -18.790   5.042  0.00  0.00    -0.345 OA
ATOM     18  C   LIG    1       24.341 -19.838   5.014  0.00  0.00    +0.268 C 
ATOM     19  C   LIG    1       23.753 -21.128   5.663  0.00  0.00    +0.107 C 
ATOM     20  C   LIG    1       22.571 -21.570   4.809  0.00  0.00    +0.026 C 
ATOM     21  C   LIG    1       21.570 -20.434   4.625  0.00  0.00    +0.035 C 
BRANCH  19  22
ATOM     22  N   LIG    1       23.302 -20.944   7.059  0.00  0.00    -0.323 NA
ATOM     23  H   LIG    1       23.194 -19.952   7.254  0.00  0.00    +0.119 HD
ATOM     24  H   LIG    1       22.382 -21.373   7.154  0.00  0.00    +0.119 HD
ENDBRANCH  19  22
BRANCH  16  25
ATOM     25  C   LIG    1       21.180 -17.947   4.124  0.00  0.00    +0.079 C 
ATOM     26  C   LIG    1       21.768 -16.655   4.706  0.00  0.00    +0.026 C 
BRANCH  25  28
ATOM     27  C   LIG    1       19.351 -18.236   2.475  0.00  0.00    +0.101 C 
ATOM     28  N   LIG    1       20.700 -17.749   2.730  0.00  0.00    -0.314 NA
ATOM     29  H   LIG    1       21.323 -18.255   2.101  0.00  0.00    +0.122 HD
ENDBRANCH  25  28
ENDBRANCH  16  25
ENDBRANCH  15  18
ENDBRANCH   1  15
BRANCH   3  30
ATOM     30  O   LIG    1       26.160 -16.872   4.584  0.00  0.00    -0.341 OA
BRANCH  30  31
ATOM     31  C   LIG    1       25.199 -16.073   3.894  0.00  0.00    +0.281 C 
ATOM     32  C   LIG    1       24.812 -14.709   4.536  0.00  0.00    +0.190 C 
ATOM     33  C   LIG    1       25.970 -13.675   4.435  0.00  0.00    +0.121 C 
ATOM     34  C   LIG    1       26.486 -13.584   2.958  0.00  0.00    +0.104 C 
ATOM     35  C   LIG    1       25.484 -12.863   2.037  0.00  0.00    +0.045 C 
ATOM     36  C   LIG    1       26.771 -15.005   2.441  0.00  0.00    +0.199 C 
ATOM     37  O   LIG    1       25.624 -15.851   2.533  0.00  0.00    -0.346 OA
BRANCH  33  38
ATOM     38  N   LIG    1       26.962 -14.062   5.473  0.00  0.00    -0.311 NA
ATOM     39  H   LIG    1       27.632 -14.740   5.101  0.00  0.00    +0.122 HD
ATOM     40  C   LIG    1       27.705 -12.962   6.061  0.00  0.00    +0.101 C 
ENDBRANCH  33  38
BRANCH  32  41
ATOM     41  O   LIG    1       23.601 -14.194   3.949  0.00  0.00    -0.385 OA
ATOM     42  H   LIG    1       22.845 -14.586   4.423  0.00  0.00    +0.210 HD
ENDBRANCH  32  41
BRANCH  34  43
ATOM     43  O   LIG    1       27.688 -12.792   2.882  0.00  0.00    -0.385 OA
ATOM     44  H   LIG    1       27.443 -11.866   2.810  0.00  0.00    +0.210 HD
ENDBRANCH  34  43
ENDBRANCH  30  31
ENDBRANCH   3  30
TORSDOF 13
ENDMDL
