MODEL 1
REMARK VINA RESULT:      -7.3      0.000      0.000
REMARK  Name = *****
REMARK                            x       y       z     vdW  Elec       q    Type
REMARK                         _______ _______ _______ _____ _____    ______ ____
ROOT
ATOM      1  C   LIG    1       24.551 -22.168   5.505  0.00  0.00    +0.060 A 
ATOM      2  C   LIG    1       24.799 -23.695   5.717  0.00  0.00    +0.026 A 
ATOM      3  C   LIG    1       23.704 -24.373   6.259  0.00  0.00    +0.076 A 
ATOM      4  C   LIG    1       23.741 -25.738   6.568  0.00  0.00    +0.077 A 
ATOM      5  C   LIG    1       24.834 -26.593   6.419  0.00  0.00    +0.164 A 
ATOM      6  C   LIG    1       25.986 -26.044   5.942  0.00  0.00    +0.162 A 
ATOM      7  N   LIG    1       22.569 -23.793   6.642  0.00  0.00    -0.254 NA
ATOM      8  C   LIG    1       22.439 -22.458   6.584  0.00  0.00    +0.132 A 
ATOM      9  C   LIG    1       25.919 -24.682   5.585  0.00  0.00    +0.061 A 
ATOM     10  C   LIG    1       23.330 -21.605   5.974  0.00  0.00    +0.091 A 
ENDROOT
BRANCH   1  11
ATOM     11  N   LIG    1       25.438 -21.284   4.733  0.00  0.00    -0.312 N 
ATOM     12  H   LIG    1       24.991 -20.874   3.908  0.00  0.00    +0.152 HD
BRANCH  11  19
ATOM     13  C   LIG    1       28.103 -20.108   6.991  0.00  0.00    +0.140 A 
ATOM     14  C   LIG    1       28.867 -19.308   6.162  0.00  0.00    +0.084 A 
ATOM     15 CL   LIG    1       30.423 -18.737   6.627  0.00  0.00    -0.080 Cl
ATOM     16  C   LIG    1       28.261 -18.820   5.002  0.00  0.00    +0.045 A 
ATOM     17  C   LIG    1       27.005 -19.320   4.593  0.00  0.00    +0.064 A 
ATOM     18 CL   LIG    1       25.953 -18.272   3.711  0.00  0.00    -0.082 Cl
ATOM     19  C   LIG    1       26.468 -20.444   5.194  0.00  0.00    +0.053 A 
ATOM     20  C   LIG    1       26.905 -20.605   6.475  0.00  0.00    +0.072 A 
BRANCH  13  22
ATOM     21  C   LIG    1       29.511 -21.457   8.359  0.00  0.00    +0.277 C 
ATOM     22  O   LIG    1       28.518 -20.426   8.257  0.00  0.00    -0.494 OA
ENDBRANCH  13  22
ENDBRANCH  11  19
ENDBRANCH   1  11
BRANCH   6  23
ATOM     23  O   LIG    1       27.226 -26.641   5.857  0.00  0.00    -0.491 OA
ATOM     24  C   LIG    1       27.471 -27.363   4.650  0.00  0.00    +0.277 C 
ENDBRANCH   6  23
BRANCH  10  25
ATOM     25  C   LIG    1       22.816 -20.250   5.862  0.00  0.00    +0.103 C 
ATOM     26  N   LIG    1       22.416 -19.227   5.564  0.00  0.00    -0.191 NA
ENDBRANCH  10  25
BRANCH   5  27
ATOM     27  O   LIG    1       24.850 -27.871   6.883  0.00  0.00    -0.488 OA
BRANCH  27  28
ATOM     28  C   LIG    1       24.273 -28.913   6.074  0.00  0.00    +0.230 C 
BRANCH  28  29
ATOM     29  C   LIG    1       24.345 -30.222   6.885  0.00  0.00    +0.056 C 
BRANCH  29  30
ATOM     30  C   LIG    1       24.180 -30.221   8.430  0.00  0.00    +0.088 C 
BRANCH  30  31
ATOM     31  N   LIG    1       24.766 -31.437   9.062  0.00  0.00    -0.300 NA
ATOM     32  C   LIG    1       26.204 -31.666   8.829  0.00  0.00    +0.100 C 
ATOM     33  C   LIG    1       27.126 -30.669   9.529  0.00  0.00    +0.099 C 
ATOM     34  N   LIG    1       26.961 -30.585  10.991  0.00  0.00    -0.303 NA
ATOM     35  C   LIG    1       27.611 -29.324  11.382  0.00  0.00    +0.105 C 
ATOM     36  C   LIG    1       25.538 -30.654  11.413  0.00  0.00    +0.099 C 
ATOM     37  C   LIG    1       24.570 -31.514  10.530  0.00  0.00    +0.100 C 
ENDBRANCH  30  31
ENDBRANCH  29  30
ENDBRANCH  28  29
ENDBRANCH  27  28
ENDBRANCH   5  27
TORSDOF 10
ENDMDL
MODEL 2
REMARK VINA RESULT:      -7.2      2.109      3.085
REMARK  Name = *****
REMARK                            x       y       z     vdW  Elec       q    Type
REMARK                         _______ _______ _______ _____ _____    ______ ____
ROOT
ATOM      1  C   LIG    1       24.603 -22.247   5.533  0.00  0.00    +0.060 A 
ATOM      2  C   LIG    1       24.806 -23.785   5.716  0.00  0.00    +0.026 A 
ATOM      3  C   LIG    1       23.696 -24.439   6.258  0.00  0.00    +0.076 A 
ATOM      4  C   LIG    1       23.694 -25.809   6.543  0.00  0.00    +0.077 A 
ATOM      5  C   LIG    1       24.758 -26.694   6.366  0.00  0.00    +0.164 A 
ATOM      6  C   LIG    1       25.922 -26.173   5.887  0.00  0.00    +0.162 A 
ATOM      7  N   LIG    1       22.584 -23.830   6.663  0.00  0.00    -0.254 NA
ATOM      8  C   LIG    1       22.495 -22.492   6.630  0.00  0.00    +0.132 A 
ATOM      9  C   LIG    1       25.893 -24.804   5.554  0.00  0.00    +0.061 A 
ATOM     10  C   LIG    1       23.405 -21.656   6.025  0.00  0.00    +0.091 A 
ENDROOT
BRANCH   1  11
ATOM     11  N   LIG    1       25.509 -21.378   4.768  0.00  0.00    -0.312 N 
ATOM     12  H   LIG    1       25.090 -20.999   3.914  0.00  0.00    +0.152 HD
BRANCH  11  19
ATOM     13  C   LIG    1       28.143 -20.153   7.036  0.00  0.00    +0.140 A 
ATOM     14  C   LIG    1       28.876 -19.312   6.219  0.00  0.00    +0.084 A 
ATOM     15 CL   LIG    1       30.414 -18.697   6.688  0.00  0.00    -0.080 Cl
ATOM     16  C   LIG    1       28.248 -18.825   5.070  0.00  0.00    +0.045 A 
ATOM     17  C   LIG    1       27.009 -19.360   4.657  0.00  0.00    +0.064 A 
ATOM     18 CL   LIG    1       25.918 -18.332   3.798  0.00  0.00    -0.082 Cl
ATOM     19  C   LIG    1       26.513 -20.512   5.239  0.00  0.00    +0.053 A 
ATOM     20  C   LIG    1       26.961 -20.681   6.515  0.00  0.00    +0.072 A 
BRANCH  13  22
ATOM     21  C   LIG    1       29.601 -21.480   8.373  0.00  0.00    +0.277 C 
ATOM     22  O   LIG    1       28.575 -20.479   8.294  0.00  0.00    -0.494 OA
ENDBRANCH  13  22
ENDBRANCH  11  19
ENDBRANCH   1  11
BRANCH   6  23
ATOM     23  O   LIG    1       27.141 -26.807   5.778  0.00  0.00    -0.491 OA
ATOM     24  C   LIG    1       27.384 -27.445   4.525  0.00  0.00    +0.277 C 
ENDBRANCH   6  23
BRANCH  10  25
ATOM     25  C   LIG    1       22.933 -20.283   5.943  0.00  0.00    +0.103 C 
ATOM     26  N   LIG    1       22.475 -19.272   5.694  0.00  0.00    -0.191 NA
ENDBRANCH  10  25
BRANCH   5  27
ATOM     27  O   LIG    1       24.739 -27.981   6.808  0.00  0.00    -0.488 OA
BRANCH  27  28
ATOM     28  C   LIG    1       24.362 -29.026   5.893  0.00  0.00    +0.230 C 
BRANCH  28  29
ATOM     29  C   LIG    1       24.656 -30.373   6.582  0.00  0.00    +0.056 C 
BRANCH  29  30
ATOM     30  C   LIG    1       25.897 -31.222   6.191  0.00  0.00    +0.088 C 
BRANCH  30  31
ATOM     31  N   LIG    1       25.583 -32.678   6.110  0.00  0.00    -0.300 NA
ATOM     32  C   LIG    1       24.619 -33.081   5.070  0.00  0.00    +0.100 C 
ATOM     33  C   LIG    1       25.142 -32.957   3.640  0.00  0.00    +0.099 C 
ATOM     34  N   LIG    1       26.379 -33.706   3.358  0.00  0.00    -0.303 NA
ATOM     35  C   LIG    1       26.908 -33.129   2.112  0.00  0.00    +0.105 C 
ATOM     36  C   LIG    1       27.354 -33.646   4.479  0.00  0.00    +0.099 C 
ATOM     37  C   LIG    1       26.771 -33.547   5.931  0.00  0.00    +0.100 C 
ENDBRANCH  30  31
ENDBRANCH  29  30
ENDBRANCH  28  29
ENDBRANCH  27  28
ENDBRANCH   5  27
TORSDOF 10
ENDMDL
MODEL 3
REMARK VINA RESULT:      -7.1      4.880      9.725
REMARK  Name = *****
REMARK                            x       y       z     vdW  Elec       q    Type
REMARK                         _______ _______ _______ _____ _____    ______ ____
ROOT
ATOM      1  C   LIG    1       25.007 -28.841  12.089  0.00  0.00    +0.060 A 
ATOM      2  C   LIG    1       24.933 -29.670  10.767  0.00  0.00    +0.026 A 
ATOM      3  C   LIG    1       26.041 -29.500   9.934  0.00  0.00    +0.076 A 
ATOM      4  C   LIG    1       26.144 -30.119   8.683  0.00  0.00    +0.077 A 
ATOM      5  C   LIG    1       25.190 -30.942   8.083  0.00  0.00    +0.164 A 
ATOM      6  C   LIG    1       24.034 -31.151   8.774  0.00  0.00    +0.162 A 
ATOM      7  N   LIG    1       27.047 -28.662  10.174  0.00  0.00    -0.254 NA
ATOM      8  C   LIG    1       27.013 -27.854  11.245  0.00  0.00    +0.132 A 
ATOM      9  C   LIG    1       23.966 -30.566  10.054  0.00  0.00    +0.061 A 
ATOM     10  C   LIG    1       26.091 -27.935  12.264  0.00  0.00    +0.091 A 
ENDROOT
BRANCH   1  11
ATOM     11  N   LIG    1       24.102 -29.025  13.233  0.00  0.00    -0.312 N 
ATOM     12  H   LIG    1       24.570 -28.958  14.141  0.00  0.00    +0.152 HD
BRANCH  11  19
ATOM     13  C   LIG    1       20.445 -29.472  13.136  0.00  0.00    +0.140 A 
ATOM     14  C   LIG    1       19.997 -28.463  13.968  0.00  0.00    +0.084 A 
ATOM     15 CL   LIG    1       18.369 -28.395  14.525  0.00  0.00    -0.080 Cl
ATOM     16  C   LIG    1       20.861 -27.390  14.200  0.00  0.00    +0.045 A 
ATOM     17  C   LIG    1       22.209 -27.462  13.786  0.00  0.00    +0.064 A 
ATOM     18 CL   LIG    1       23.015 -25.994  13.360  0.00  0.00    -0.082 Cl
ATOM     19  C   LIG    1       22.749 -28.661  13.359  0.00  0.00    +0.053 A 
ATOM     20  C   LIG    1       21.807 -29.495  12.833  0.00  0.00    +0.072 A 
BRANCH  13  22
ATOM     21  C   LIG    1       20.156 -31.373  11.729  0.00  0.00    +0.277 C 
ATOM     22  O   LIG    1       19.593 -30.430  12.654  0.00  0.00    -0.494 OA
ENDBRANCH  13  22
ENDBRANCH  11  19
ENDBRANCH   1  11
BRANCH   6  23
ATOM     23  O   LIG    1       22.896 -31.789   8.328  0.00  0.00    -0.491 OA
ATOM     24  C   LIG    1       22.901 -33.209   8.468  0.00  0.00    +0.277 C 
ENDBRANCH   6  23
BRANCH  10  25
ATOM     25  C   LIG    1       26.438 -27.093  13.398  0.00  0.00    +0.103 C 
ATOM     26  N   LIG    1       26.541 -26.526  14.379  0.00  0.00    -0.191 NA
ENDBRANCH  10  25
BRANCH   5  27
ATOM     27  O   LIG    1       25.287 -31.385   6.801  0.00  0.00    -0.488 OA
BRANCH  27  28
ATOM     28  C   LIG    1       25.388 -30.421   5.737  0.00  0.00    +0.230 C 
BRANCH  28  29
ATOM     29  C   LIG    1       24.133 -29.528   5.801  0.00  0.00    +0.056 C 
BRANCH  29  30
ATOM     30  C   LIG    1       24.244 -28.004   6.082  0.00  0.00    +0.088 C 
BRANCH  30  31
ATOM     31  N   LIG    1       25.620 -27.484   5.841  0.00  0.00    -0.300 NA
ATOM     32  C   LIG    1       25.803 -26.653   4.637  0.00  0.00    +0.100 C 
ATOM     33  C   LIG    1       25.131 -25.282   4.705  0.00  0.00    +0.099 C 
ATOM     34  N   LIG    1       25.539 -24.441   5.844  0.00  0.00    -0.303 NA
ATOM     35  C   LIG    1       24.505 -23.399   5.946  0.00  0.00    +0.105 C 
ATOM     36  C   LIG    1       25.700 -25.217   7.102  0.00  0.00    +0.099 C 
ATOM     37  C   LIG    1       26.181 -26.703   6.970  0.00  0.00    +0.100 C 
ENDBRANCH  30  31
ENDBRANCH  29  30
ENDBRANCH  28  29
ENDBRANCH  27  28
ENDBRANCH   5  27
TORSDOF 10
ENDMDL
MODEL 4
REMARK VINA RESULT:      -6.6      4.112      9.298
REMARK  Name = *****
REMARK                            x       y       z     vdW  Elec       q    Type
REMARK                         _______ _______ _______ _____ _____    ______ ____
ROOT
ATOM      1  C   LIG    1       25.771 -27.873   6.997  0.00  0.00    +0.060 A 
ATOM      2  C   LIG    1       25.481 -26.339   6.926  0.00  0.00    +0.026 A 
ATOM      3  C   LIG    1       24.546 -25.988   5.948  0.00  0.00    +0.076 A 
ATOM      4  C   LIG    1       24.186 -24.660   5.694  0.00  0.00    +0.077 A 
ATOM      5  C   LIG    1       24.698 -23.526   6.326  0.00  0.00    +0.164 A 
ATOM      6  C   LIG    1       25.658 -23.727   7.271  0.00  0.00    +0.162 A 
ATOM      7  N   LIG    1       23.992 -26.842   5.091  0.00  0.00    -0.254 NA
ATOM      8  C   LIG    1       24.370 -28.129   5.078  0.00  0.00    +0.132 A 
ATOM      9  C   LIG    1       25.973 -25.071   7.554  0.00  0.00    +0.061 A 
ATOM     10  C   LIG    1       25.175 -28.723   6.024  0.00  0.00    +0.091 A 
ENDROOT
BRANCH   1  11
ATOM     11  N   LIG    1       26.517 -28.524   8.084  0.00  0.00    -0.312 N 
ATOM     12  H   LIG    1       27.523 -28.335   8.061  0.00  0.00    +0.152 HD
BRANCH  11  19
ATOM     13  C   LIG    1       26.322 -28.075  11.737  0.00  0.00    +0.140 A 
ATOM     14  C   LIG    1       25.135 -28.708  12.054  0.00  0.00    +0.084 A 
ATOM     15 CL   LIG    1       24.397 -28.541  13.601  0.00  0.00    -0.080 Cl
ATOM     16  C   LIG    1       24.639 -29.641  11.140  0.00  0.00    +0.045 A 
ATOM     17  C   LIG    1       25.212 -29.748   9.854  0.00  0.00    +0.064 A 
ATOM     18 CL   LIG    1       25.175 -31.285   9.065  0.00  0.00    -0.082 Cl
ATOM     19  C   LIG    1       26.105 -28.794   9.402  0.00  0.00    +0.053 A 
ATOM     20  C   LIG    1       26.776 -28.189  10.422  0.00  0.00    +0.072 A 
BRANCH  13  22
ATOM     21  C   LIG    1       26.650 -25.955  12.772  0.00  0.00    +0.277 C 
ATOM     22  O   LIG    1       27.009 -27.341  12.666  0.00  0.00    -0.494 OA
ENDBRANCH  13  22
ENDBRANCH  11  19
ENDBRANCH   1  11
BRANCH   6  23
ATOM     23  O   LIG    1       26.416 -22.770   7.911  0.00  0.00    -0.491 OA
ATOM     24  C   LIG    1       25.724 -22.004   8.896  0.00  0.00    +0.277 C 
ENDBRANCH   6  23
BRANCH  10  25
ATOM     25  C   LIG    1       25.222 -30.170   5.886  0.00  0.00    +0.103 C 
ATOM     26  N   LIG    1       25.358 -31.261   5.592  0.00  0.00    -0.191 NA
ENDBRANCH  10  25
BRANCH   5  27
ATOM     27  O   LIG    1       24.417 -22.257   5.923  0.00  0.00    -0.488 OA
BRANCH  27  28
ATOM     28  C   LIG    1       25.245 -21.646   4.916  0.00  0.00    +0.230 C 
BRANCH  28  29
ATOM     29  C   LIG    1       25.655 -20.254   5.437  0.00  0.00    +0.056 C 
BRANCH  29  30
ATOM     30  C   LIG    1       26.809 -20.087   6.463  0.00  0.00    +0.088 C 
BRANCH  30  31
ATOM     31  N   LIG    1       28.144 -20.367   5.863  0.00  0.00    -0.300 NA
ATOM     32  C   LIG    1       28.949 -19.192   5.481  0.00  0.00    +0.100 C 
ATOM     33  C   LIG    1       29.478 -18.377   6.660  0.00  0.00    +0.099 C 
ATOM     34  N   LIG    1       30.296 -19.132   7.625  0.00  0.00    -0.303 NA
ATOM     35  C   LIG    1       30.338 -18.296   8.836  0.00  0.00    +0.105 C 
ATOM     36  C   LIG    1       29.765 -20.495   7.886  0.00  0.00    +0.099 C 
ATOM     37  C   LIG    1       29.024 -21.213   6.705  0.00  0.00    +0.100 C 
ENDBRANCH  30  31
ENDBRANCH  29  30
ENDBRANCH  28  29
ENDBRANCH  27  28
ENDBRANCH   5  27
TORSDOF 10
ENDMDL
MODEL 5
REMARK VINA RESULT:      -6.5      3.935      9.698
REMARK  Name = *****
REMARK                            x       y       z     vdW  Elec       q    Type
REMARK                         _______ _______ _______ _____ _____    ______ ____
ROOT
ATOM      1  C   LIG    1       25.837 -27.386   6.829  0.00  0.00    +0.060 A 
ATOM      2  C   LIG    1       25.574 -25.846   6.842  0.00  0.00    +0.026 A 
ATOM      3  C   LIG    1       24.738 -25.409   5.812  0.00  0.00    +0.076 A 
ATOM      4  C   LIG    1       24.418 -24.060   5.622  0.00  0.00    +0.077 A 
ATOM      5  C   LIG    1       24.884 -22.983   6.378  0.00  0.00    +0.164 A 
ATOM      6  C   LIG    1       25.750 -23.269   7.389  0.00  0.00    +0.162 A 
ATOM      7  N   LIG    1       24.254 -26.190   4.848  0.00  0.00    -0.254 NA
ATOM      8  C   LIG    1       24.616 -27.480   4.777  0.00  0.00    +0.132 A 
ATOM      9  C   LIG    1       26.021 -24.635   7.603  0.00  0.00    +0.061 A 
ATOM     10  C   LIG    1       25.323 -28.155   5.747  0.00  0.00    +0.091 A 
ENDROOT
BRANCH   1  11
ATOM     11  N   LIG    1       26.471 -28.127   7.930  0.00  0.00    -0.312 N 
ATOM     12  H   LIG    1       27.328 -27.688   8.278  0.00  0.00    +0.152 HD
BRANCH  11  19
ATOM     13  C   LIG    1       24.120 -30.541   9.421  0.00  0.00    +0.140 A 
ATOM     14  C   LIG    1       24.763 -30.904  10.590  0.00  0.00    +0.084 A 
ATOM     15 CL   LIG    1       24.245 -32.245  11.538  0.00  0.00    -0.080 Cl
ATOM     16  C   LIG    1       25.740 -30.035  11.082  0.00  0.00    +0.045 A 
ATOM     17  C   LIG    1       26.201 -28.962  10.288  0.00  0.00    +0.064 A 
ATOM     18 CL   LIG    1       26.751 -27.531  11.085  0.00  0.00    -0.082 Cl
ATOM     19  C   LIG    1       25.868 -28.887   8.948  0.00  0.00    +0.053 A 
ATOM     20  C   LIG    1       24.686 -29.508   8.673  0.00  0.00    +0.072 A 
BRANCH  13  22
ATOM     21  C   LIG    1       23.194 -32.354   8.183  0.00  0.00    +0.277 C 
ATOM     22  O   LIG    1       22.990 -31.190   8.998  0.00  0.00    -0.494 OA
ENDBRANCH  13  22
ENDBRANCH  11  19
ENDBRANCH   1  11
BRANCH   6  23
ATOM     23  O   LIG    1       26.458 -22.374   8.163  0.00  0.00    -0.491 OA
ATOM     24  C   LIG    1       25.663 -21.452   8.907  0.00  0.00    +0.277 C 
ENDBRANCH   6  23
BRANCH  10  25
ATOM     25  C   LIG    1       25.364 -29.589   5.510  0.00  0.00    +0.103 C 
ATOM     26  N   LIG    1       25.498 -30.719   5.513  0.00  0.00    -0.191 NA
ENDBRANCH  10  25
BRANCH   5  27
ATOM     27  O   LIG    1       24.657 -21.684   6.043  0.00  0.00    -0.488 OA
BRANCH  27  28
ATOM     28  C   LIG    1       25.014 -21.232   4.724  0.00  0.00    +0.230 C 
BRANCH  28  29
ATOM     29  C   LIG    1       25.985 -20.046   4.888  0.00  0.00    +0.056 C 
BRANCH  29  30
ATOM     30  C   LIG    1       26.962 -19.968   6.094  0.00  0.00    +0.088 C 
BRANCH  30  31
ATOM     31  N   LIG    1       28.374 -20.237   5.696  0.00  0.00    -0.300 NA
ATOM     32  C   LIG    1       29.232 -19.055   5.495  0.00  0.00    +0.100 C 
ATOM     33  C   LIG    1       29.576 -18.298   6.776  0.00  0.00    +0.099 C 
ATOM     34  N   LIG    1       30.232 -19.102   7.822  0.00  0.00    -0.303 NA
ATOM     35  C   LIG    1       30.089 -18.319   9.060  0.00  0.00    +0.105 C 
ATOM     36  C   LIG    1       29.660 -20.469   7.938  0.00  0.00    +0.099 C 
ATOM     37  C   LIG    1       29.108 -21.127   6.626  0.00  0.00    +0.100 C 
ENDBRANCH  30  31
ENDBRANCH  29  30
ENDBRANCH  28  29
ENDBRANCH  27  28
ENDBRANCH   5  27
TORSDOF 10
ENDMDL
MODEL 6
REMARK VINA RESULT:      -6.4      5.010     10.862
REMARK  Name = *****
REMARK                            x       y       z     vdW  Elec       q    Type
REMARK                         _______ _______ _______ _____ _____    ______ ____
ROOT
ATOM      1  C   LIG    1       25.221 -29.999  11.652  0.00  0.00    +0.060 A 
ATOM      2  C   LIG    1       25.207 -29.696  10.120  0.00  0.00    +0.026 A 
ATOM      3  C   LIG    1       26.095 -28.686   9.738  0.00  0.00    +0.076 A 
ATOM      4  C   LIG    1       26.198 -28.235   8.418  0.00  0.00    +0.077 A 
ATOM      5  C   LIG    1       25.449 -28.679   7.328  0.00  0.00    +0.164 A 
ATOM      6  C   LIG    1       24.509 -29.634   7.574  0.00  0.00    +0.162 A 
ATOM      7  N   LIG    1       26.840 -27.976  10.582  0.00  0.00    -0.254 NA
ATOM      8  C   LIG    1       26.722 -28.158  11.906  0.00  0.00    +0.132 A 
ATOM      9  C   LIG    1       24.451 -30.117   8.896  0.00  0.00    +0.061 A 
ATOM     10  C   LIG    1       26.011 -29.174  12.502  0.00  0.00    +0.091 A 
ENDROOT
BRANCH   1  11
ATOM     11  N   LIG    1       24.573 -31.165  12.271  0.00  0.00    -0.312 N 
ATOM     12  H   LIG    1       25.159 -31.639  12.964  0.00  0.00    +0.152 HD
BRANCH  11  19
ATOM     13  C   LIG    1       21.054 -30.240  12.859  0.00  0.00    +0.140 A 
ATOM     14  C   LIG    1       20.388 -31.429  12.624  0.00  0.00    +0.084 A 
ATOM     15 CL   LIG    1       18.675 -31.500  12.464  0.00  0.00    -0.080 Cl
ATOM     16  C   LIG    1       21.132 -32.609  12.704  0.00  0.00    +0.045 A 
ATOM     17  C   LIG    1       22.540 -32.556  12.788  0.00  0.00    +0.064 A 
ATOM     18 CL   LIG    1       23.360 -33.825  13.627  0.00  0.00    -0.082 Cl
ATOM     19  C   LIG    1       23.212 -31.368  12.566  0.00  0.00    +0.053 A 
ATOM     20  C   LIG    1       22.449 -30.278  12.862  0.00  0.00    +0.072 A 
BRANCH  13  22
ATOM     21  C   LIG    1       21.129 -27.860  12.870  0.00  0.00    +0.277 C 
ATOM     22  O   LIG    1       20.373 -29.067  13.048  0.00  0.00    -0.494 OA
ENDBRANCH  13  22
ENDBRANCH  11  19
ENDBRANCH   1  11
BRANCH   6  23
ATOM     23  O   LIG    1       23.552 -30.111   6.703  0.00  0.00    -0.491 OA
ATOM     24  C   LIG    1       23.809 -31.410   6.171  0.00  0.00    +0.277 C 
ENDBRANCH   6  23
BRANCH  10  25
ATOM     25  C   LIG    1       26.254 -29.260  13.933  0.00  0.00    +0.103 C 
ATOM     26  N   LIG    1       26.649 -29.296  14.999  0.00  0.00    -0.191 NA
ENDBRANCH  10  25
BRANCH   5  27
ATOM     27  O   LIG    1       25.492 -28.089   6.103  0.00  0.00    -0.488 OA
BRANCH  27  28
ATOM     28  C   LIG    1       24.672 -26.933   5.857  0.00  0.00    +0.230 C 
BRANCH  28  29
ATOM     29  C   LIG    1       25.588 -25.695   5.915  0.00  0.00    +0.056 C 
BRANCH  29  30
ATOM     30  C   LIG    1       25.059 -24.283   5.536  0.00  0.00    +0.088 C 
BRANCH  30  31
ATOM     31  N   LIG    1       24.866 -23.413   6.732  0.00  0.00    -0.300 NA
ATOM     32  C   LIG    1       25.723 -22.216   6.814  0.00  0.00    +0.100 C 
ATOM     33  C   LIG    1       25.401 -21.135   5.783  0.00  0.00    +0.099 C 
ATOM     34  N   LIG    1       24.013 -20.642   5.806  0.00  0.00    -0.303 NA
ATOM     35  C   LIG    1       23.824 -19.955   4.519  0.00  0.00    +0.105 C 
ATOM     36  C   LIG    1       23.022 -21.727   6.030  0.00  0.00    +0.099 C 
ATOM     37  C   LIG    1       23.474 -22.937   6.918  0.00  0.00    +0.100 C 
ENDBRANCH  30  31
ENDBRANCH  29  30
ENDBRANCH  28  29
ENDBRANCH  27  28
ENDBRANCH   5  27
TORSDOF 10
ENDMDL
MODEL 7
REMARK VINA RESULT:      -6.3      4.595      9.118
REMARK  Name = *****
REMARK                            x       y       z     vdW  Elec       q    Type
REMARK                         _______ _______ _______ _____ _____    ______ ____
ROOT
ATOM      1  C   LIG    1       22.507 -30.191  12.354  0.00  0.00    +0.060 A 
ATOM      2  C   LIG    1       23.460 -30.053  11.124  0.00  0.00    +0.026 A 
ATOM      3  C   LIG    1       22.931 -30.572   9.940  0.00  0.00    +0.076 A 
ATOM      4  C   LIG    1       23.647 -30.587   8.738  0.00  0.00    +0.077 A 
ATOM      5  C   LIG    1       24.953 -30.134   8.545  0.00  0.00    +0.164 A 
ATOM      6  C   LIG    1       25.604 -29.644   9.636  0.00  0.00    +0.162 A 
ATOM      7  N   LIG    1       21.761 -31.200   9.847  0.00  0.00    -0.254 NA
ATOM      8  C   LIG    1       21.029 -31.435  10.947  0.00  0.00    +0.132 A 
ATOM      9  C   LIG    1       24.853 -29.586  10.828  0.00  0.00    +0.061 A 
ATOM     10  C   LIG    1       21.289 -30.910  12.192  0.00  0.00    +0.091 A 
ENDROOT
BRANCH   1  11
ATOM     11  N   LIG    1       22.716 -29.516  13.643  0.00  0.00    -0.312 N 
ATOM     12  H   LIG    1       22.855 -30.162  14.425  0.00  0.00    +0.152 HD
BRANCH  11  19
ATOM     13  C   LIG    1       25.405 -27.268  14.783  0.00  0.00    +0.140 A 
ATOM     14  C   LIG    1       25.122 -26.096  14.107  0.00  0.00    +0.084 A 
ATOM     15 CL   LIG    1       26.242 -24.790  14.038  0.00  0.00    -0.080 Cl
ATOM     16  C   LIG    1       23.819 -25.925  13.633  0.00  0.00    +0.045 A 
ATOM     17  C   LIG    1       22.912 -27.007  13.645  0.00  0.00    +0.064 A 
ATOM     18 CL   LIG    1       21.227 -26.663  13.815  0.00  0.00    -0.082 Cl
ATOM     19  C   LIG    1       23.355 -28.291  13.907  0.00  0.00    +0.053 A 
ATOM     20  C   LIG    1       24.474 -28.304  14.684  0.00  0.00    +0.072 A 
BRANCH  13  22
ATOM     21  C   LIG    1       27.628 -28.122  14.831  0.00  0.00    +0.277 C 
ATOM     22  O   LIG    1       26.566 -27.420  15.494  0.00  0.00    -0.494 OA
ENDBRANCH  13  22
ENDBRANCH  11  19
ENDBRANCH   1  11
BRANCH   6  23
ATOM     23  O   LIG    1       26.933 -29.288   9.729  0.00  0.00    -0.491 OA
ATOM     24  C   LIG    1       27.328 -28.738  10.985  0.00  0.00    +0.277 C 
ENDBRANCH   6  23
BRANCH  10  25
ATOM     25  C   LIG    1       20.203 -31.143  13.132  0.00  0.00    +0.103 C 
ATOM     26  N   LIG    1       19.289 -31.130  13.808  0.00  0.00    -0.191 NA
ENDBRANCH  10  25
BRANCH   5  27
ATOM     27  O   LIG    1       25.643 -30.319   7.387  0.00  0.00    -0.488 OA
BRANCH  27  28
ATOM     28  C   LIG    1       24.945 -30.822   6.233  0.00  0.00    +0.230 C 
BRANCH  28  29
ATOM     29  C   LIG    1       24.798 -29.656   5.236  0.00  0.00    +0.056 C 
BRANCH  29  30
ATOM     30  C   LIG    1       24.675 -28.187   5.729  0.00  0.00    +0.088 C 
BRANCH  30  31
ATOM     31  N   LIG    1       25.840 -27.353   5.316  0.00  0.00    -0.300 NA
ATOM     32  C   LIG    1       25.575 -26.318   4.301  0.00  0.00    +0.100 C 
ATOM     33  C   LIG    1       24.719 -25.152   4.794  0.00  0.00    +0.099 C 
ATOM     34  N   LIG    1       25.249 -24.440   5.970  0.00  0.00    -0.303 NA
ATOM     35  C   LIG    1       24.112 -23.673   6.503  0.00  0.00    +0.105 C 
ATOM     36  C   LIG    1       25.846 -25.358   6.976  0.00  0.00    +0.099 C 
ATOM     37  C   LIG    1       26.523 -26.665   6.438  0.00  0.00    +0.100 C 
ENDBRANCH  30  31
ENDBRANCH  29  30
ENDBRANCH  28  29
ENDBRANCH  27  28
ENDBRANCH   5  27
TORSDOF 10
ENDMDL
MODEL 8
REMARK VINA RESULT:      -6.1      4.858     11.019
REMARK  Name = *****
REMARK                            x       y       z     vdW  Elec       q    Type
REMARK                         _______ _______ _______ _____ _____    ______ ____
ROOT
ATOM      1  C   LIG    1       25.592 -30.076  11.542  0.00  0.00    +0.060 A 
ATOM      2  C   LIG    1       25.459 -29.695  10.033  0.00  0.00    +0.026 A 
ATOM      3  C   LIG    1       26.251 -28.608   9.655  0.00  0.00    +0.076 A 
ATOM      4  C   LIG    1       26.239 -28.083   8.358  0.00  0.00    +0.077 A 
ATOM      5  C   LIG    1       25.451 -28.521   7.292  0.00  0.00    +0.164 A 
ATOM      6  C   LIG    1       24.594 -29.550   7.542  0.00  0.00    +0.162 A 
ATOM      7  N   LIG    1       27.001 -27.892  10.490  0.00  0.00    -0.254 NA
ATOM      8  C   LIG    1       26.981 -28.150  11.806  0.00  0.00    +0.132 A 
ATOM      9  C   LIG    1       24.655 -30.104   8.836  0.00  0.00    +0.061 A 
ATOM     10  C   LIG    1       26.379 -29.243  12.387  0.00  0.00    +0.091 A 
ENDROOT
BRANCH   1  11
ATOM     11  N   LIG    1       25.064 -31.314  12.133  0.00  0.00    -0.312 N 
ATOM     12  H   LIG    1       25.706 -31.758  12.795  0.00  0.00    +0.152 HD
BRANCH  11  19
ATOM     13  C   LIG    1       21.793 -32.970  11.747  0.00  0.00    +0.140 A 
ATOM     14  C   LIG    1       21.277 -32.915  13.028  0.00  0.00    +0.084 A 
ATOM     15 CL   LIG    1       19.884 -33.817  13.489  0.00  0.00    -0.080 Cl
ATOM     16  C   LIG    1       21.810 -31.960  13.896  0.00  0.00    +0.045 A 
ATOM     17  C   LIG    1       22.979 -31.252  13.542  0.00  0.00    +0.064 A 
ATOM     18 CL   LIG    1       23.185 -29.650  14.155  0.00  0.00    -0.082 Cl
ATOM     19  C   LIG    1       23.734 -31.646  12.452  0.00  0.00    +0.053 A 
ATOM     20  C   LIG    1       22.987 -32.287  11.509  0.00  0.00    +0.072 A 
BRANCH  13  22
ATOM     21  C   LIG    1       20.211 -32.982   9.966  0.00  0.00    +0.277 C 
ATOM     22  O   LIG    1       21.177 -33.690  10.759  0.00  0.00    -0.494 OA
ENDBRANCH  13  22
ENDBRANCH  11  19
ENDBRANCH   1  11
BRANCH   6  23
ATOM     23  O   LIG    1       23.616 -30.047   6.706  0.00  0.00    -0.491 OA
ATOM     24  C   LIG    1       23.902 -31.320   6.126  0.00  0.00    +0.277 C 
ENDBRANCH   6  23
BRANCH  10  25
ATOM     25  C   LIG    1       26.720 -29.385  13.793  0.00  0.00    +0.103 C 
ATOM     26  N   LIG    1       27.122 -29.647  14.825  0.00  0.00    -0.191 NA
ENDBRANCH  10  25
BRANCH   5  27
ATOM     27  O   LIG    1       25.376 -27.867   6.102  0.00  0.00    -0.488 OA
BRANCH  27  28
ATOM     28  C   LIG    1       24.392 -26.829   5.938  0.00  0.00    +0.230 C 
BRANCH  28  29
ATOM     29  C   LIG    1       25.073 -25.660   5.198  0.00  0.00    +0.056 C 
BRANCH  29  30
ATOM     30  C   LIG    1       25.461 -24.353   5.943  0.00  0.00    +0.088 C 
BRANCH  30  31
ATOM     31  N   LIG    1       24.384 -23.325   5.878  0.00  0.00    -0.300 NA
ATOM     32  C   LIG    1       23.905 -22.797   7.169  0.00  0.00    +0.100 C 
ATOM     33  C   LIG    1       24.914 -21.917   7.906  0.00  0.00    +0.099 C 
ATOM     34  N   LIG    1       25.400 -20.751   7.147  0.00  0.00    -0.303 NA
ATOM     35  C   LIG    1       26.618 -20.312   7.847  0.00  0.00    +0.105 C 
ATOM     36  C   LIG    1       25.642 -21.061   5.713  0.00  0.00    +0.099 C 
ATOM     37  C   LIG    1       24.721 -22.143   5.049  0.00  0.00    +0.100 C 
ENDBRANCH  30  31
ENDBRANCH  29  30
ENDBRANCH  28  29
ENDBRANCH  27  28
ENDBRANCH   5  27
TORSDOF 10
ENDMDL
MODEL 9
REMARK VINA RESULT:      -5.9      4.714     10.957
REMARK  Name = *****
REMARK                            x       y       z     vdW  Elec       q    Type
REMARK                         _______ _______ _______ _____ _____    ______ ____
ROOT
ATOM      1  C   LIG    1       25.700 -30.524  11.050  0.00  0.00    +0.060 A 
ATOM      2  C   LIG    1       25.596 -29.759   9.691  0.00  0.00    +0.026 A 
ATOM      3  C   LIG    1       26.447 -28.655   9.601  0.00  0.00    +0.076 A 
ATOM      4  C   LIG    1       26.470 -27.811   8.484  0.00  0.00    +0.077 A 
ATOM      5  C   LIG    1       25.666 -27.917   7.348  0.00  0.00    +0.164 A 
ATOM      6  C   LIG    1       24.754 -28.929   7.330  0.00  0.00    +0.162 A 
ATOM      7  N   LIG    1       27.229 -28.220  10.586  0.00  0.00    -0.254 NA
ATOM      8  C   LIG    1       27.189 -28.808  11.792  0.00  0.00    +0.132 A 
ATOM      9  C   LIG    1       24.778 -29.801   8.437  0.00  0.00    +0.061 A 
ATOM     10  C   LIG    1       26.526 -29.981  12.074  0.00  0.00    +0.091 A 
ENDROOT
BRANCH   1  11
ATOM     11  N   LIG    1       25.104 -31.843  11.304  0.00  0.00    -0.312 N 
ATOM     12  H   LIG    1       25.427 -32.278  12.173  0.00  0.00    +0.152 HD
BRANCH  11  19
ATOM     13  C   LIG    1       21.532 -32.589  11.824  0.00  0.00    +0.140 A 
ATOM     14  C   LIG    1       21.051 -32.668  10.531  0.00  0.00    +0.084 A 
ATOM     15 CL   LIG    1       19.364 -32.701  10.185  0.00  0.00    -0.080 Cl
ATOM     16  C   LIG    1       21.978 -32.907   9.513  0.00  0.00    +0.045 A 
ATOM     17  C   LIG    1       23.362 -32.835   9.783  0.00  0.00    +0.064 A 
ATOM     18 CL   LIG    1       24.431 -33.825   8.853  0.00  0.00    -0.082 Cl
ATOM     19  C   LIG    1       23.818 -32.311  10.978  0.00  0.00    +0.053 A 
ATOM     20  C   LIG    1       22.912 -32.458  11.986  0.00  0.00    +0.072 A 
BRANCH  13  22
ATOM     21  C   LIG    1       20.312 -31.327  13.435  0.00  0.00    +0.277 C 
ATOM     22  O   LIG    1       20.687 -32.606  12.902  0.00  0.00    -0.494 OA
ENDBRANCH  13  22
ENDBRANCH  11  19
ENDBRANCH   1  11
BRANCH   6  23
ATOM     23  O   LIG    1       23.756 -29.140   6.402  0.00  0.00    -0.491 OA
ATOM     24  C   LIG    1       24.099 -30.019   5.331  0.00  0.00    +0.277 C 
ENDBRANCH   6  23
BRANCH  10  25
ATOM     25  C   LIG    1       26.851 -30.500  13.393  0.00  0.00    +0.103 C 
ATOM     26  N   LIG    1       27.204 -30.718  14.453  0.00  0.00    -0.191 NA
ENDBRANCH  10  25
BRANCH   5  27
ATOM     27  O   LIG    1       25.632 -26.974   6.368  0.00  0.00    -0.488 OA
BRANCH  27  28
ATOM     28  C   LIG    1       25.980 -25.616   6.696  0.00  0.00    +0.230 C 
BRANCH  28  29
ATOM     29  C   LIG    1       24.757 -24.735   6.374  0.00  0.00    +0.056 C 
BRANCH  29  30
ATOM     30  C   LIG    1       24.902 -23.429   5.544  0.00  0.00    +0.088 C 
BRANCH  30  31
ATOM     31  N   LIG    1       24.410 -22.232   6.284  0.00  0.00    -0.300 NA
ATOM     32  C   LIG    1       24.706 -22.189   7.728  0.00  0.00    +0.100 C 
ATOM     33  C   LIG    1       26.182 -21.983   8.065  0.00  0.00    +0.099 C 
ATOM     34  N   LIG    1       26.792 -20.772   7.491  0.00  0.00    -0.303 NA
ATOM     35  C   LIG    1       28.245 -20.988   7.583  0.00  0.00    +0.105 C 
ATOM     36  C   LIG    1       26.338 -20.504   6.101  0.00  0.00    +0.099 C 
ATOM     37  C   LIG    1       24.878 -20.940   5.729  0.00  0.00    +0.100 C 
ENDBRANCH  30  31
ENDBRANCH  29  30
ENDBRANCH  28  29
ENDBRANCH  27  28
ENDBRANCH   5  27
TORSDOF 10
ENDMDL
