MODEL 1
REMARK VINA RESULT:      -7.2      0.000      0.000
REMARK  Name = *****
REMARK                            x       y       z     vdW  Elec       q    Type
REMARK                         _______ _______ _______ _____ _____    ______ ____
ROOT
ATOM      1  O   LIG    1       27.701 -20.614   5.856  0.00  0.00    -0.461 OA
ENDROOT
BRANCH   1   2
ATOM      2  C   LIG    1       26.313 -20.574   6.253  0.00  0.00    +0.187 C 
ATOM      3  C   LIG    1       25.499 -21.045   5.032  0.00  0.00    +0.099 C 
ATOM      4  C   LIG    1       24.088 -21.533   5.379  0.00  0.00    +0.070 C 
ATOM      5  N   LIG    1       24.173 -22.656   6.428  0.00  0.00    +0.243 N 
ATOM      6  C   LIG    1       22.807 -23.347   6.620  0.00  0.00    +0.192 C 
ATOM      7  C   LIG    1       25.142 -23.789   6.081  0.00  0.00    +0.192 C 
ATOM      8  C   LIG    1       24.567 -21.831   7.665  0.00  0.00    +0.070 C 
ATOM      9  C   LIG    1       23.611 -20.627   7.596  0.00  0.00    +0.060 C 
ATOM     10  C   LIG    1       23.301 -20.434   6.108  0.00  0.00    +0.060 C 
ATOM     11  C   LIG    1       26.025 -21.372   7.538  0.00  0.00    +0.099 C 
ENDBRANCH   1   2
BRANCH   1  12
ATOM     12  C   LIG    1       28.458 -19.514   6.120  0.00  0.00    +0.310 C 
ATOM     13  O   LIG    1       28.690 -18.624   5.305  0.00  0.00    -0.251 OA
BRANCH  12  14
ATOM     14  C   LIG    1       29.067 -19.569   7.507  0.00  0.00    +0.098 C 
BRANCH  14  15
ATOM     15  C   LIG    1       29.589 -20.989   7.829  0.00  0.00    +0.014 C 
BRANCH  15  17
ATOM     16  C   LIG    1       31.182 -22.200   9.422  0.00  0.00    +0.004 C 
ATOM     17  C   LIG    1       30.979 -21.004   8.495  0.00  0.00    -0.003 C 
ENDBRANCH  15  17
ENDBRANCH  14  15
BRANCH  14  18
ATOM     18  C   LIG    1       30.173 -18.482   7.625  0.00  0.00    +0.014 C 
BRANCH  18  19
ATOM     19  C   LIG    1       30.158 -17.669   8.935  0.00  0.00    -0.003 C 
ATOM     20  C   LIG    1       31.532 -17.461   9.550  0.00  0.00    +0.004 C 
ENDBRANCH  18  19
ENDBRANCH  14  18
ENDBRANCH  12  14
ENDBRANCH   1  12
TORSDOF 7
ENDMDL
MODEL 2
REMARK VINA RESULT:      -6.9      0.960      2.212
REMARK  Name = *****
REMARK                            x       y       z     vdW  Elec       q    Type
REMARK                         _______ _______ _______ _____ _____    ______ ____
ROOT
ATOM      1  O   LIG    1       28.089 -20.341   7.463  0.00  0.00    -0.461 OA
ENDROOT
BRANCH   1   2
ATOM      2  C   LIG    1       26.663 -20.403   7.245  0.00  0.00    +0.187 C 
ATOM      3  C   LIG    1       26.460 -21.158   5.917  0.00  0.00    +0.099 C 
ATOM      4  C   LIG    1       25.055 -21.748   5.748  0.00  0.00    +0.070 C 
ATOM      5  N   LIG    1       24.736 -22.670   6.939  0.00  0.00    +0.243 N 
ATOM      6  C   LIG    1       23.445 -23.478   6.691  0.00  0.00    +0.192 C 
ATOM      7  C   LIG    1       25.805 -23.721   7.245  0.00  0.00    +0.192 C 
ATOM      8  C   LIG    1       24.537 -21.615   8.041  0.00  0.00    +0.070 C 
ATOM      9  C   LIG    1       23.651 -20.561   7.356  0.00  0.00    +0.060 C 
ATOM     10  C   LIG    1       23.990 -20.647   5.864  0.00  0.00    +0.060 C 
ATOM     11  C   LIG    1       25.893 -21.013   8.431  0.00  0.00    +0.099 C 
ENDBRANCH   1   2
BRANCH   1  12
ATOM     12  C   LIG    1       28.797 -19.448   6.718  0.00  0.00    +0.310 C 
ATOM     13  O   LIG    1       28.564 -19.198   5.537  0.00  0.00    -0.251 OA
BRANCH  12  14
ATOM     14  C   LIG    1       29.969 -18.875   7.488  0.00  0.00    +0.098 C 
BRANCH  14  15
ATOM     15  C   LIG    1       29.528 -18.382   8.886  0.00  0.00    +0.014 C 
BRANCH  15  17
ATOM     16  C   LIG    1       30.538 -17.243  10.942  0.00  0.00    +0.004 C 
ATOM     17  C   LIG    1       30.369 -17.208   9.425  0.00  0.00    -0.003 C 
ENDBRANCH  15  17
ENDBRANCH  14  15
BRANCH  14  18
ATOM     18  C   LIG    1       31.104 -19.936   7.557  0.00  0.00    +0.014 C 
BRANCH  18  19
ATOM     19  C   LIG    1       31.375 -20.518   8.959  0.00  0.00    -0.003 C 
ATOM     20  C   LIG    1       30.967 -21.975   9.113  0.00  0.00    +0.004 C 
ENDBRANCH  18  19
ENDBRANCH  14  18
ENDBRANCH  12  14
ENDBRANCH   1  12
TORSDOF 7
ENDMDL
MODEL 3
REMARK VINA RESULT:      -6.8      2.466      6.712
REMARK  Name = *****
REMARK                            x       y       z     vdW  Elec       q    Type
REMARK                         _______ _______ _______ _____ _____    ______ ____
ROOT
ATOM      1  O   LIG    1       27.949 -21.621   8.666  0.00  0.00    -0.461 OA
ENDROOT
BRANCH   1   2
ATOM      2  C   LIG    1       28.917 -20.813   7.963  0.00  0.00    +0.187 C 
ATOM      3  C   LIG    1       28.451 -19.352   8.112  0.00  0.00    +0.099 C 
ATOM      4  C   LIG    1       29.559 -18.320   7.870  0.00  0.00    +0.070 C 
ATOM      5  N   LIG    1       30.741 -18.601   8.815  0.00  0.00    +0.243 N 
ATOM      6  C   LIG    1       31.766 -17.448   8.787  0.00  0.00    +0.192 C 
ATOM      7  C   LIG    1       30.364 -18.755  10.290  0.00  0.00    +0.192 C 
ATOM      8  C   LIG    1       31.305 -19.873   8.159  0.00  0.00    +0.070 C 
ATOM      9  C   LIG    1       31.312 -19.516   6.663  0.00  0.00    +0.060 C 
ATOM     10  C   LIG    1       30.175 -18.507   6.475  0.00  0.00    +0.060 C 
ATOM     11  C   LIG    1       30.365 -21.055   8.430  0.00  0.00    +0.099 C 
ENDBRANCH   1   2
BRANCH   1  12
ATOM     12  C   LIG    1       26.633 -21.340   8.460  0.00  0.00    +0.310 C 
ATOM     13  O   LIG    1       25.914 -20.764   9.275  0.00  0.00    -0.251 OA
BRANCH  12  14
ATOM     14  C   LIG    1       26.133 -21.913   7.149  0.00  0.00    +0.098 C 
BRANCH  14  15
ATOM     15  C   LIG    1       25.372 -23.241   7.378  0.00  0.00    +0.014 C 
BRANCH  15  17
ATOM     16  C   LIG    1       24.114 -25.160   6.248  0.00  0.00    +0.004 C 
ATOM     17  C   LIG    1       25.176 -24.073   6.096  0.00  0.00    -0.003 C 
ENDBRANCH  15  17
ENDBRANCH  14  15
BRANCH  14  18
ATOM     18  C   LIG    1       25.271 -20.846   6.418  0.00  0.00    +0.014 C 
BRANCH  18  19
ATOM     19  C   LIG    1       23.778 -20.830   6.805  0.00  0.00    -0.003 C 
ATOM     20  C   LIG    1       22.882 -20.146   5.785  0.00  0.00    +0.004 C 
ENDBRANCH  18  19
ENDBRANCH  14  18
ENDBRANCH  12  14
ENDBRANCH   1  12
TORSDOF 7
ENDMDL
MODEL 4
REMARK VINA RESULT:      -6.5      2.086      6.469
REMARK  Name = *****
REMARK                            x       y       z     vdW  Elec       q    Type
REMARK                         _______ _______ _______ _____ _____    ______ ____
ROOT
ATOM      1  O   LIG    1       26.546 -21.083   6.471  0.00  0.00    -0.461 OA
ENDROOT
BRANCH   1   2
ATOM      2  C   LIG    1       27.625 -20.151   6.699  0.00  0.00    +0.187 C 
ATOM      3  C   LIG    1       27.738 -19.983   8.226  0.00  0.00    +0.099 C 
ATOM      4  C   LIG    1       29.094 -19.437   8.692  0.00  0.00    +0.070 C 
ATOM      5  N   LIG    1       30.222 -20.345   8.171  0.00  0.00    +0.243 N 
ATOM      6  C   LIG    1       31.575 -19.984   8.818  0.00  0.00    +0.192 C 
ATOM      7  C   LIG    1       30.034 -21.837   8.459  0.00  0.00    +0.192 C 
ATOM      8  C   LIG    1       30.193 -19.971   6.679  0.00  0.00    +0.070 C 
ATOM      9  C   LIG    1       30.109 -18.435   6.710  0.00  0.00    +0.060 C 
ATOM     10  C   LIG    1       29.392 -18.089   8.018  0.00  0.00    +0.060 C 
ATOM     11  C   LIG    1       28.943 -20.569   6.020  0.00  0.00    +0.099 C 
ENDBRANCH   1   2
BRANCH   1  12
ATOM     12  C   LIG    1       25.614 -20.743   5.539  0.00  0.00    +0.310 C 
ATOM     13  O   LIG    1       25.801 -19.922   4.644  0.00  0.00    -0.251 OA
BRANCH  12  14
ATOM     14  C   LIG    1       24.284 -21.421   5.800  0.00  0.00    +0.098 C 
BRANCH  14  15
ATOM     15  C   LIG    1       24.407 -22.470   6.931  0.00  0.00    +0.014 C 
BRANCH  15  17
ATOM     16  C   LIG    1       24.035 -24.930   6.339  0.00  0.00    +0.004 C 
ATOM     17  C   LIG    1       23.396 -23.628   6.816  0.00  0.00    -0.003 C 
ENDBRANCH  15  17
ENDBRANCH  14  15
BRANCH  14  18
ATOM     18  C   LIG    1       23.207 -20.340   6.099  0.00  0.00    +0.014 C 
BRANCH  18  19
ATOM     19  C   LIG    1       22.289 -19.981   4.913  0.00  0.00    -0.003 C 
ATOM     20  C   LIG    1       22.360 -18.522   4.495  0.00  0.00    +0.004 C 
ENDBRANCH  18  19
ENDBRANCH  14  18
ENDBRANCH  12  14
ENDBRANCH   1  12
TORSDOF 7
ENDMDL
MODEL 5
REMARK VINA RESULT:      -6.5      2.105      6.801
REMARK  Name = *****
REMARK                            x       y       z     vdW  Elec       q    Type
REMARK                         _______ _______ _______ _____ _____    ______ ____
ROOT
ATOM      1  O   LIG    1       26.621 -21.023   6.594  0.00  0.00    -0.461 OA
ENDROOT
BRANCH   1   2
ATOM      2  C   LIG    1       27.712 -20.097   6.786  0.00  0.00    +0.187 C 
ATOM      3  C   LIG    1       27.848 -19.899   8.308  0.00  0.00    +0.099 C 
ATOM      4  C   LIG    1       29.216 -19.357   8.743  0.00  0.00    +0.070 C 
ATOM      5  N   LIG    1       30.327 -20.287   8.225  0.00  0.00    +0.243 N 
ATOM      6  C   LIG    1       31.693 -19.926   8.846  0.00  0.00    +0.192 C 
ATOM      7  C   LIG    1       30.129 -21.770   8.547  0.00  0.00    +0.192 C 
ATOM      8  C   LIG    1       30.281 -19.943   6.727  0.00  0.00    +0.070 C 
ATOM      9  C   LIG    1       30.212 -18.406   6.726  0.00  0.00    +0.060 C 
ATOM     10  C   LIG    1       29.517 -18.026   8.038  0.00  0.00    +0.060 C 
ATOM     11  C   LIG    1       29.016 -20.542   6.098  0.00  0.00    +0.099 C 
ENDBRANCH   1   2
BRANCH   1  12
ATOM     12  C   LIG    1       25.649 -20.667   5.709  0.00  0.00    +0.310 C 
ATOM     13  O   LIG    1       25.866 -20.314   4.551  0.00  0.00    -0.251 OA
BRANCH  12  14
ATOM     14  C   LIG    1       24.277 -20.659   6.352  0.00  0.00    +0.098 C 
BRANCH  14  15
ATOM     15  C   LIG    1       23.162 -20.728   5.282  0.00  0.00    +0.014 C 
BRANCH  15  17
ATOM     16  C   LIG    1       22.813 -18.509   4.059  0.00  0.00    +0.004 C 
ATOM     17  C   LIG    1       22.328 -19.437   5.170  0.00  0.00    -0.003 C 
ENDBRANCH  15  17
ENDBRANCH  14  15
BRANCH  14  18
ATOM     18  C   LIG    1       24.188 -21.815   7.387  0.00  0.00    +0.014 C 
BRANCH  18  19
ATOM     19  C   LIG    1       23.137 -22.899   7.072  0.00  0.00    -0.003 C 
ATOM     20  C   LIG    1       23.727 -24.203   6.562  0.00  0.00    +0.004 C 
ENDBRANCH  18  19
ENDBRANCH  14  18
ENDBRANCH  12  14
ENDBRANCH   1  12
TORSDOF 7
ENDMDL
MODEL 6
REMARK VINA RESULT:      -6.3      0.845      2.074
REMARK  Name = *****
REMARK                            x       y       z     vdW  Elec       q    Type
REMARK                         _______ _______ _______ _____ _____    ______ ____
ROOT
ATOM      1  O   LIG    1       27.156 -19.978   6.987  0.00  0.00    -0.461 OA
ENDROOT
BRANCH   1   2
ATOM      2  C   LIG    1       26.576 -21.258   6.656  0.00  0.00    +0.187 C 
ATOM      3  C   LIG    1       25.974 -21.812   7.961  0.00  0.00    +0.099 C 
ATOM      4  C   LIG    1       24.912 -22.897   7.743  0.00  0.00    +0.070 C 
ATOM      5  N   LIG    1       23.798 -22.354   6.831  0.00  0.00    +0.243 N 
ATOM      6  C   LIG    1       22.592 -23.315   6.787  0.00  0.00    +0.192 C 
ATOM      7  C   LIG    1       23.213 -21.007   7.262  0.00  0.00    +0.192 C 
ATOM      8  C   LIG    1       24.547 -22.328   5.487  0.00  0.00    +0.070 C 
ATOM      9  C   LIG    1       25.254 -23.694   5.460  0.00  0.00    +0.060 C 
ATOM     10  C   LIG    1       25.493 -24.063   6.928  0.00  0.00    +0.060 C 
ATOM     11  C   LIG    1       25.573 -21.187   5.489  0.00  0.00    +0.099 C 
ENDBRANCH   1   2
BRANCH   1  12
ATOM     12  C   LIG    1       28.434 -19.747   6.580  0.00  0.00    +0.310 C 
ATOM     13  O   LIG    1       28.761 -19.554   5.411  0.00  0.00    -0.251 OA
BRANCH  12  14
ATOM     14  C   LIG    1       29.420 -19.861   7.725  0.00  0.00    +0.098 C 
BRANCH  14  15
ATOM     15  C   LIG    1       29.651 -21.341   8.114  0.00  0.00    +0.014 C 
BRANCH  15  17
ATOM     16  C   LIG    1       31.793 -22.586   8.749  0.00  0.00    +0.004 C 
ATOM     17  C   LIG    1       30.761 -21.540   9.165  0.00  0.00    -0.003 C 
ENDBRANCH  15  17
ENDBRANCH  14  15
BRANCH  14  18
ATOM     18  C   LIG    1       30.736 -19.128   7.344  0.00  0.00    +0.014 C 
BRANCH  18  19
ATOM     19  C   LIG    1       31.264 -18.134   8.398  0.00  0.00    -0.003 C 
ATOM     20  C   LIG    1       30.203 -17.639   9.368  0.00  0.00    +0.004 C 
ENDBRANCH  18  19
ENDBRANCH  14  18
ENDBRANCH  12  14
ENDBRANCH   1  12
TORSDOF 7
ENDMDL
MODEL 7
REMARK VINA RESULT:      -6.3      1.496      2.545
REMARK  Name = *****
REMARK                            x       y       z     vdW  Elec       q    Type
REMARK                         _______ _______ _______ _____ _____    ______ ____
ROOT
ATOM      1  O   LIG    1       27.603 -20.226   8.606  0.00  0.00    -0.461 OA
ENDROOT
BRANCH   1   2
ATOM      2  C   LIG    1       26.325 -20.377   7.952  0.00  0.00    +0.187 C 
ATOM      3  C   LIG    1       26.626 -20.821   6.508  0.00  0.00    +0.099 C 
ATOM      4  C   LIG    1       25.441 -21.493   5.805  0.00  0.00    +0.070 C 
ATOM      5  N   LIG    1       24.958 -22.692   6.641  0.00  0.00    +0.243 N 
ATOM      6  C   LIG    1       23.938 -23.545   5.857  0.00  0.00    +0.192 C 
ATOM      7  C   LIG    1       26.056 -23.673   7.055  0.00  0.00    +0.192 C 
ATOM      8  C   LIG    1       24.289 -21.946   7.808  0.00  0.00    +0.070 C 
ATOM      9  C   LIG    1       23.469 -20.855   7.097  0.00  0.00    +0.060 C 
ATOM     10  C   LIG    1       24.221 -20.560   5.795  0.00  0.00    +0.060 C 
ATOM     11  C   LIG    1       25.365 -21.318   8.704  0.00  0.00    +0.099 C 
ENDBRANCH   1   2
BRANCH   1  12
ATOM     12  C   LIG    1       28.713 -20.558   7.891  0.00  0.00    +0.310 C 
ATOM     13  O   LIG    1       28.941 -21.684   7.453  0.00  0.00    -0.251 OA
BRANCH  12  14
ATOM     14  C   LIG    1       29.684 -19.398   7.788  0.00  0.00    +0.098 C 
BRANCH  14  15
ATOM     15  C   LIG    1       30.842 -19.552   8.802  0.00  0.00    +0.014 C 
BRANCH  15  17
ATOM     16  C   LIG    1       30.362 -17.190   9.657  0.00  0.00    +0.004 C 
ATOM     17  C   LIG    1       31.432 -18.210   9.278  0.00  0.00    -0.003 C 
ENDBRANCH  15  17
ENDBRANCH  14  15
BRANCH  14  18
ATOM     18  C   LIG    1       30.183 -19.277   6.321  0.00  0.00    +0.014 C 
BRANCH  18  19
ATOM     19  C   LIG    1       29.591 -18.099   5.521  0.00  0.00    -0.003 C 
ATOM     20  C   LIG    1       28.248 -18.401   4.877  0.00  0.00    +0.004 C 
ENDBRANCH  18  19
ENDBRANCH  14  18
ENDBRANCH  12  14
ENDBRANCH   1  12
TORSDOF 7
ENDMDL
MODEL 8
REMARK VINA RESULT:      -6.3      1.498      3.172
REMARK  Name = *****
REMARK                            x       y       z     vdW  Elec       q    Type
REMARK                         _______ _______ _______ _____ _____    ______ ____
ROOT
ATOM      1  O   LIG    1       27.415 -20.317   7.794  0.00  0.00    -0.461 OA
ENDROOT
BRANCH   1   2
ATOM      2  C   LIG    1       26.730 -21.443   7.203  0.00  0.00    +0.187 C 
ATOM      3  C   LIG    1       25.874 -22.066   8.323  0.00  0.00    +0.099 C 
ATOM      4  C   LIG    1       24.725 -22.943   7.811  0.00  0.00    +0.070 C 
ATOM      5  N   LIG    1       23.838 -22.126   6.854  0.00  0.00    +0.243 N 
ATOM      6  C   LIG    1       22.538 -22.883   6.513  0.00  0.00    +0.192 C 
ATOM      7  C   LIG    1       23.375 -20.774   7.402  0.00  0.00    +0.192 C 
ATOM      8  C   LIG    1       24.776 -22.039   5.637  0.00  0.00    +0.070 C 
ATOM      9  C   LIG    1       25.296 -23.479   5.497  0.00  0.00    +0.060 C 
ATOM     10  C   LIG    1       25.265 -24.066   6.912  0.00  0.00    +0.060 C 
ATOM     11  C   LIG    1       25.929 -21.073   5.941  0.00  0.00    +0.099 C 
ENDBRANCH   1   2
BRANCH   1  12
ATOM     12  C   LIG    1       28.753 -20.443   8.006  0.00  0.00    +0.310 C 
ATOM     13  O   LIG    1       29.294 -21.468   8.416  0.00  0.00    -0.251 OA
BRANCH  12  14
ATOM     14  C   LIG    1       29.485 -19.136   7.776  0.00  0.00    +0.098 C 
BRANCH  14  15
ATOM     15  C   LIG    1       30.460 -18.833   8.939  0.00  0.00    +0.014 C 
BRANCH  15  17
ATOM     16  C   LIG    1       30.443 -17.262  10.957  0.00  0.00    +0.004 C 
ATOM     17  C   LIG    1       30.398 -17.375   9.435  0.00  0.00    -0.003 C 
ENDBRANCH  15  17
ENDBRANCH  14  15
BRANCH  14  18
ATOM     18  C   LIG    1       30.197 -19.183   6.394  0.00  0.00    +0.014 C 
BRANCH  18  19
ATOM     19  C   LIG    1       29.648 -18.201   5.339  0.00  0.00    -0.003 C 
ATOM     20  C   LIG    1       28.218 -18.487   4.913  0.00  0.00    +0.004 C 
ENDBRANCH  18  19
ENDBRANCH  14  18
ENDBRANCH  12  14
ENDBRANCH   1  12
TORSDOF 7
ENDMDL
MODEL 9
REMARK VINA RESULT:      -6.3      4.040      6.889
REMARK  Name = *****
REMARK                            x       y       z     vdW  Elec       q    Type
REMARK                         _______ _______ _______ _____ _____    ______ ____
ROOT
ATOM      1  O   LIG    1       26.094 -24.754   6.629  0.00  0.00    -0.461 OA
ENDROOT
BRANCH   1   2
ATOM      2  C   LIG    1       25.330 -23.605   7.054  0.00  0.00    +0.187 C 
ATOM      3  C   LIG    1       26.102 -22.365   6.563  0.00  0.00    +0.099 C 
ATOM      4  C   LIG    1       25.247 -21.095   6.478  0.00  0.00    +0.070 C 
ATOM      5  N   LIG    1       24.026 -21.354   5.577  0.00  0.00    +0.243 N 
ATOM      6  C   LIG    1       23.277 -20.043   5.260  0.00  0.00    +0.192 C 
ATOM      7  C   LIG    1       24.351 -21.962   4.211  0.00  0.00    +0.192 C 
ATOM      8  C   LIG    1       23.203 -22.264   6.506  0.00  0.00    +0.070 C 
ATOM      9  C   LIG    1       23.283 -21.539   7.860  0.00  0.00    +0.060 C 
ATOM     10  C   LIG    1       24.614 -20.780   7.842  0.00  0.00    +0.060 C 
ATOM     11  C   LIG    1       23.862 -23.647   6.592  0.00  0.00    +0.099 C 
ENDBRANCH   1   2
BRANCH   1  12
ATOM     12  C   LIG    1       25.496 -25.614   5.759  0.00  0.00    +0.310 C 
ATOM     13  O   LIG    1       25.169 -25.319   4.612  0.00  0.00    -0.251 OA
BRANCH  12  14
ATOM     14  C   LIG    1       25.187 -26.948   6.409  0.00  0.00    +0.098 C 
BRANCH  14  15
ATOM     15  C   LIG    1       25.147 -28.082   5.357  0.00  0.00    +0.014 C 
BRANCH  15  17
ATOM     16  C   LIG    1       24.667 -30.549   5.829  0.00  0.00    +0.004 C 
ATOM     17  C   LIG    1       24.077 -29.154   5.641  0.00  0.00    -0.003 C 
ENDBRANCH  15  17
ENDBRANCH  14  15
BRANCH  14  18
ATOM     18  C   LIG    1       26.217 -27.217   7.542  0.00  0.00    +0.014 C 
BRANCH  18  19
ATOM     19  C   LIG    1       25.892 -28.418   8.453  0.00  0.00    -0.003 C 
ATOM     20  C   LIG    1       26.688 -28.445   9.748  0.00  0.00    +0.004 C 
ENDBRANCH  18  19
ENDBRANCH  14  18
ENDBRANCH  12  14
ENDBRANCH   1  12
TORSDOF 7
ENDMDL
