MODEL 1
REMARK VINA RESULT:      -4.8      0.000      0.000
REMARK  Name = *****
REMARK                            x       y       z     vdW  Elec       q    Type
REMARK                         _______ _______ _______ _____ _____    ______ ____
ROOT
ATOM      1  C   LIG    1       27.357 -17.596   4.238  0.00  0.00    -0.045 C 
ATOM      2  C   LIG    1       26.327 -18.554   4.339  0.00  0.00    +0.014 C 
ATOM      3  C   LIG    1       26.493 -19.687   5.167  0.00  0.00    +0.003 C 
ATOM      4  C   LIG    1       27.688 -19.798   5.881  0.00  0.00    +0.047 C 
ATOM      5  N   LIG    1       27.609 -20.945   6.626  0.00  0.00    -0.360 NA
ATOM      6  H   LIG    1       28.331 -21.275   7.249  0.00  0.00    +0.165 HD
ATOM      7  C   LIG    1       26.416 -21.571   6.401  0.00  0.00    +0.087 C 
ATOM      8  C   LIG    1       28.728 -18.868   5.794  0.00  0.00    +0.026 C 
ATOM      9  C   LIG    1       25.690 -20.850   5.471  0.00  0.00    -0.019 C 
ATOM     10  C   LIG    1       28.545 -17.770   4.955  0.00  0.00    +0.006 C 
ENDROOT
BRANCH   9  11
ATOM     11  C   LIG    1       24.332 -21.193   4.879  0.00  0.00    +0.023 C 
ATOM     12  C   LIG    1       23.135 -20.893   5.795  0.00  0.00    +0.023 C 
ATOM     13  C   LIG    1       22.720 -19.417   5.824  0.00  0.00    +0.085 C 
ATOM     14  N   LIG    1       22.615 -18.760   4.519  0.00  0.00    -0.305 NA
ATOM     15  C   LIG    1       21.310 -18.956   3.901  0.00  0.00    +0.105 C 
ATOM     16  C   LIG    1       23.733 -19.069   3.620  0.00  0.00    +0.085 C 
ATOM     17  C   LIG    1       24.081 -20.554   3.510  0.00  0.00    +0.023 C 
ENDBRANCH   9  11
BRANCH   1  18
ATOM     18  C   LIG    1       27.231 -16.431   3.285  0.00  0.00    +0.059 C 
BRANCH  18  19
ATOM     19  C   LIG    1       27.592 -15.154   4.020  0.00  0.00    +0.190 C 
BRANCH  19  20
ATOM     20  S   LIG    1       26.989 -13.713   3.171  0.00  0.00    +0.029 S 
ATOM     21  O   LIG    1       27.923 -12.627   3.333  0.00  0.00    -0.158 OA
ATOM     22  O   LIG    1       26.496 -14.102   1.863  0.00  0.00    -0.158 OA
BRANCH  20  24
ATOM     23  C   LIG    1       24.319 -13.689   3.518  0.00  0.00    +0.127 C 
ATOM     24  N   LIG    1       25.623 -13.342   4.091  0.00  0.00    -0.198 NA
ATOM     25  H   LIG    1       25.760 -13.635   5.060  0.00  0.00    +0.147 HD
ENDBRANCH  20  24
ENDBRANCH  19  20
ENDBRANCH  18  19
ENDBRANCH   1  18
TORSDOF 5
ENDMDL
MODEL 2
REMARK VINA RESULT:      -4.7      3.501      6.301
REMARK  Name = *****
REMARK                            x       y       z     vdW  Elec       q    Type
REMARK                         _______ _______ _______ _____ _____    ______ ____
ROOT
ATOM      1  C   LIG    1       25.440 -19.396   3.524  0.00  0.00    -0.045 C 
ATOM      2  C   LIG    1       25.430 -18.027   3.184  0.00  0.00    +0.014 C 
ATOM      3  C   LIG    1       26.462 -17.177   3.642  0.00  0.00    +0.003 C 
ATOM      4  C   LIG    1       27.480 -17.748   4.408  0.00  0.00    +0.047 C 
ATOM      5  N   LIG    1       28.370 -16.751   4.706  0.00  0.00    -0.360 NA
ATOM      6  H   LIG    1       29.214 -16.877   5.246  0.00  0.00    +0.165 HD
ATOM      7  C   LIG    1       27.948 -15.567   4.170  0.00  0.00    +0.087 C 
ATOM      8  C   LIG    1       27.511 -19.099   4.765  0.00  0.00    +0.026 C 
ATOM      9  C   LIG    1       26.742 -15.764   3.522  0.00  0.00    -0.019 C 
ATOM     10  C   LIG    1       26.470 -19.912   4.317  0.00  0.00    +0.006 C 
ENDROOT
BRANCH   9  11
ATOM     11  C   LIG    1       25.877 -14.725   2.826  0.00  0.00    +0.023 C 
ATOM     12  C   LIG    1       24.392 -14.755   3.219  0.00  0.00    +0.023 C 
ATOM     13  C   LIG    1       24.083 -14.076   4.559  0.00  0.00    +0.085 C 
ATOM     14  N   LIG    1       24.698 -12.763   4.764  0.00  0.00    -0.305 NA
ATOM     15  C   LIG    1       23.898 -11.680   4.206  0.00  0.00    +0.105 C 
ATOM     16  C   LIG    1       26.107 -12.710   4.357  0.00  0.00    +0.085 C 
ATOM     17  C   LIG    1       26.401 -13.293   2.974  0.00  0.00    +0.023 C 
ENDBRANCH   9  11
BRANCH   1  18
ATOM     18  C   LIG    1       24.295 -20.295   3.122  0.00  0.00    +0.059 C 
BRANCH  18  19
ATOM     19  C   LIG    1       23.987 -21.242   4.266  0.00  0.00    +0.190 C 
BRANCH  19  20
ATOM     20  S   LIG    1       22.609 -20.675   5.237  0.00  0.00    +0.029 S 
ATOM     21  O   LIG    1       22.496 -19.242   5.130  0.00  0.00    -0.158 OA
ATOM     22  O   LIG    1       21.473 -21.547   5.004  0.00  0.00    -0.158 OA
BRANCH  20  24
ATOM     23  C   LIG    1       24.582 -20.863   7.061  0.00  0.00    +0.127 C 
ATOM     24  N   LIG    1       23.148 -21.022   6.799  0.00  0.00    -0.198 NA
ATOM     25  H   LIG    1       22.533 -20.586   7.488  0.00  0.00    +0.147 HD
ENDBRANCH  20  24
ENDBRANCH  19  20
ENDBRANCH  18  19
ENDBRANCH   1  18
TORSDOF 5
ENDMDL
MODEL 3
REMARK VINA RESULT:      -4.6      3.068      6.860
REMARK  Name = *****
REMARK                            x       y       z     vdW  Elec       q    Type
REMARK                         _______ _______ _______ _____ _____    ______ ____
ROOT
ATOM      1  C   LIG    1       23.976 -19.429   3.938  0.00  0.00    -0.045 C 
ATOM      2  C   LIG    1       24.692 -18.265   3.585  0.00  0.00    +0.014 C 
ATOM      3  C   LIG    1       24.149 -16.990   3.859  0.00  0.00    +0.003 C 
ATOM      4  C   LIG    1       22.910 -16.937   4.501  0.00  0.00    +0.047 C 
ATOM      5  N   LIG    1       22.605 -15.615   4.685  0.00  0.00    -0.360 NA
ATOM      6  H   LIG    1       21.767 -15.276   5.135  0.00  0.00    +0.165 HD
ATOM      7  C   LIG    1       23.597 -14.827   4.173  0.00  0.00    +0.087 C 
ATOM      8  C   LIG    1       22.176 -18.073   4.855  0.00  0.00    +0.026 C 
ATOM      9  C   LIG    1       24.573 -15.630   3.611  0.00  0.00    -0.019 C 
ATOM     10  C   LIG    1       22.726 -19.319   4.556  0.00  0.00    +0.006 C 
ENDROOT
BRANCH   9  11
ATOM     11  C   LIG    1       25.833 -15.193   2.881  0.00  0.00    +0.023 C 
ATOM     12  C   LIG    1       25.908 -13.691   2.566  0.00  0.00    +0.023 C 
ATOM     13  C   LIG    1       26.327 -12.819   3.756  0.00  0.00    +0.085 C 
ATOM     14  N   LIG    1       27.482 -13.297   4.519  0.00  0.00    -0.305 NA
ATOM     15  C   LIG    1       28.747 -12.856   3.947  0.00  0.00    +0.105 C 
ATOM     16  C   LIG    1       27.443 -14.738   4.794  0.00  0.00    +0.085 C 
ATOM     17  C   LIG    1       27.126 -15.618   3.584  0.00  0.00    +0.023 C 
ENDBRANCH   9  11
BRANCH   1  18
ATOM     18  C   LIG    1       24.501 -20.795   3.567  0.00  0.00    +0.059 C 
BRANCH  18  19
ATOM     19  C   LIG    1       24.950 -21.509   4.828  0.00  0.00    +0.190 C 
BRANCH  19  20
ATOM     20  S   LIG    1       25.918 -20.448   5.877  0.00  0.00    +0.029 S 
ATOM     21  O   LIG    1       26.757 -19.599   5.067  0.00  0.00    -0.158 OA
ATOM     22  O   LIG    1       25.067 -19.904   6.919  0.00  0.00    -0.158 OA
BRANCH  20  24
ATOM     23  C   LIG    1       28.315 -21.173   6.866  0.00  0.00    +0.127 C 
ATOM     24  N   LIG    1       26.923 -21.571   6.637  0.00  0.00    -0.198 NA
ATOM     25  H   LIG    1       26.450 -21.975   7.447  0.00  0.00    +0.147 HD
ENDBRANCH  20  24
ENDBRANCH  19  20
ENDBRANCH  18  19
ENDBRANCH   1  18
TORSDOF 5
ENDMDL
MODEL 4
REMARK VINA RESULT:      -4.6      1.802      2.417
REMARK  Name = *****
REMARK                            x       y       z     vdW  Elec       q    Type
REMARK                         _______ _______ _______ _____ _____    ______ ____
ROOT
ATOM      1  C   LIG    1       26.765 -15.609   3.381  0.00  0.00    -0.045 C 
ATOM      2  C   LIG    1       25.945 -16.752   3.273  0.00  0.00    +0.014 C 
ATOM      3  C   LIG    1       26.346 -17.969   3.868  0.00  0.00    +0.003 C 
ATOM      4  C   LIG    1       27.552 -17.980   4.572  0.00  0.00    +0.047 C 
ATOM      5  N   LIG    1       27.713 -19.242   5.078  0.00  0.00    -0.360 NA
ATOM      6  H   LIG    1       28.498 -19.539   5.641  0.00  0.00    +0.165 HD
ATOM      7  C   LIG    1       26.663 -20.035   4.711  0.00  0.00    +0.087 C 
ATOM      8  C   LIG    1       28.386 -16.865   4.689  0.00  0.00    +0.026 C 
ATOM      9  C   LIG    1       25.792 -19.303   3.924  0.00  0.00    -0.019 C 
ATOM     10  C   LIG    1       27.977 -15.682   4.076  0.00  0.00    +0.006 C 
ENDROOT
BRANCH   9  11
ATOM     11  C   LIG    1       24.518 -19.784   3.248  0.00  0.00    +0.023 C 
ATOM     12  C   LIG    1       24.189 -21.269   3.474  0.00  0.00    +0.023 C 
ATOM     13  C   LIG    1       23.551 -21.571   4.834  0.00  0.00    +0.085 C 
ATOM     14  N   LIG    1       22.460 -20.681   5.238  0.00  0.00    -0.305 NA
ATOM     15  C   LIG    1       21.170 -21.107   4.710  0.00  0.00    +0.105 C 
ATOM     16  C   LIG    1       22.745 -19.262   4.992  0.00  0.00    +0.085 C 
ATOM     17  C   LIG    1       23.285 -18.945   3.597  0.00  0.00    +0.023 C 
ENDBRANCH   9  11
BRANCH   1  18
ATOM     18  C   LIG    1       26.395 -14.328   2.671  0.00  0.00    +0.059 C 
BRANCH  18  19
ATOM     19  C   LIG    1       25.968 -13.300   3.701  0.00  0.00    +0.190 C 
BRANCH  19  20
ATOM     20  S   LIG    1       24.371 -12.615   3.326  0.00  0.00    +0.029 S 
ATOM     21  O   LIG    1       23.897 -11.845   4.449  0.00  0.00    -0.158 OA
ATOM     22  O   LIG    1       24.391 -12.067   1.983  0.00  0.00    -0.158 OA
BRANCH  20  24
ATOM     23  C   LIG    1       23.294 -14.800   4.473  0.00  0.00    +0.127 C 
ATOM     24  N   LIG    1       23.429 -14.014   3.244  0.00  0.00    -0.198 NA
ATOM     25  H   LIG    1       22.553 -13.820   2.757  0.00  0.00    +0.147 HD
ENDBRANCH  20  24
ENDBRANCH  19  20
ENDBRANCH  18  19
ENDBRANCH   1  18
TORSDOF 5
ENDMDL
MODEL 5
REMARK VINA RESULT:      -4.2      1.440      3.877
REMARK  Name = *****
REMARK                            x       y       z     vdW  Elec       q    Type
REMARK                         _______ _______ _______ _____ _____    ______ ____
ROOT
ATOM      1  C   LIG    1       25.476 -15.952   3.350  0.00  0.00    -0.045 C 
ATOM      2  C   LIG    1       25.365 -17.332   3.621  0.00  0.00    +0.014 C 
ATOM      3  C   LIG    1       24.147 -17.862   4.105  0.00  0.00    +0.003 C 
ATOM      4  C   LIG    1       23.079 -16.980   4.276  0.00  0.00    +0.047 C 
ATOM      5  N   LIG    1       22.013 -17.717   4.719  0.00  0.00    -0.360 NA
ATOM      6  H   LIG    1       21.098 -17.339   4.921  0.00  0.00    +0.165 HD
ATOM      7  C   LIG    1       22.368 -19.029   4.849  0.00  0.00    +0.087 C 
ATOM      8  C   LIG    1       23.164 -15.608   4.022  0.00  0.00    +0.026 C 
ATOM      9  C   LIG    1       23.702 -19.176   4.512  0.00  0.00    -0.019 C 
ATOM     10  C   LIG    1       24.382 -15.108   3.564  0.00  0.00    +0.006 C 
ENDROOT
BRANCH   9  11
ATOM     11  C   LIG    1       24.540 -20.444   4.556  0.00  0.00    +0.023 C 
ATOM     12  C   LIG    1       26.040 -20.234   4.294  0.00  0.00    +0.023 C 
ATOM     13  C   LIG    1       26.822 -19.706   5.503  0.00  0.00    +0.085 C 
ATOM     14  N   LIG    1       26.557 -20.381   6.776  0.00  0.00    -0.305 NA
ATOM     15  C   LIG    1       27.379 -21.570   6.957  0.00  0.00    +0.105 C 
ATOM     16  C   LIG    1       25.130 -20.622   7.021  0.00  0.00    +0.085 C 
ATOM     17  C   LIG    1       24.370 -21.246   5.850  0.00  0.00    +0.023 C 
ENDBRANCH   9  11
BRANCH   1  18
ATOM     18  C   LIG    1       26.797 -15.358   2.923  0.00  0.00    +0.059 C 
BRANCH  18  19
ATOM     19  C   LIG    1       27.520 -14.835   4.149  0.00  0.00    +0.190 C 
BRANCH  19  20
ATOM     20  S   LIG    1       27.466 -13.060   4.239  0.00  0.00    +0.029 S 
ATOM     21  O   LIG    1       28.731 -12.559   4.716  0.00  0.00    -0.158 OA
ATOM     22  O   LIG    1       26.849 -12.541   3.032  0.00  0.00    -0.158 OA
BRANCH  20  24
ATOM     23  C   LIG    1       25.045 -12.253   5.096  0.00  0.00    +0.127 C 
ATOM     24  N   LIG    1       26.338 -12.832   5.473  0.00  0.00    -0.198 NA
ATOM     25  H   LIG    1       26.282 -13.667   6.059  0.00  0.00    +0.147 HD
ENDBRANCH  20  24
ENDBRANCH  19  20
ENDBRANCH  18  19
ENDBRANCH   1  18
TORSDOF 5
ENDMDL
MODEL 6
REMARK VINA RESULT:      -3.5      3.446      7.098
REMARK  Name = *****
REMARK                            x       y       z     vdW  Elec       q    Type
REMARK                         _______ _______ _______ _____ _____    ______ ____
ROOT
ATOM      1  C   LIG    1       23.902 -18.837   3.912  0.00  0.00    -0.045 C 
ATOM      2  C   LIG    1       24.762 -17.760   3.611  0.00  0.00    +0.014 C 
ATOM      3  C   LIG    1       24.342 -16.431   3.845  0.00  0.00    +0.003 C 
ATOM      4  C   LIG    1       23.074 -16.241   4.396  0.00  0.00    +0.047 C 
ATOM      5  N   LIG    1       22.901 -14.892   4.558  0.00  0.00    -0.360 NA
ATOM      6  H   LIG    1       22.074 -14.461   4.946  0.00  0.00    +0.165 HD
ATOM      7  C   LIG    1       24.005 -14.220   4.117  0.00  0.00    +0.087 C 
ATOM      8  C   LIG    1       22.198 -17.288   4.697  0.00  0.00    +0.026 C 
ATOM      9  C   LIG    1       24.927 -15.127   3.627  0.00  0.00    -0.019 C 
ATOM     10  C   LIG    1       22.631 -18.588   4.438  0.00  0.00    +0.006 C 
ENDROOT
BRANCH   9  11
ATOM     11  C   LIG    1       26.276 -14.834   2.989  0.00  0.00    +0.023 C 
ATOM     12  C   LIG    1       26.442 -13.399   2.464  0.00  0.00    +0.023 C 
ATOM     13  C   LIG    1       26.762 -12.366   3.552  0.00  0.00    +0.085 C 
ATOM     14  N   LIG    1       27.808 -12.747   4.504  0.00  0.00    -0.305 NA
ATOM     15  C   LIG    1       29.144 -12.427   4.021  0.00  0.00    +0.105 C 
ATOM     16  C   LIG    1       27.682 -14.129   4.984  0.00  0.00    +0.085 C 
ATOM     17  C   LIG    1       27.466 -15.175   3.890  0.00  0.00    +0.023 C 
ENDBRANCH   9  11
BRANCH   1  18
ATOM     18  C   LIG    1       24.302 -20.254   3.579  0.00  0.00    +0.059 C 
BRANCH  18  19
ATOM     19  C   LIG    1       25.680 -20.524   4.152  0.00  0.00    +0.190 C 
BRANCH  19  20
ATOM     20  S   LIG    1       25.634 -20.711   5.919  0.00  0.00    +0.029 S 
ATOM     21  O   LIG    1       26.711 -21.571   6.345  0.00  0.00    -0.158 OA
ATOM     22  O   LIG    1       25.412 -19.414   6.529  0.00  0.00    -0.158 OA
BRANCH  20  24
ATOM     23  C   LIG    1       23.123 -20.913   6.870  0.00  0.00    +0.127 C 
ATOM     24  N   LIG    1       24.196 -21.572   6.118  0.00  0.00    -0.198 NA
ATOM     25  H   LIG    1       23.909 -21.987   5.230  0.00  0.00    +0.147 HD
ENDBRANCH  20  24
ENDBRANCH  19  20
ENDBRANCH  18  19
ENDBRANCH   1  18
TORSDOF 5
ENDMDL
MODEL 7
REMARK VINA RESULT:      -2.7      1.560      4.195
REMARK  Name = *****
REMARK                            x       y       z     vdW  Elec       q    Type
REMARK                         _______ _______ _______ _____ _____    ______ ____
ROOT
ATOM      1  C   LIG    1       23.710 -16.070   4.058  0.00  0.00    -0.045 C 
ATOM      2  C   LIG    1       24.351 -17.324   3.973  0.00  0.00    +0.014 C 
ATOM      3  C   LIG    1       23.638 -18.506   4.279  0.00  0.00    +0.003 C 
ATOM      4  C   LIG    1       22.295 -18.377   4.638  0.00  0.00    +0.047 C 
ATOM      5  N   LIG    1       21.813 -19.640   4.856  0.00  0.00    -0.360 NA
ATOM      6  H   LIG    1       20.862 -19.854   5.122  0.00  0.00    +0.165 HD
ATOM      7  C   LIG    1       22.801 -20.563   4.662  0.00  0.00    +0.087 C 
ATOM      8  C   LIG    1       21.637 -17.148   4.737  0.00  0.00    +0.026 C 
ATOM      9  C   LIG    1       23.976 -19.910   4.333  0.00  0.00    -0.019 C 
ATOM     10  C   LIG    1       22.369 -15.997   4.449  0.00  0.00    +0.006 C 
ENDROOT
BRANCH   9  11
ATOM     11  C   LIG    1       25.344 -20.524   4.080  0.00  0.00    +0.023 C 
ATOM     12  C   LIG    1       26.488 -19.508   3.927  0.00  0.00    +0.023 C 
ATOM     13  C   LIG    1       27.013 -18.949   5.255  0.00  0.00    +0.085 C 
ATOM     14  N   LIG    1       27.268 -19.937   6.305  0.00  0.00    -0.305 NA
ATOM     15  C   LIG    1       28.597 -20.526   6.204  0.00  0.00    +0.105 C 
ATOM     16  C   LIG    1       26.201 -20.936   6.436  0.00  0.00    +0.085 C 
ATOM     17  C   LIG    1       25.747 -21.572   5.122  0.00  0.00    +0.023 C 
ENDBRANCH   9  11
BRANCH   1  18
ATOM     18  C   LIG    1       24.484 -14.795   3.826  0.00  0.00    +0.059 C 
BRANCH  18  19
ATOM     19  C   LIG    1       25.948 -15.137   3.628  0.00  0.00    +0.190 C 
BRANCH  19  20
ATOM     20  S   LIG    1       26.950 -13.678   3.463  0.00  0.00    +0.029 S 
ATOM     21  O   LIG    1       28.341 -14.049   3.389  0.00  0.00    -0.158 OA
ATOM     22  O   LIG    1       26.346 -12.795   2.482  0.00  0.00    -0.158 OA
BRANCH  20  24
ATOM     23  C   LIG    1       27.233 -13.639   6.140  0.00  0.00    +0.127 C 
ATOM     24  N   LIG    1       26.705 -12.943   4.963  0.00  0.00    -0.198 NA
ATOM     25  H   LIG    1       26.934 -11.950   4.910  0.00  0.00    +0.147 HD
ENDBRANCH  20  24
ENDBRANCH  19  20
ENDBRANCH  18  19
ENDBRANCH   1  18
TORSDOF 5
ENDMDL
MODEL 8
REMARK VINA RESULT:      -2.3      1.457      1.884
REMARK  Name = *****
REMARK                            x       y       z     vdW  Elec       q    Type
REMARK                         _______ _______ _______ _____ _____    ______ ____
ROOT
ATOM      1  C   LIG    1       26.913 -16.515   3.647  0.00  0.00    -0.045 C 
ATOM      2  C   LIG    1       26.138 -17.693   3.627  0.00  0.00    +0.014 C 
ATOM      3  C   LIG    1       26.580 -18.843   4.320  0.00  0.00    +0.003 C 
ATOM      4  C   LIG    1       27.780 -18.752   5.026  0.00  0.00    +0.047 C 
ATOM      5  N   LIG    1       27.985 -19.963   5.633  0.00  0.00    -0.360 NA
ATOM      6  H   LIG    1       28.777 -20.184   6.220  0.00  0.00    +0.165 HD
ATOM      7  C   LIG    1       26.968 -20.821   5.327  0.00  0.00    +0.087 C 
ATOM      8  C   LIG    1       28.572 -17.601   5.057  0.00  0.00    +0.026 C 
ATOM      9  C   LIG    1       26.076 -20.188   4.480  0.00  0.00    -0.019 C 
ATOM     10  C   LIG    1       28.122 -16.486   4.349  0.00  0.00    +0.006 C 
ENDROOT
BRANCH   9  11
ATOM     11  C   LIG    1       24.825 -20.770   3.841  0.00  0.00    +0.023 C 
ATOM     12  C   LIG    1       23.925 -21.570   4.796  0.00  0.00    +0.023 C 
ATOM     13  C   LIG    1       23.033 -20.702   5.692  0.00  0.00    +0.085 C 
ATOM     14  N   LIG    1       22.320 -19.614   5.018  0.00  0.00    -0.305 NA
ATOM     15  C   LIG    1       21.055 -20.051   4.441  0.00  0.00    +0.105 C 
ATOM     16  C   LIG    1       23.158 -18.866   4.074  0.00  0.00    +0.085 C 
ATOM     17  C   LIG    1       23.972 -19.730   3.109  0.00  0.00    +0.023 C 
ENDBRANCH   9  11
BRANCH   1  18
ATOM     18  C   LIG    1       26.501 -15.310   2.835  0.00  0.00    +0.059 C 
BRANCH  18  19
ATOM     19  C   LIG    1       25.206 -14.757   3.399  0.00  0.00    +0.190 C 
BRANCH  19  20
ATOM     20  S   LIG    1       25.268 -12.990   3.582  0.00  0.00    +0.029 S 
ATOM     21  O   LIG    1       24.266 -12.379   2.744  0.00  0.00    -0.158 OA
ATOM     22  O   LIG    1       25.384 -12.661   4.990  0.00  0.00    -0.158 OA
BRANCH  20  24
ATOM     23  C   LIG    1       27.952 -12.854   3.744  0.00  0.00    +0.127 C 
ATOM     24  N   LIG    1       26.773 -12.646   2.899  0.00  0.00    -0.198 NA
ATOM     25  H   LIG    1       26.836 -13.050   1.963  0.00  0.00    +0.147 HD
ENDBRANCH  20  24
ENDBRANCH  19  20
ENDBRANCH  18  19
ENDBRANCH   1  18
TORSDOF 5
ENDMDL
MODEL 9
REMARK VINA RESULT:      -2.3      1.549      4.092
REMARK  Name = *****
REMARK                            x       y       z     vdW  Elec       q    Type
REMARK                         _______ _______ _______ _____ _____    ______ ____
ROOT
ATOM      1  C   LIG    1       24.068 -16.960   3.843  0.00  0.00    -0.045 C 
ATOM      2  C   LIG    1       24.543 -18.255   4.138  0.00  0.00    +0.014 C 
ATOM      3  C   LIG    1       23.642 -19.263   4.549  0.00  0.00    +0.003 C 
ATOM      4  C   LIG    1       22.289 -18.930   4.626  0.00  0.00    +0.047 C 
ATOM      5  N   LIG    1       21.616 -20.058   5.011  0.00  0.00    -0.360 NA
ATOM      6  H   LIG    1       20.616 -20.114   5.140  0.00  0.00    +0.165 HD
ATOM      7  C   LIG    1       22.492 -21.090   5.195  0.00  0.00    +0.087 C 
ATOM      8  C   LIG    1       21.791 -17.654   4.346  0.00  0.00    +0.026 C 
ATOM      9  C   LIG    1       23.779 -20.643   4.954  0.00  0.00    -0.019 C 
ATOM     10  C   LIG    1       22.705 -16.672   3.962  0.00  0.00    +0.006 C 
ENDROOT
BRANCH   9  11
ATOM     11  C   LIG    1       25.077 -21.425   5.086  0.00  0.00    +0.023 C 
ATOM     12  C   LIG    1       26.235 -20.901   4.222  0.00  0.00    +0.023 C 
ATOM     13  C   LIG    1       26.946 -19.673   4.803  0.00  0.00    +0.085 C 
ATOM     14  N   LIG    1       27.289 -19.750   6.225  0.00  0.00    -0.305 NA
ATOM     15  C   LIG    1       28.567 -20.409   6.455  0.00  0.00    +0.105 C 
ATOM     16  C   LIG    1       26.204 -20.285   7.057  0.00  0.00    +0.085 C 
ATOM     17  C   LIG    1       25.561 -21.569   6.531  0.00  0.00    +0.023 C 
ENDBRANCH   9  11
BRANCH   1  18
ATOM     18  C   LIG    1       25.031 -15.850   3.494  0.00  0.00    +0.059 C 
BRANCH  18  19
ATOM     19  C   LIG    1       24.569 -14.569   4.164  0.00  0.00    +0.190 C 
BRANCH  19  20
ATOM     20  S   LIG    1       25.801 -13.292   4.064  0.00  0.00    +0.029 S 
ATOM     21  O   LIG    1       26.651 -13.345   5.228  0.00  0.00    -0.158 OA
ATOM     22  O   LIG    1       26.352 -13.265   2.722  0.00  0.00    -0.158 OA
BRANCH  20  24
ATOM     23  C   LIG    1       23.877 -11.655   3.131  0.00  0.00    +0.127 C 
ATOM     24  N   LIG    1       24.846 -11.907   4.202  0.00  0.00    -0.198 NA
ATOM     25  H   LIG    1       24.471 -11.831   5.149  0.00  0.00    +0.147 HD
ENDBRANCH  20  24
ENDBRANCH  19  20
ENDBRANCH  18  19
ENDBRANCH   1  18
TORSDOF 5
ENDMDL
