MODEL 1
REMARK VINA RESULT:      -4.6      0.000      0.000
REMARK  Name = *****
REMARK                            x       y       z     vdW  Elec       q    Type
REMARK                         _______ _______ _______ _____ _____    ______ ____
ROOT
ATOM      1  N   LIG    1       24.661 -20.106   5.002  0.00  0.00    -0.225 N 
ATOM      2  C   LIG    1       25.768 -19.517   4.448  0.00  0.00    +0.248 C 
ATOM      3  O   LIG    1       26.926 -19.673   4.813  0.00  0.00    -0.273 OA
ATOM      4  C   LIG    1       25.308 -18.618   3.295  0.00  0.00    +0.191 C 
ATOM      5  N   LIG    1       23.895 -18.889   3.307  0.00  0.00    -0.284 N 
ATOM      6  H   LIG    1       23.206 -18.436   2.722  0.00  0.00    +0.151 HD
ATOM      7  C   LIG    1       23.533 -19.705   4.352  0.00  0.00    +0.309 C 
ATOM      8  O   LIG    1       22.377 -19.982   4.626  0.00  0.00    -0.252 OA
ENDROOT
BRANCH   4   9
ATOM      9  C   LIG    1       25.632 -17.159   3.509  0.00  0.00    -0.018 A 
ATOM     10  C   LIG    1       24.589 -16.235   3.680  0.00  0.00    +0.006 A 
ATOM     11  C   LIG    1       24.862 -14.878   3.863  0.00  0.00    +0.000 A 
ATOM     12  C   LIG    1       26.178 -14.424   3.871  0.00  0.00    +0.000 A 
ATOM     13  C   LIG    1       27.224 -15.324   3.687  0.00  0.00    +0.000 A 
ATOM     14  C   LIG    1       26.953 -16.681   3.502  0.00  0.00    +0.006 A 
ENDBRANCH   4   9
BRANCH   1  16
ATOM     15  C   LIG    1       23.474 -20.731   7.062  0.00  0.00    +0.025 C 
ATOM     16  C   LIG    1       24.681 -20.965   6.167  0.00  0.00    +0.114 C 
ENDBRANCH   1  16
TORSDOF 2
ENDMDL
MODEL 2
REMARK VINA RESULT:      -4.5      1.562      2.358
REMARK  Name = *****
REMARK                            x       y       z     vdW  Elec       q    Type
REMARK                         _______ _______ _______ _____ _____    ______ ____
ROOT
ATOM      1  N   LIG    1       24.432 -20.647   5.280  0.00  0.00    -0.225 N 
ATOM      2  C   LIG    1       24.517 -19.937   4.110  0.00  0.00    +0.248 C 
ATOM      3  O   LIG    1       25.418 -20.012   3.285  0.00  0.00    -0.273 OA
ATOM      4  C   LIG    1       23.293 -19.019   4.015  0.00  0.00    +0.191 C 
ATOM      5  N   LIG    1       22.586 -19.410   5.206  0.00  0.00    -0.284 N 
ATOM      6  H   LIG    1       21.734 -18.987   5.548  0.00  0.00    +0.151 HD
ATOM      7  C   LIG    1       23.301 -20.310   5.960  0.00  0.00    +0.309 C 
ATOM      8  O   LIG    1       22.951 -20.699   7.062  0.00  0.00    -0.252 OA
ENDROOT
BRANCH   4   9
ATOM      9  C   LIG    1       23.647 -17.551   3.993  0.00  0.00    -0.018 A 
ATOM     10  C   LIG    1       24.939 -17.156   3.612  0.00  0.00    +0.006 A 
ATOM     11  C   LIG    1       25.296 -15.806   3.599  0.00  0.00    +0.000 A 
ATOM     12  C   LIG    1       24.371 -14.833   3.972  0.00  0.00    +0.000 A 
ATOM     13  C   LIG    1       23.091 -15.210   4.368  0.00  0.00    +0.000 A 
ATOM     14  C   LIG    1       22.732 -16.559   4.384  0.00  0.00    +0.006 A 
ENDBRANCH   4   9
BRANCH   1  16
ATOM     15  C   LIG    1       26.463 -20.863   6.648  0.00  0.00    +0.025 C 
ATOM     16  C   LIG    1       25.443 -21.563   5.763  0.00  0.00    +0.114 C 
ENDBRANCH   1  16
TORSDOF 2
ENDMDL
MODEL 3
REMARK VINA RESULT:      -4.3      1.804      5.351
REMARK  Name = *****
REMARK                            x       y       z     vdW  Elec       q    Type
REMARK                         _______ _______ _______ _____ _____    ______ ____
ROOT
ATOM      1  N   LIG    1       24.446 -16.383   3.899  0.00  0.00    -0.225 N 
ATOM      2  C   LIG    1       23.523 -17.384   4.065  0.00  0.00    +0.248 C 
ATOM      3  O   LIG    1       22.374 -17.247   4.466  0.00  0.00    -0.273 OA
ATOM      4  C   LIG    1       24.179 -18.712   3.672  0.00  0.00    +0.191 C 
ATOM      5  N   LIG    1       25.469 -18.242   3.237  0.00  0.00    -0.284 N 
ATOM      6  H   LIG    1       26.239 -18.829   2.948  0.00  0.00    +0.151 HD
ATOM      7  C   LIG    1       25.623 -16.892   3.443  0.00  0.00    +0.309 C 
ATOM      8  O   LIG    1       26.669 -16.294   3.252  0.00  0.00    -0.252 OA
ENDROOT
BRANCH   4   9
ATOM      9  C   LIG    1       24.262 -19.698   4.812  0.00  0.00    -0.018 A 
ATOM     10  C   LIG    1       25.501 -20.268   5.146  0.00  0.00    +0.006 A 
ATOM     11  C   LIG    1       25.602 -21.195   6.186  0.00  0.00    +0.000 A 
ATOM     12  C   LIG    1       24.467 -21.571   6.901  0.00  0.00    +0.000 A 
ATOM     13  C   LIG    1       23.228 -21.027   6.572  0.00  0.00    +0.000 A 
ATOM     14  C   LIG    1       23.125 -20.101   5.532  0.00  0.00    +0.006 A 
ENDBRANCH   4   9
BRANCH   1  16
ATOM     15  C   LIG    1       24.502 -14.072   3.064  0.00  0.00    +0.025 C 
ATOM     16  C   LIG    1       24.224 -14.994   4.241  0.00  0.00    +0.114 C 
ENDBRANCH   1  16
TORSDOF 2
ENDMDL
MODEL 4
REMARK VINA RESULT:      -3.9      2.039      5.319
REMARK  Name = *****
REMARK                            x       y       z     vdW  Elec       q    Type
REMARK                         _______ _______ _______ _____ _____    ______ ____
ROOT
ATOM      1  N   LIG    1       27.355 -17.577   4.185  0.00  0.00    -0.225 N 
ATOM      2  C   LIG    1       26.254 -18.229   3.694  0.00  0.00    +0.248 C 
ATOM      3  O   LIG    1       25.356 -17.729   3.028  0.00  0.00    -0.273 OA
ATOM      4  C   LIG    1       26.331 -19.696   4.130  0.00  0.00    +0.191 C 
ATOM      5  N   LIG    1       27.600 -19.696   4.809  0.00  0.00    -0.284 N 
ATOM      6  H   LIG    1       28.000 -20.481   5.304  0.00  0.00    +0.151 HD
ATOM      7  C   LIG    1       28.144 -18.437   4.887  0.00  0.00    +0.309 C 
ATOM      8  O   LIG    1       29.160 -18.175   5.509  0.00  0.00    -0.252 OA
ENDROOT
BRANCH   4   9
ATOM      9  C   LIG    1       25.185 -20.117   5.019  0.00  0.00    -0.018 A 
ATOM     10  C   LIG    1       25.452 -20.774   6.229  0.00  0.00    +0.006 A 
ATOM     11  C   LIG    1       24.410 -21.188   7.062  0.00  0.00    +0.000 A 
ATOM     12  C   LIG    1       23.087 -20.957   6.693  0.00  0.00    +0.000 A 
ATOM     13  C   LIG    1       22.803 -20.321   5.487  0.00  0.00    +0.000 A 
ATOM     14  C   LIG    1       23.844 -19.909   4.654  0.00  0.00    +0.006 A 
ENDBRANCH   4   9
BRANCH   1  16
ATOM     15  C   LIG    1       26.448 -15.450   3.350  0.00  0.00    +0.025 C 
ATOM     16  C   LIG    1       27.599 -16.156   4.049  0.00  0.00    +0.114 C 
ENDBRANCH   1  16
TORSDOF 2
ENDMDL
MODEL 5
REMARK VINA RESULT:      -3.8      1.378      1.573
REMARK  Name = *****
REMARK                            x       y       z     vdW  Elec       q    Type
REMARK                         _______ _______ _______ _____ _____    ______ ____
ROOT
ATOM      1  N   LIG    1       26.433 -19.603   4.835  0.00  0.00    -0.225 N 
ATOM      2  C   LIG    1       27.177 -18.549   4.371  0.00  0.00    +0.248 C 
ATOM      3  O   LIG    1       28.278 -18.206   4.784  0.00  0.00    -0.273 OA
ATOM      4  C   LIG    1       26.389 -17.861   3.251  0.00  0.00    +0.191 C 
ATOM      5  N   LIG    1       25.241 -18.725   3.177  0.00  0.00    -0.284 N 
ATOM      6  H   LIG    1       24.434 -18.580   2.585  0.00  0.00    +0.151 HD
ATOM      7  C   LIG    1       25.257 -19.691   4.154  0.00  0.00    +0.309 C 
ATOM      8  O   LIG    1       24.338 -20.468   4.354  0.00  0.00    -0.252 OA
ENDROOT
BRANCH   4   9
ATOM      9  C   LIG    1       26.032 -16.428   3.565  0.00  0.00    -0.018 A 
ATOM     10  C   LIG    1       24.689 -16.081   3.782  0.00  0.00    +0.006 A 
ATOM     11  C   LIG    1       24.330 -14.760   4.058  0.00  0.00    +0.000 A 
ATOM     12  C   LIG    1       25.305 -13.766   4.112  0.00  0.00    +0.000 A 
ATOM     13  C   LIG    1       26.639 -14.091   3.883  0.00  0.00    +0.000 A 
ATOM     14  C   LIG    1       27.000 -15.411   3.606  0.00  0.00    +0.006 A 
ENDBRANCH   4   9
BRANCH   1  16
ATOM     15  C   LIG    1       25.763 -20.427   7.052  0.00  0.00    +0.025 C 
ATOM     16  C   LIG    1       26.809 -20.449   5.948  0.00  0.00    +0.114 C 
ENDBRANCH   1  16
TORSDOF 2
ENDMDL
MODEL 6
REMARK VINA RESULT:      -3.5      2.066      4.821
REMARK  Name = *****
REMARK                            x       y       z     vdW  Elec       q    Type
REMARK                         _______ _______ _______ _____ _____    ______ ____
ROOT
ATOM      1  N   LIG    1       24.220 -17.541   3.841  0.00  0.00    -0.225 N 
ATOM      2  C   LIG    1       24.232 -18.897   4.048  0.00  0.00    +0.248 C 
ATOM      3  O   LIG    1       23.292 -19.575   4.440  0.00  0.00    -0.273 OA
ATOM      4  C   LIG    1       25.633 -19.420   3.713  0.00  0.00    +0.191 C 
ATOM      5  N   LIG    1       26.260 -18.206   3.262  0.00  0.00    -0.284 N 
ATOM      6  H   LIG    1       27.232 -18.110   2.999  0.00  0.00    +0.151 HD
ATOM      7  C   LIG    1       25.439 -17.114   3.410  0.00  0.00    +0.309 C 
ATOM      8  O   LIG    1       25.792 -15.967   3.196  0.00  0.00    -0.252 OA
ENDROOT
BRANCH   4   9
ATOM      9  C   LIG    1       26.336 -20.045   4.895  0.00  0.00    -0.018 A 
ATOM     10  C   LIG    1       27.678 -19.723   5.152  0.00  0.00    +0.006 A 
ATOM     11  C   LIG    1       28.355 -20.299   6.229  0.00  0.00    +0.000 A 
ATOM     12  C   LIG    1       27.705 -21.209   7.059  0.00  0.00    +0.000 A 
ATOM     13  C   LIG    1       26.379 -21.552   6.808  0.00  0.00    +0.000 A 
ATOM     14  C   LIG    1       25.701 -20.978   5.731  0.00  0.00    +0.006 A 
ENDBRANCH   4   9
BRANCH   1  16
ATOM     15  C   LIG    1       23.540 -15.265   4.473  0.00  0.00    +0.025 C 
ATOM     16  C   LIG    1       23.094 -16.676   4.123  0.00  0.00    +0.114 C 
ENDBRANCH   1  16
TORSDOF 2
ENDMDL
MODEL 7
REMARK VINA RESULT:      -3.4      2.671      5.528
REMARK  Name = *****
REMARK                            x       y       z     vdW  Elec       q    Type
REMARK                         _______ _______ _______ _____ _____    ______ ____
ROOT
ATOM      1  N   LIG    1       25.621 -14.518   4.317  0.00  0.00    -0.225 N 
ATOM      2  C   LIG    1       24.568 -15.280   3.879  0.00  0.00    +0.248 C 
ATOM      3  O   LIG    1       23.383 -15.064   4.094  0.00  0.00    -0.273 OA
ATOM      4  C   LIG    1       25.131 -16.461   3.081  0.00  0.00    +0.191 C 
ATOM      5  N   LIG    1       26.535 -16.151   3.118  0.00  0.00    -0.284 N 
ATOM      6  H   LIG    1       27.275 -16.732   2.746  0.00  0.00    +0.151 HD
ATOM      7  C   LIG    1       26.802 -15.053   3.901  0.00  0.00    +0.309 C 
ATOM      8  O   LIG    1       27.928 -14.668   4.167  0.00  0.00    -0.252 OA
ENDROOT
BRANCH   4   9
ATOM      9  C   LIG    1       24.805 -17.804   3.691  0.00  0.00    -0.018 A 
ATOM     10  C   LIG    1       25.832 -18.737   3.901  0.00  0.00    +0.006 A 
ATOM     11  C   LIG    1       25.556 -19.991   4.448  0.00  0.00    +0.000 A 
ATOM     12  C   LIG    1       24.249 -20.334   4.786  0.00  0.00    +0.000 A 
ATOM     13  C   LIG    1       23.215 -19.427   4.570  0.00  0.00    +0.000 A 
ATOM     14  C   LIG    1       23.490 -18.173   4.021  0.00  0.00    +0.006 A 
ENDBRANCH   4   9
BRANCH   1  16
ATOM     15  C   LIG    1       24.522 -12.337   4.601  0.00  0.00    +0.025 C 
ATOM     16  C   LIG    1       25.496 -13.356   5.172  0.00  0.00    +0.114 C 
ENDBRANCH   1  16
TORSDOF 2
ENDMDL
MODEL 8
REMARK VINA RESULT:      -3.3      2.918      4.337
REMARK  Name = *****
REMARK                            x       y       z     vdW  Elec       q    Type
REMARK                         _______ _______ _______ _____ _____    ______ ____
ROOT
ATOM      1  N   LIG    1       27.243 -19.823   5.508  0.00  0.00    -0.225 N 
ATOM      2  C   LIG    1       26.550 -19.443   4.388  0.00  0.00    +0.248 C 
ATOM      3  O   LIG    1       26.783 -18.461   3.695  0.00  0.00    -0.273 OA
ATOM      4  C   LIG    1       25.422 -20.453   4.155  0.00  0.00    +0.191 C 
ATOM      5  N   LIG    1       25.687 -21.384   5.221  0.00  0.00    -0.284 N 
ATOM      6  H   LIG    1       25.118 -22.186   5.454  0.00  0.00    +0.151 HD
ATOM      7  C   LIG    1       26.710 -20.960   6.035  0.00  0.00    +0.309 C 
ATOM      8  O   LIG    1       27.038 -21.530   7.062  0.00  0.00    -0.252 OA
ENDROOT
BRANCH   4   9
ATOM      9  C   LIG    1       24.044 -19.840   4.235  0.00  0.00    -0.018 A 
ATOM     10  C   LIG    1       23.875 -18.477   3.947  0.00  0.00    +0.006 A 
ATOM     11  C   LIG    1       22.614 -17.882   4.028  0.00  0.00    +0.000 A 
ATOM     12  C   LIG    1       21.507 -18.638   4.406  0.00  0.00    +0.000 A 
ATOM     13  C   LIG    1       21.660 -19.988   4.711  0.00  0.00    +0.000 A 
ATOM     14  C   LIG    1       22.920 -20.584   4.631  0.00  0.00    +0.006 A 
ENDBRANCH   4   9
BRANCH   1  16
ATOM     15  C   LIG    1       29.462 -19.987   6.553  0.00  0.00    +0.025 C 
ATOM     16  C   LIG    1       28.335 -19.075   6.095  0.00  0.00    +0.114 C 
ENDBRANCH   1  16
TORSDOF 2
ENDMDL
MODEL 9
REMARK VINA RESULT:      -3.1      2.260      5.218
REMARK  Name = *****
REMARK                            x       y       z     vdW  Elec       q    Type
REMARK                         _______ _______ _______ _____ _____    ______ ____
ROOT
ATOM      1  N   LIG    1       27.173 -16.357   4.019  0.00  0.00    -0.225 N 
ATOM      2  C   LIG    1       26.017 -16.674   3.354  0.00  0.00    +0.248 C 
ATOM      3  O   LIG    1       25.195 -15.879   2.918  0.00  0.00    -0.273 OA
ATOM      4  C   LIG    1       25.921 -18.201   3.259  0.00  0.00    +0.191 C 
ATOM      5  N   LIG    1       27.168 -18.575   3.873  0.00  0.00    -0.284 N 
ATOM      6  H   LIG    1       27.468 -19.522   4.062  0.00  0.00    +0.151 HD
ATOM      7  C   LIG    1       27.848 -17.487   4.367  0.00  0.00    +0.309 C 
ATOM      8  O   LIG    1       28.874 -17.571   5.022  0.00  0.00    -0.252 OA
ENDROOT
BRANCH   4   9
ATOM      9  C   LIG    1       24.717 -18.769   3.972  0.00  0.00    -0.018 A 
ATOM     10  C   LIG    1       24.862 -19.915   4.770  0.00  0.00    +0.006 A 
ATOM     11  C   LIG    1       23.762 -20.470   5.427  0.00  0.00    +0.000 A 
ATOM     12  C   LIG    1       22.501 -19.894   5.290  0.00  0.00    +0.000 A 
ATOM     13  C   LIG    1       22.337 -18.767   4.489  0.00  0.00    +0.000 A 
ATOM     14  C   LIG    1       23.436 -18.212   3.831  0.00  0.00    +0.006 A 
ENDBRANCH   4   9
BRANCH   1  16
ATOM     15  C   LIG    1       27.597 -14.092   3.163  0.00  0.00    +0.025 C 
ATOM     16  C   LIG    1       27.577 -15.013   4.373  0.00  0.00    +0.114 C 
ENDBRANCH   1  16
TORSDOF 2
ENDMDL
