MODEL 1
REMARK VINA RESULT:      -3.8      0.000      0.000
REMARK  Name = *****
REMARK                            x       y       z     vdW  Elec       q    Type
REMARK                         _______ _______ _______ _____ _____    ______ ____
ROOT
ATOM      1  C   LIG    1       27.736 -16.740   3.693  0.00  0.00    +0.039 C 
ENDROOT
BRANCH   1   7
ATOM      2  C   LIG    1       24.748 -13.389   3.497  0.00  0.00    +0.213 C 
ATOM      3  C   LIG    1       26.200 -13.150   3.121  0.00  0.00    +0.227 C 
ATOM      4  O   LIG    1       26.561 -12.104   2.583  0.00  0.00    -0.284 OA
ATOM      5  C   LIG    1       27.197 -14.217   3.448  0.00  0.00    +0.007 C 
ATOM      6  C   LIG    1       28.582 -13.681   3.649  0.00  0.00    +0.048 C 
ATOM      7  C   LIG    1       26.821 -15.504   3.550  0.00  0.00    +0.010 C 
ATOM      8  C   LIG    1       25.356 -15.773   3.498  0.00  0.00    +0.228 C 
ATOM      9  O   LIG    1       24.987 -16.917   3.364  0.00  0.00    -0.284 OA
ATOM     10  C   LIG    1       24.358 -14.653   3.686  0.00  0.00    +0.213 C 
BRANCH   2  12
ATOM     11  C   LIG    1       23.658 -11.674   4.880  0.00  0.00    +0.277 C 
ATOM     12  O   LIG    1       24.049 -12.201   3.620  0.00  0.00    -0.488 OA
ENDBRANCH   2  12
BRANCH  10  13
ATOM     13  O   LIG    1       23.050 -14.946   4.050  0.00  0.00    -0.488 OA
ATOM     14  C   LIG    1       22.767 -15.266   5.398  0.00  0.00    +0.277 C 
ENDBRANCH  10  13
ENDBRANCH   1   7
BRANCH   1  15
ATOM     15  C   LIG    1       28.340 -17.005   5.099  0.00  0.00    +0.005 C 
BRANCH  15  16
ATOM     16  C   LIG    1       29.260 -18.216   5.304  0.00  0.00    +0.000 C 
BRANCH  16  17
ATOM     17  C   LIG    1       29.340 -18.826   6.708  0.00  0.00    +0.000 C 
BRANCH  17  18
ATOM     18  C   LIG    1       29.415 -20.360   6.706  0.00  0.00    -0.000 C 
BRANCH  18  19
ATOM     19  C   LIG    1       28.111 -21.135   7.041  0.00  0.00    -0.000 C 
BRANCH  19  20
ATOM     20  C   LIG    1       26.786 -20.475   6.589  0.00  0.00    -0.000 C 
BRANCH  20  21
ATOM     21  C   LIG    1       26.596 -20.371   5.044  0.00  0.00    -0.000 C 
BRANCH  21  22
ATOM     22  C   LIG    1       25.145 -19.997   4.645  0.00  0.00    +0.000 C 
BRANCH  22  23
ATOM     23  C   LIG    1       24.025 -20.935   5.155  0.00  0.00    +0.002 C 
BRANCH  23  24
ATOM     24  C   LIG    1       22.670 -20.311   5.523  0.00  0.00    +0.028 C 
BRANCH  24  25
ATOM     25  C   LIG    1       22.494 -18.862   5.082  0.00  0.00    +0.156 C 
BRANCH  25  26
ATOM     26  O   LIG    1       21.619 -18.783   3.971  0.00  0.00    -0.395 OA
ATOM     27  H   LIG    1       20.743 -18.528   4.303  0.00  0.00    +0.209 HD
ENDBRANCH  25  26
ENDBRANCH  24  25
ENDBRANCH  23  24
ENDBRANCH  22  23
ENDBRANCH  21  22
ENDBRANCH  20  21
ENDBRANCH  19  20
ENDBRANCH  18  19
ENDBRANCH  17  18
ENDBRANCH  16  17
ENDBRANCH  15  16
ENDBRANCH   1  15
TORSDOF 15
ENDMDL
MODEL 2
REMARK VINA RESULT:      -3.7      1.675      4.382
REMARK  Name = *****
REMARK                            x       y       z     vdW  Elec       q    Type
REMARK                         _______ _______ _______ _____ _____    ______ ____
ROOT
ATOM      1  C   LIG    1       25.754 -17.582   3.043  0.00  0.00    +0.039 C 
ENDROOT
BRANCH   1   7
ATOM      2  C   LIG    1       25.121 -13.350   4.415  0.00  0.00    +0.213 C 
ATOM      3  C   LIG    1       24.074 -14.415   4.690  0.00  0.00    +0.227 C 
ATOM      4  O   LIG    1       23.125 -14.203   5.444  0.00  0.00    -0.284 OA
ATOM      5  C   LIG    1       24.209 -15.733   3.995  0.00  0.00    +0.007 C 
ATOM      6  C   LIG    1       22.896 -16.429   3.801  0.00  0.00    +0.048 C 
ATOM      7  C   LIG    1       25.412 -16.182   3.598  0.00  0.00    +0.010 C 
ATOM      8  C   LIG    1       26.551 -15.230   3.726  0.00  0.00    +0.228 C 
ATOM      9  O   LIG    1       27.675 -15.657   3.592  0.00  0.00    -0.284 OA
ATOM     10  C   LIG    1       26.304 -13.754   3.942  0.00  0.00    +0.213 C 
BRANCH   2  12
ATOM     11  C   LIG    1       23.659 -11.451   3.869  0.00  0.00    +0.277 C 
ATOM     12  O   LIG    1       24.641 -12.079   4.680  0.00  0.00    -0.488 OA
ENDBRANCH   2  12
BRANCH  10  13
ATOM     13  O   LIG    1       27.303 -12.835   3.649  0.00  0.00    -0.488 OA
ATOM     14  C   LIG    1       28.344 -12.630   4.584  0.00  0.00    +0.277 C 
ENDBRANCH  10  13
ENDBRANCH   1   7
BRANCH   1  15
ATOM     15  C   LIG    1       25.487 -18.792   3.979  0.00  0.00    +0.005 C 
BRANCH  15  16
ATOM     16  C   LIG    1       24.961 -20.103   3.379  0.00  0.00    +0.000 C 
BRANCH  16  17
ATOM     17  C   LIG    1       23.728 -20.744   4.025  0.00  0.00    +0.000 C 
BRANCH  17  18
ATOM     18  C   LIG    1       22.927 -19.776   4.907  0.00  0.00    -0.000 C 
BRANCH  18  19
ATOM     19  C   LIG    1       23.242 -19.777   6.429  0.00  0.00    -0.000 C 
BRANCH  19  20
ATOM     20  C   LIG    1       23.563 -21.152   7.062  0.00  0.00    -0.000 C 
BRANCH  20  21
ATOM     21  C   LIG    1       25.065 -21.571   7.000  0.00  0.00    -0.000 C 
BRANCH  21  22
ATOM     22  C   LIG    1       26.010 -20.368   6.747  0.00  0.00    +0.000 C 
BRANCH  22  23
ATOM     23  C   LIG    1       27.512 -20.597   7.041  0.00  0.00    +0.002 C 
BRANCH  23  24
ATOM     24  C   LIG    1       28.529 -20.216   5.952  0.00  0.00    +0.028 C 
BRANCH  24  25
ATOM     25  C   LIG    1       29.265 -18.903   6.199  0.00  0.00    +0.156 C 
BRANCH  25  26
ATOM     26  O   LIG    1       28.728 -17.873   5.388  0.00  0.00    -0.395 OA
ATOM     27  H   LIG    1       29.386 -17.160   5.346  0.00  0.00    +0.209 HD
ENDBRANCH  25  26
ENDBRANCH  24  25
ENDBRANCH  23  24
ENDBRANCH  22  23
ENDBRANCH  21  22
ENDBRANCH  20  21
ENDBRANCH  19  20
ENDBRANCH  18  19
ENDBRANCH  17  18
ENDBRANCH  16  17
ENDBRANCH  15  16
ENDBRANCH   1  15
TORSDOF 15
ENDMDL
MODEL 3
REMARK VINA RESULT:      -3.5      2.248      7.863
REMARK  Name = *****
REMARK                            x       y       z     vdW  Elec       q    Type
REMARK                         _______ _______ _______ _____ _____    ______ ____
ROOT
ATOM      1  C   LIG    1       23.420 -18.298   3.566  0.00  0.00    +0.039 C 
ENDROOT
BRANCH   1   7
ATOM      2  C   LIG    1       26.603 -20.269   6.049  0.00  0.00    +0.213 C 
ATOM      3  C   LIG    1       25.140 -20.621   6.251  0.00  0.00    +0.227 C 
ATOM      4  O   LIG    1       24.799 -21.572   6.954  0.00  0.00    -0.284 OA
ATOM      5  C   LIG    1       24.111 -19.759   5.590  0.00  0.00    +0.007 C 
ATOM      6  C   LIG    1       22.800 -19.753   6.317  0.00  0.00    +0.048 C 
ATOM      7  C   LIG    1       24.400 -19.075   4.470  0.00  0.00    +0.010 C 
ATOM      8  C   LIG    1       25.826 -19.084   4.038  0.00  0.00    +0.228 C 
ATOM      9  O   LIG    1       26.094 -18.674   2.931  0.00  0.00    -0.284 OA
ATOM     10  C   LIG    1       26.919 -19.521   4.987  0.00  0.00    +0.213 C 
BRANCH   2  12
ATOM     11  C   LIG    1       28.788 -21.014   6.894  0.00  0.00    +0.277 C 
ATOM     12  O   LIG    1       27.397 -20.778   7.062  0.00  0.00    -0.488 OA
ENDBRANCH   2  12
BRANCH  10  13
ATOM     13  O   LIG    1       28.234 -19.145   4.748  0.00  0.00    -0.488 OA
ATOM     14  C   LIG    1       28.667 -17.862   5.158  0.00  0.00    +0.277 C 
ENDBRANCH  10  13
ENDBRANCH   1   7
BRANCH   1  15
ATOM     15  C   LIG    1       22.201 -17.633   4.262  0.00  0.00    +0.005 C 
BRANCH  15  16
ATOM     16  C   LIG    1       22.364 -16.243   4.893  0.00  0.00    +0.000 C 
BRANCH  16  17
ATOM     17  C   LIG    1       23.073 -15.161   4.070  0.00  0.00    +0.000 C 
BRANCH  17  18
ATOM     18  C   LIG    1       23.849 -14.151   4.927  0.00  0.00    -0.000 C 
BRANCH  18  19
ATOM     19  C   LIG    1       24.111 -12.750   4.308  0.00  0.00    -0.000 C 
BRANCH  19  20
ATOM     20  C   LIG    1       23.812 -12.600   2.797  0.00  0.00    -0.000 C 
BRANCH  20  21
ATOM     21  C   LIG    1       25.007 -12.938   1.853  0.00  0.00    -0.000 C 
BRANCH  21  22
ATOM     22  C   LIG    1       26.372 -12.493   2.435  0.00  0.00    +0.000 C 
BRANCH  22  23
ATOM     23  C   LIG    1       27.391 -13.617   2.742  0.00  0.00    +0.002 C 
BRANCH  23  24
ATOM     24  C   LIG    1       28.537 -13.308   3.719  0.00  0.00    +0.028 C 
BRANCH  24  25
ATOM     25  C   LIG    1       28.089 -12.913   5.123  0.00  0.00    +0.156 C 
BRANCH  25  26
ATOM     26  O   LIG    1       28.983 -11.967   5.683  0.00  0.00    -0.395 OA
ATOM     27  H   LIG    1       29.144 -12.225   6.605  0.00  0.00    +0.209 HD
ENDBRANCH  25  26
ENDBRANCH  24  25
ENDBRANCH  23  24
ENDBRANCH  22  23
ENDBRANCH  21  22
ENDBRANCH  20  21
ENDBRANCH  19  20
ENDBRANCH  18  19
ENDBRANCH  17  18
ENDBRANCH  16  17
ENDBRANCH  15  16
ENDBRANCH   1  15
TORSDOF 15
ENDMDL
MODEL 4
REMARK VINA RESULT:      -2.7      2.151      7.533
REMARK  Name = *****
REMARK                            x       y       z     vdW  Elec       q    Type
REMARK                         _______ _______ _______ _____ _____    ______ ____
ROOT
ATOM      1  C   LIG    1       23.383 -18.354   3.659  0.00  0.00    +0.039 C 
ENDROOT
BRANCH   1   7
ATOM      2  C   LIG    1       26.883 -20.003   5.943  0.00  0.00    +0.213 C 
ATOM      3  C   LIG    1       25.487 -20.553   6.171  0.00  0.00    +0.227 C 
ATOM      4  O   LIG    1       25.298 -21.572   6.834  0.00  0.00    -0.284 OA
ATOM      5  C   LIG    1       24.331 -19.804   5.586  0.00  0.00    +0.007 C 
ATOM      6  C   LIG    1       23.058 -20.004   6.350  0.00  0.00    +0.048 C 
ATOM      7  C   LIG    1       24.488 -19.037   4.493  0.00  0.00    +0.010 C 
ATOM      8  C   LIG    1       25.887 -18.838   4.019  0.00  0.00    +0.228 C 
ATOM      9  O   LIG    1       26.058 -18.345   2.928  0.00  0.00    -0.284 OA
ATOM     10  C   LIG    1       27.061 -19.171   4.912  0.00  0.00    +0.213 C 
BRANCH   2  12
ATOM     11  C   LIG    1       29.129 -20.750   6.608  0.00  0.00    +0.277 C 
ATOM     12  O   LIG    1       27.773 -20.449   6.905  0.00  0.00    -0.488 OA
ENDBRANCH   2  12
BRANCH  10  13
ATOM     13  O   LIG    1       28.306 -18.614   4.654  0.00  0.00    -0.488 OA
ATOM     14  C   LIG    1       28.468 -17.213   4.760  0.00  0.00    +0.277 C 
ENDBRANCH  10  13
ENDBRANCH   1   7
BRANCH   1  15
ATOM     15  C   LIG    1       22.165 -17.788   4.440  0.00  0.00    +0.005 C 
BRANCH  15  16
ATOM     16  C   LIG    1       22.075 -16.277   4.696  0.00  0.00    +0.000 C 
BRANCH  16  17
ATOM     17  C   LIG    1       23.350 -15.443   4.524  0.00  0.00    +0.000 C 
BRANCH  17  18
ATOM     18  C   LIG    1       23.310 -14.507   3.308  0.00  0.00    -0.000 C 
BRANCH  18  19
ATOM     19  C   LIG    1       24.124 -13.187   3.403  0.00  0.00    -0.000 C 
BRANCH  19  20
ATOM     20  C   LIG    1       23.901 -12.332   4.673  0.00  0.00    -0.000 C 
BRANCH  20  21
ATOM     21  C   LIG    1       25.129 -12.245   5.632  0.00  0.00    -0.000 C 
BRANCH  21  22
ATOM     22  C   LIG    1       26.155 -13.382   5.392  0.00  0.00    +0.000 C 
BRANCH  22  23
ATOM     23  C   LIG    1       27.526 -12.962   4.809  0.00  0.00    +0.002 C 
BRANCH  23  24
ATOM     24  C   LIG    1       28.127 -13.819   3.683  0.00  0.00    +0.028 C 
BRANCH  24  25
ATOM     25  C   LIG    1       27.204 -14.044   2.490  0.00  0.00    +0.156 C 
BRANCH  25  26
ATOM     26  O   LIG    1       26.579 -15.313   2.576  0.00  0.00    -0.395 OA
ATOM     27  H   LIG    1       27.258 -15.958   2.832  0.00  0.00    +0.209 HD
ENDBRANCH  25  26
ENDBRANCH  24  25
ENDBRANCH  23  24
ENDBRANCH  22  23
ENDBRANCH  21  22
ENDBRANCH  20  21
ENDBRANCH  19  20
ENDBRANCH  18  19
ENDBRANCH  17  18
ENDBRANCH  16  17
ENDBRANCH  15  16
ENDBRANCH   1  15
TORSDOF 15
ENDMDL
MODEL 5
REMARK VINA RESULT:      -2.1      1.649      2.997
REMARK  Name = *****
REMARK                            x       y       z     vdW  Elec       q    Type
REMARK                         _______ _______ _______ _____ _____    ______ ____
ROOT
ATOM      1  C   LIG    1       24.892 -16.940   3.445  0.00  0.00    +0.039 C 
ENDROOT
BRANCH   1   7
ATOM      2  C   LIG    1       26.950 -13.152   4.712  0.00  0.00    +0.213 C 
ATOM      3  C   LIG    1       27.745 -14.296   4.109  0.00  0.00    +0.227 C 
ATOM      4  O   LIG    1       28.923 -14.158   3.781  0.00  0.00    -0.284 OA
ATOM      5  C   LIG    1       27.064 -15.619   3.946  0.00  0.00    +0.007 C 
ATOM      6  C   LIG    1       28.016 -16.775   3.977  0.00  0.00    +0.048 C 
ATOM      7  C   LIG    1       25.729 -15.694   3.805  0.00  0.00    +0.010 C 
ATOM      8  C   LIG    1       24.970 -14.426   3.999  0.00  0.00    +0.228 C 
ATOM      9  O   LIG    1       23.807 -14.397   3.669  0.00  0.00    -0.284 OA
ATOM     10  C   LIG    1       25.617 -13.231   4.662  0.00  0.00    +0.213 C 
BRANCH   2  12
ATOM     11  C   LIG    1       28.987 -11.778   4.648  0.00  0.00    +0.277 C 
ATOM     12  O   LIG    1       27.777 -12.191   5.267  0.00  0.00    -0.488 OA
ENDBRANCH   2  12
BRANCH  10  13
ATOM     13  O   LIG    1       24.825 -12.231   5.210  0.00  0.00    -0.488 OA
ATOM     14  C   LIG    1       23.904 -11.550   4.379  0.00  0.00    +0.277 C 
ENDBRANCH  10  13
ENDBRANCH   1   7
BRANCH   1  15
ATOM     15  C   LIG    1       25.666 -18.274   3.263  0.00  0.00    +0.005 C 
BRANCH  15  16
ATOM     16  C   LIG    1       25.024 -19.585   3.741  0.00  0.00    +0.000 C 
BRANCH  16  17
ATOM     17  C   LIG    1       25.937 -20.640   4.375  0.00  0.00    +0.000 C 
BRANCH  17  18
ATOM     18  C   LIG    1       26.754 -20.109   5.562  0.00  0.00    -0.000 C 
BRANCH  18  19
ATOM     19  C   LIG    1       26.403 -20.665   6.970  0.00  0.00    -0.000 C 
BRANCH  19  20
ATOM     20  C   LIG    1       25.140 -21.555   7.061  0.00  0.00    -0.000 C 
BRANCH  20  21
ATOM     21  C   LIG    1       23.787 -20.779   7.062  0.00  0.00    -0.000 C 
BRANCH  21  22
ATOM     22  C   LIG    1       22.735 -21.413   6.115  0.00  0.00    +0.000 C 
BRANCH  22  23
ATOM     23  C   LIG    1       22.275 -20.548   4.917  0.00  0.00    +0.002 C 
BRANCH  23  24
ATOM     24  C   LIG    1       22.226 -19.022   5.101  0.00  0.00    +0.028 C 
BRANCH  24  25
ATOM     25  C   LIG    1       21.742 -18.248   3.880  0.00  0.00    +0.156 C 
BRANCH  25  26
ATOM     26  O   LIG    1       20.402 -18.591   3.573  0.00  0.00    -0.395 OA
ATOM     27  H   LIG    1       19.881 -18.503   4.388  0.00  0.00    +0.209 HD
ENDBRANCH  25  26
ENDBRANCH  24  25
ENDBRANCH  23  24
ENDBRANCH  22  23
ENDBRANCH  21  22
ENDBRANCH  20  21
ENDBRANCH  19  20
ENDBRANCH  18  19
ENDBRANCH  17  18
ENDBRANCH  16  17
ENDBRANCH  15  16
ENDBRANCH   1  15
TORSDOF 15
ENDMDL
MODEL 6
REMARK VINA RESULT:      -2.1      2.220      7.629
REMARK  Name = *****
REMARK                            x       y       z     vdW  Elec       q    Type
REMARK                         _______ _______ _______ _____ _____    ______ ____
ROOT
ATOM      1  C   LIG    1       23.851 -16.228   3.358  0.00  0.00    +0.039 C 
ENDROOT
BRANCH   1   7
ATOM      2  C   LIG    1       25.085 -20.305   4.787  0.00  0.00    +0.213 C 
ATOM      3  C   LIG    1       23.622 -19.987   4.536  0.00  0.00    +0.227 C 
ATOM      4  O   LIG    1       22.764 -20.868   4.535  0.00  0.00    -0.284 OA
ATOM      5  C   LIG    1       23.241 -18.557   4.315  0.00  0.00    +0.007 C 
ATOM      6  C   LIG    1       21.827 -18.260   4.715  0.00  0.00    +0.048 C 
ATOM      7  C   LIG    1       24.126 -17.676   3.818  0.00  0.00    +0.010 C 
ATOM      8  C   LIG    1       25.530 -18.156   3.676  0.00  0.00    +0.228 C 
ATOM      9  O   LIG    1       26.304 -17.482   3.036  0.00  0.00    -0.284 OA
ATOM     10  C   LIG    1       25.992 -19.412   4.378  0.00  0.00    +0.213 C 
BRANCH   2  12
ATOM     11  C   LIG    1       25.505 -21.572   6.851  0.00  0.00    +0.277 C 
ATOM     12  O   LIG    1       25.241 -21.506   5.457  0.00  0.00    -0.488 OA
ENDBRANCH   2  12
BRANCH  10  13
ATOM     13  O   LIG    1       27.347 -19.627   4.590  0.00  0.00    -0.488 OA
ATOM     14  C   LIG    1       27.832 -19.701   5.916  0.00  0.00    +0.277 C 
ENDBRANCH  10  13
ENDBRANCH   1   7
BRANCH   1  15
ATOM     15  C   LIG    1       24.202 -15.096   4.361  0.00  0.00    +0.005 C 
BRANCH  15  16
ATOM     16  C   LIG    1       23.078 -14.209   4.916  0.00  0.00    +0.000 C 
BRANCH  16  17
ATOM     17  C   LIG    1       23.374 -12.719   5.119  0.00  0.00    +0.000 C 
BRANCH  17  18
ATOM     18  C   LIG    1       24.337 -12.138   4.074  0.00  0.00    -0.000 C 
BRANCH  18  19
ATOM     19  C   LIG    1       24.028 -12.438   2.581  0.00  0.00    -0.000 C 
BRANCH  19  20
ATOM     20  C   LIG    1       25.078 -13.280   1.818  0.00  0.00    -0.000 C 
BRANCH  20  21
ATOM     21  C   LIG    1       26.563 -12.896   2.104  0.00  0.00    -0.000 C 
BRANCH  21  22
ATOM     22  C   LIG    1       27.386 -14.080   2.672  0.00  0.00    +0.000 C 
BRANCH  22  23
ATOM     23  C   LIG    1       27.162 -14.423   4.165  0.00  0.00    +0.002 C 
BRANCH  23  24
ATOM     24  C   LIG    1       27.606 -13.396   5.219  0.00  0.00    +0.028 C 
BRANCH  24  25
ATOM     25  C   LIG    1       28.569 -12.330   4.705  0.00  0.00    +0.156 C 
BRANCH  25  26
ATOM     26  O   LIG    1       29.303 -11.765   5.776  0.00  0.00    -0.395 OA
ATOM     27  H   LIG    1       28.695 -11.209   6.289  0.00  0.00    +0.209 HD
ENDBRANCH  25  26
ENDBRANCH  24  25
ENDBRANCH  23  24
ENDBRANCH  22  23
ENDBRANCH  21  22
ENDBRANCH  20  21
ENDBRANCH  19  20
ENDBRANCH  18  19
ENDBRANCH  17  18
ENDBRANCH  16  17
ENDBRANCH  15  16
ENDBRANCH   1  15
TORSDOF 15
ENDMDL
MODEL 7
REMARK VINA RESULT:      -1.8      2.245      7.315
REMARK  Name = *****
REMARK                            x       y       z     vdW  Elec       q    Type
REMARK                         _______ _______ _______ _____ _____    ______ ____
ROOT
ATOM      1  C   LIG    1       23.807 -16.004   3.512  0.00  0.00    +0.039 C 
ENDROOT
BRANCH   1   7
ATOM      2  C   LIG    1       23.735 -20.281   4.887  0.00  0.00    +0.213 C 
ATOM      3  C   LIG    1       22.443 -19.555   4.561  0.00  0.00    +0.227 C 
ATOM      4  O   LIG    1       21.371 -20.154   4.484  0.00  0.00    -0.284 OA
ATOM      5  C   LIG    1       22.498 -18.073   4.362  0.00  0.00    +0.007 C 
ATOM      6  C   LIG    1       21.205 -17.390   4.688  0.00  0.00    +0.048 C 
ATOM      7  C   LIG    1       23.628 -17.476   3.944  0.00  0.00    +0.010 C 
ATOM      8  C   LIG    1       24.843 -18.335   3.869  0.00  0.00    +0.228 C 
ATOM      9  O   LIG    1       25.817 -17.903   3.296  0.00  0.00    -0.284 OA
ATOM     10  C   LIG    1       24.883 -19.680   4.558  0.00  0.00    +0.213 C 
BRANCH   2  12
ATOM     11  C   LIG    1       23.265 -21.569   6.927  0.00  0.00    +0.277 C 
ATOM     12  O   LIG    1       23.499 -21.485   5.528  0.00  0.00    -0.488 OA
ENDBRANCH   2  12
BRANCH  10  13
ATOM     13  O   LIG    1       26.104 -20.276   4.842  0.00  0.00    -0.488 OA
ATOM     14  C   LIG    1       26.381 -20.679   6.169  0.00  0.00    +0.277 C 
ENDBRANCH  10  13
ENDBRANCH   1   7
BRANCH   1  15
ATOM     15  C   LIG    1       23.433 -14.917   4.557  0.00  0.00    +0.005 C 
BRANCH  15  16
ATOM     16  C   LIG    1       24.443 -13.806   4.878  0.00  0.00    +0.000 C 
BRANCH  16  17
ATOM     17  C   LIG    1       24.096 -12.376   4.447  0.00  0.00    +0.000 C 
BRANCH  17  18
ATOM     18  C   LIG    1       23.717 -12.258   2.964  0.00  0.00    -0.000 C 
BRANCH  18  19
ATOM     19  C   LIG    1       24.879 -12.259   1.933  0.00  0.00    -0.000 C 
BRANCH  19  20
ATOM     20  C   LIG    1       26.033 -13.255   2.200  0.00  0.00    -0.000 C 
BRANCH  20  21
ATOM     21  C   LIG    1       27.216 -12.682   3.039  0.00  0.00    -0.000 C 
BRANCH  21  22
ATOM     22  C   LIG    1       28.262 -13.763   3.411  0.00  0.00    +0.000 C 
BRANCH  22  23
ATOM     23  C   LIG    1       27.836 -14.798   4.480  0.00  0.00    +0.002 C 
BRANCH  23  24
ATOM     24  C   LIG    1       27.769 -16.278   4.070  0.00  0.00    +0.028 C 
BRANCH  24  25
ATOM     25  C   LIG    1       28.714 -17.196   4.839  0.00  0.00    +0.156 C 
BRANCH  25  26
ATOM     26  O   LIG    1       28.270 -18.540   4.767  0.00  0.00    -0.395 OA
ATOM     27  H   LIG    1       27.660 -18.608   4.015  0.00  0.00    +0.209 HD
ENDBRANCH  25  26
ENDBRANCH  24  25
ENDBRANCH  23  24
ENDBRANCH  22  23
ENDBRANCH  21  22
ENDBRANCH  20  21
ENDBRANCH  19  20
ENDBRANCH  18  19
ENDBRANCH  17  18
ENDBRANCH  16  17
ENDBRANCH  15  16
ENDBRANCH   1  15
TORSDOF 15
ENDMDL
MODEL 8
REMARK VINA RESULT:      -1.3      2.278      6.811
REMARK  Name = *****
REMARK                            x       y       z     vdW  Elec       q    Type
REMARK                         _______ _______ _______ _____ _____    ______ ____
ROOT
ATOM      1  C   LIG    1       26.019 -16.800   3.001  0.00  0.00    +0.039 C 
ENDROOT
BRANCH   1   7
ATOM      2  C   LIG    1       25.764 -20.517   5.513  0.00  0.00    +0.213 C 
ATOM      3  C   LIG    1       24.784 -20.286   4.376  0.00  0.00    +0.227 C 
ATOM      4  O   LIG    1       24.024 -21.175   3.992  0.00  0.00    -0.284 OA
ATOM      5  C   LIG    1       24.746 -18.931   3.743  0.00  0.00    +0.007 C 
ATOM      6  C   LIG    1       23.411 -18.602   3.146  0.00  0.00    +0.048 C 
ATOM      7  C   LIG    1       25.827 -18.133   3.756  0.00  0.00    +0.010 C 
ATOM      8  C   LIG    1       26.982 -18.595   4.578  0.00  0.00    +0.228 C 
ATOM      9  O   LIG    1       28.043 -18.030   4.445  0.00  0.00    -0.284 OA
ATOM     10  C   LIG    1       26.811 -19.691   5.605  0.00  0.00    +0.213 C 
BRANCH   2  12
ATOM     11  C   LIG    1       24.162 -21.555   7.062  0.00  0.00    +0.277 C 
ATOM     12  O   LIG    1       25.373 -21.572   6.319  0.00  0.00    -0.488 OA
ENDBRANCH   2  12
BRANCH  10  13
ATOM     13  O   LIG    1       27.737 -19.829   6.630  0.00  0.00    -0.488 OA
ATOM     14  C   LIG    1       28.971 -20.466   6.360  0.00  0.00    +0.277 C 
ENDBRANCH  10  13
ENDBRANCH   1   7
BRANCH   1  15
ATOM     15  C   LIG    1       27.133 -15.853   3.524  0.00  0.00    +0.005 C 
BRANCH  15  16
ATOM     16  C   LIG    1       27.189 -14.406   3.012  0.00  0.00    +0.000 C 
BRANCH  16  17
ATOM     17  C   LIG    1       28.187 -13.450   3.676  0.00  0.00    +0.000 C 
BRANCH  17  18
ATOM     18  C   LIG    1       27.643 -12.786   4.949  0.00  0.00    -0.000 C 
BRANCH  18  19
ATOM     19  C   LIG    1       26.099 -12.690   5.095  0.00  0.00    -0.000 C 
BRANCH  19  20
ATOM     20  C   LIG    1       25.404 -11.557   4.305  0.00  0.00    -0.000 C 
BRANCH  20  21
ATOM     21  C   LIG    1       23.945 -11.871   3.849  0.00  0.00    -0.000 C 
BRANCH  21  22
ATOM     22  C   LIG    1       23.879 -13.018   2.808  0.00  0.00    +0.000 C 
BRANCH  22  23
ATOM     23  C   LIG    1       23.304 -14.367   3.303  0.00  0.00    +0.002 C 
BRANCH  23  24
ATOM     24  C   LIG    1       23.423 -14.700   4.799  0.00  0.00    +0.028 C 
BRANCH  24  25
ATOM     25  C   LIG    1       22.579 -15.884   5.258  0.00  0.00    +0.156 C 
BRANCH  25  26
ATOM     26  O   LIG    1       21.595 -15.464   6.187  0.00  0.00    -0.395 OA
ATOM     27  H   LIG    1       21.154 -16.259   6.527  0.00  0.00    +0.209 HD
ENDBRANCH  25  26
ENDBRANCH  24  25
ENDBRANCH  23  24
ENDBRANCH  22  23
ENDBRANCH  21  22
ENDBRANCH  20  21
ENDBRANCH  19  20
ENDBRANCH  18  19
ENDBRANCH  17  18
ENDBRANCH  16  17
ENDBRANCH  15  16
ENDBRANCH   1  15
TORSDOF 15
ENDMDL
MODEL 9
REMARK VINA RESULT:      -1.0      2.096      6.902
REMARK  Name = *****
REMARK                            x       y       z     vdW  Elec       q    Type
REMARK                         _______ _______ _______ _____ _____    ______ ____
ROOT
ATOM      1  C   LIG    1       24.641 -21.215   4.683  0.00  0.00    +0.039 C 
ENDROOT
BRANCH   1   7
ATOM      2  C   LIG    1       28.270 -18.608   5.158  0.00  0.00    +0.213 C 
ATOM      3  C   LIG    1       28.191 -19.954   5.856  0.00  0.00    +0.227 C 
ATOM      4  O   LIG    1       29.172 -20.448   6.410  0.00  0.00    -0.284 OA
ATOM      5  C   LIG    1       26.872 -20.660   5.878  0.00  0.00    +0.007 C 
ATOM      6  C   LIG    1       26.716 -21.571   7.057  0.00  0.00    +0.048 C 
ATOM      7  C   LIG    1       25.959 -20.444   4.916  0.00  0.00    +0.010 C 
ATOM      8  C   LIG    1       26.259 -19.350   3.950  0.00  0.00    +0.228 C 
ATOM      9  O   LIG    1       25.584 -19.266   2.950  0.00  0.00    -0.284 OA
ATOM     10  C   LIG    1       27.329 -18.325   4.251  0.00  0.00    +0.213 C 
BRANCH   2  12
ATOM     11  C   LIG    1       29.475 -17.499   6.991  0.00  0.00    +0.277 C 
ATOM     12  O   LIG    1       29.331 -17.851   5.622  0.00  0.00    -0.488 OA
ENDBRANCH   2  12
BRANCH  10  13
ATOM     13  O   LIG    1       27.326 -17.106   3.586  0.00  0.00    -0.488 OA
ATOM     14  C   LIG    1       27.694 -15.937   4.293  0.00  0.00    +0.277 C 
ENDBRANCH  10  13
ENDBRANCH   1   7
BRANCH   1  15
ATOM     15  C   LIG    1       23.635 -21.255   5.865  0.00  0.00    +0.005 C 
BRANCH  15  16
ATOM     16  C   LIG    1       22.146 -21.496   5.576  0.00  0.00    +0.000 C 
BRANCH  16  17
ATOM     17  C   LIG    1       21.350 -20.359   4.925  0.00  0.00    +0.000 C 
BRANCH  17  18
ATOM     18  C   LIG    1       22.193 -19.476   3.994  0.00  0.00    -0.000 C 
BRANCH  18  19
ATOM     19  C   LIG    1       21.886 -17.952   3.993  0.00  0.00    -0.000 C 
BRANCH  19  20
ATOM     20  C   LIG    1       23.108 -17.006   3.932  0.00  0.00    -0.000 C 
BRANCH  20  21
ATOM     21  C   LIG    1       22.838 -15.550   4.422  0.00  0.00    -0.000 C 
BRANCH  21  22
ATOM     22  C   LIG    1       24.041 -14.604   4.172  0.00  0.00    +0.000 C 
BRANCH  22  23
ATOM     23  C   LIG    1       24.071 -13.293   4.995  0.00  0.00    +0.002 C 
BRANCH  23  24
ATOM     24  C   LIG    1       24.526 -12.005   4.289  0.00  0.00    +0.028 C 
BRANCH  24  25
ATOM     25  C   LIG    1       24.762 -12.149   2.790  0.00  0.00    +0.156 C 
BRANCH  25  26
ATOM     26  O   LIG    1       23.649 -11.663   2.061  0.00  0.00    -0.395 OA
ATOM     27  H   LIG    1       23.183 -12.430   1.689  0.00  0.00    +0.209 HD
ENDBRANCH  25  26
ENDBRANCH  24  25
ENDBRANCH  23  24
ENDBRANCH  22  23
ENDBRANCH  21  22
ENDBRANCH  20  21
ENDBRANCH  19  20
ENDBRANCH  18  19
ENDBRANCH  17  18
ENDBRANCH  16  17
ENDBRANCH  15  16
ENDBRANCH   1  15
TORSDOF 15
ENDMDL
