MODEL 1
REMARK VINA RESULT:      -6.8      0.000      0.000
REMARK  Name = *****
REMARK                            x       y       z     vdW  Elec       q    Type
REMARK                         _______ _______ _______ _____ _____    ______ ____
ROOT
ATOM      1  N   LIG    1       27.821 -20.747   7.634  0.00  0.00    -0.301 N 
ATOM      2  H   LIG    1       27.402 -19.961   7.133  0.00  0.00    +0.150 HD
ATOM      3  C   LIG    1       29.184 -20.766   7.836  0.00  0.00    +0.232 C 
ATOM      4  O   LIG    1       29.697 -21.670   8.504  0.00  0.00    -0.275 OA
ENDROOT
BRANCH   1  10
ATOM      5  C   LIG    1       25.224 -21.257   4.599  0.00  0.00    +0.025 C 
ATOM      6  C   LIG    1       24.224 -21.366   5.765  0.00  0.00    +0.042 C 
ATOM      7  CA  LIG    1       24.244 -22.790   6.380  0.00  0.00    +0.201 C 
ATOM      8  N   LIG    1       25.203 -22.784   7.496  0.00  0.00    -0.271 N 
ATOM      9  C   LIG    1       25.414 -21.508   8.204  0.00  0.00    +0.165 C 
ATOM     10  CA  LIG    1       26.937 -21.803   8.190  0.00  0.00    +0.190 C 
ATOM     11  C   LIG    1       26.541 -22.956   7.227  0.00  0.00    +0.240 C 
ATOM     12  O   LIG    1       27.065 -23.651   6.390  0.00  0.00    -0.273 OA
ATOM     13  S   LIG    1       24.798 -20.201   7.089  0.00  0.00    -0.127 S 
ATOM     14  C   LIG    1       22.859 -20.879   5.267  0.00  0.00    +0.025 C 
BRANCH   7  15
ATOM     15  C   LIG    1       22.898 -23.328   6.887  0.00  0.00    +0.327 C 
ATOM     16  O   LIG    1       22.092 -22.685   7.543  0.00  0.00    -0.249 OA
BRANCH  15  17
ATOM     17  OXT LIG    1       22.630 -24.595   6.481  0.00  0.00    -0.479 OA
ATOM     18  HXT LIG    1       21.680 -24.794   6.611  0.00  0.00    +0.295 HD
ENDBRANCH  15  17
ENDBRANCH   7  15
ENDBRANCH   1  10
BRANCH   3  19
ATOM     19  C   LIG    1       30.024 -19.646   7.205  0.00  0.00    +0.213 C 
BRANCH  19  20
ATOM     20  C   LIG    1       30.540 -18.631   8.224  0.00  0.00    -0.025 A 
ATOM     21  C   LIG    1       29.694 -18.206   9.264  0.00  0.00    +0.005 A 
ATOM     22  C   LIG    1       30.152 -17.322  10.243  0.00  0.00    +0.000 A 
ATOM     23  C   LIG    1       31.458 -16.845  10.196  0.00  0.00    +0.000 A 
ATOM     24  C   LIG    1       32.309 -17.254   9.172  0.00  0.00    +0.000 A 
ATOM     25  C   LIG    1       31.858 -18.148   8.197  0.00  0.00    +0.005 A 
ENDBRANCH  19  20
BRANCH  19  26
ATOM     26  C   LIG    1       29.367 -18.934   6.042  0.00  0.00    +0.321 C 
ATOM     27  O   LIG    1       29.494 -17.755   5.739  0.00  0.00    -0.250 OA
BRANCH  26  28
ATOM     28  O   LIG    1       28.552 -19.724   5.309  0.00  0.00    -0.480 OA
ATOM     29  H   LIG    1       27.746 -19.828   5.858  0.00  0.00    +0.295 HD
ENDBRANCH  26  28
ENDBRANCH  19  26
ENDBRANCH   3  19
TORSDOF 7
ENDMDL
MODEL 2
REMARK VINA RESULT:      -6.6      6.755      9.585
REMARK  Name = *****
REMARK                            x       y       z     vdW  Elec       q    Type
REMARK                         _______ _______ _______ _____ _____    ______ ____
ROOT
ATOM      1  N   LIG    1       25.991 -28.971   7.740  0.00  0.00    -0.301 N 
ATOM      2  H   LIG    1       26.918 -28.711   8.083  0.00  0.00    +0.150 HD
ATOM      3  C   LIG    1       25.382 -28.185   6.786  0.00  0.00    +0.232 C 
ATOM      4  O   LIG    1       24.295 -28.524   6.307  0.00  0.00    -0.275 OA
ENDROOT
BRANCH   1  10
ATOM      5  C   LIG    1       25.919 -28.299  11.710  0.00  0.00    +0.025 C 
ATOM      6  C   LIG    1       26.302 -29.790  11.746  0.00  0.00    +0.042 C 
ATOM      7  CA  LIG    1       25.050 -30.688  11.575  0.00  0.00    +0.201 C 
ATOM      8  N   LIG    1       24.905 -30.990  10.142  0.00  0.00    -0.271 N 
ATOM      9  C   LIG    1       26.132 -31.012   9.324  0.00  0.00    +0.165 C 
ATOM     10  CA  LIG    1       25.364 -30.225   8.230  0.00  0.00    +0.190 C 
ATOM     11  C   LIG    1       24.276 -30.075   9.328  0.00  0.00    +0.240 C 
ATOM     12  O   LIG    1       23.339 -29.355   9.576  0.00  0.00    -0.273 OA
ATOM     13  S   LIG    1       27.396 -30.109  10.282  0.00  0.00    -0.127 S 
ATOM     14  C   LIG    1       27.127 -30.038  13.014  0.00  0.00    +0.025 C 
BRANCH   7  15
ATOM     15  C   LIG    1       25.049 -32.008  12.360  0.00  0.00    +0.327 C 
ATOM     16  O   LIG    1       25.729 -32.985  12.082  0.00  0.00    -0.249 OA
BRANCH  15  17
ATOM     17  OXT LIG    1       24.260 -31.985  13.464  0.00  0.00    -0.479 OA
ATOM     18  HXT LIG    1       23.421 -31.520  13.265  0.00  0.00    +0.295 HD
ENDBRANCH  15  17
ENDBRANCH   7  15
ENDBRANCH   1  10
BRANCH   3  19
ATOM     19  C   LIG    1       26.091 -26.892   6.355  0.00  0.00    +0.213 C 
BRANCH  19  20
ATOM     20  C   LIG    1       25.259 -25.635   6.604  0.00  0.00    -0.025 A 
ATOM     21  C   LIG    1       25.900 -24.455   7.021  0.00  0.00    +0.005 A 
ATOM     22  C   LIG    1       25.177 -23.274   7.205  0.00  0.00    +0.000 A 
ATOM     23  C   LIG    1       23.804 -23.255   6.980  0.00  0.00    +0.000 A 
ATOM     24  C   LIG    1       23.152 -24.415   6.569  0.00  0.00    +0.000 A 
ATOM     25  C   LIG    1       23.875 -25.596   6.373  0.00  0.00    +0.005 A 
ENDBRANCH  19  20
BRANCH  19  26
ATOM     26  C   LIG    1       26.621 -26.898   4.937  0.00  0.00    +0.321 C 
ATOM     27  O   LIG    1       26.001 -26.609   3.922  0.00  0.00    -0.250 OA
BRANCH  26  28
ATOM     28  O   LIG    1       27.910 -27.291   4.838  0.00  0.00    -0.480 OA
ATOM     29  H   LIG    1       28.167 -27.534   5.752  0.00  0.00    +0.295 HD
ENDBRANCH  26  28
ENDBRANCH  19  26
ENDBRANCH   3  19
TORSDOF 7
ENDMDL
MODEL 3
REMARK VINA RESULT:      -6.1      8.892     10.791
REMARK  Name = *****
REMARK                            x       y       z     vdW  Elec       q    Type
REMARK                         _______ _______ _______ _____ _____    ______ ____
ROOT
ATOM      1  N   LIG    1       26.102 -27.797  11.896  0.00  0.00    -0.301 N 
ATOM      2  H   LIG    1       25.218 -27.513  11.468  0.00  0.00    +0.150 HD
ATOM      3  C   LIG    1       26.292 -27.591  13.246  0.00  0.00    +0.232 C 
ATOM      4  O   LIG    1       27.322 -27.996  13.794  0.00  0.00    -0.275 OA
ENDROOT
BRANCH   1  10
ATOM      5  C   LIG    1       23.769 -30.191   9.652  0.00  0.00    +0.025 C 
ATOM      6  C   LIG    1       24.922 -31.180   9.903  0.00  0.00    +0.042 C 
ATOM      7  CA  LIG    1       26.099 -30.917   8.929  0.00  0.00    +0.201 C 
ATOM      8  N   LIG    1       27.038 -30.000   9.595  0.00  0.00    -0.271 N 
ATOM      9  C   LIG    1       27.095 -30.038  11.069  0.00  0.00    +0.165 C 
ATOM     10  CA  LIG    1       27.120 -28.488  11.064  0.00  0.00    +0.190 C 
ATOM     11  C   LIG    1       26.790 -28.647   9.554  0.00  0.00    +0.240 C 
ATOM     12  O   LIG    1       26.316 -27.988   8.661  0.00  0.00    -0.273 OA
ATOM     13  S   LIG    1       25.557 -30.856  11.615  0.00  0.00    -0.127 S 
ATOM     14  C   LIG    1       24.343 -32.600   9.876  0.00  0.00    +0.025 C 
BRANCH   7  15
ATOM     15  C   LIG    1       26.873 -32.154   8.451  0.00  0.00    +0.327 C 
ATOM     16  O   LIG    1       27.504 -32.907   9.178  0.00  0.00    -0.249 OA
BRANCH  15  17
ATOM     17  OXT LIG    1       26.744 -32.398   7.122  0.00  0.00    -0.479 OA
ATOM     18  HXT LIG    1       25.945 -31.949   6.776  0.00  0.00    +0.295 HD
ENDBRANCH  15  17
ENDBRANCH   7  15
ENDBRANCH   1  10
BRANCH   3  19
ATOM     19  C   LIG    1       25.196 -26.848  14.024  0.00  0.00    +0.213 C 
BRANCH  19  20
ATOM     20  C   LIG    1       23.782 -27.209  13.571  0.00  0.00    -0.025 A 
ATOM     21  C   LIG    1       23.460 -28.555  13.322  0.00  0.00    +0.005 A 
ATOM     22  C   LIG    1       22.163 -28.926  12.960  0.00  0.00    +0.000 A 
ATOM     23  C   LIG    1       21.171 -27.958  12.836  0.00  0.00    +0.000 A 
ATOM     24  C   LIG    1       21.473 -26.620  13.077  0.00  0.00    +0.000 A 
ATOM     25  C   LIG    1       22.767 -26.247  13.451  0.00  0.00    +0.005 A 
ENDBRANCH  19  20
BRANCH  19  26
ATOM     26  C   LIG    1       25.361 -25.344  14.080  0.00  0.00    +0.321 C 
ATOM     27  O   LIG    1       24.992 -24.600  14.978  0.00  0.00    -0.250 OA
BRANCH  26  28
ATOM     28  O   LIG    1       25.966 -24.821  12.991  0.00  0.00    -0.480 OA
ATOM     29  H   LIG    1       26.030 -25.568  12.359  0.00  0.00    +0.295 HD
ENDBRANCH  26  28
ENDBRANCH  19  26
ENDBRANCH   3  19
TORSDOF 7
ENDMDL
MODEL 4
REMARK VINA RESULT:      -6.1      8.238     11.248
REMARK  Name = *****
REMARK                            x       y       z     vdW  Elec       q    Type
REMARK                         _______ _______ _______ _____ _____    ______ ____
ROOT
ATOM      1  N   LIG    1       24.425 -29.864   9.116  0.00  0.00    -0.301 N 
ATOM      2  H   LIG    1       23.594 -30.295   8.704  0.00  0.00    +0.150 HD
ATOM      3  C   LIG    1       25.344 -29.251   8.293  0.00  0.00    +0.232 C 
ATOM      4  O   LIG    1       26.314 -28.662   8.780  0.00  0.00    -0.275 OA
ENDROOT
BRANCH   1  10
ATOM      5  C   LIG    1       22.845 -33.441  10.080  0.00  0.00    +0.025 C 
ATOM      6  C   LIG    1       22.264 -32.622  11.247  0.00  0.00    +0.042 C 
ATOM      7  CA  LIG    1       23.312 -32.447  12.377  0.00  0.00    +0.201 C 
ATOM      8  N   LIG    1       24.025 -31.182  12.137  0.00  0.00    -0.271 N 
ATOM      9  C   LIG    1       23.294 -30.114  11.430  0.00  0.00    +0.165 C 
ATOM     10  CA  LIG    1       24.574 -29.853  10.594  0.00  0.00    +0.190 C 
ATOM     11  C   LIG    1       25.078 -31.167  11.251  0.00  0.00    +0.240 C 
ATOM     12  O   LIG    1       25.908 -32.019  11.042  0.00  0.00    -0.273 OA
ATOM     13  S   LIG    1       21.891 -30.927  10.594  0.00  0.00    -0.127 S 
ATOM     14  C   LIG    1       20.939 -33.268  11.667  0.00  0.00    +0.025 C 
BRANCH   7  15
ATOM     15  C   LIG    1       22.768 -32.444  13.812  0.00  0.00    +0.327 C 
ATOM     16  O   LIG    1       22.119 -31.535  14.310  0.00  0.00    -0.249 OA
BRANCH  15  17
ATOM     17  OXT LIG    1       23.011 -33.594  14.491  0.00  0.00    -0.479 OA
ATOM     18  HXT LIG    1       22.781 -34.366  13.933  0.00  0.00    +0.295 HD
ENDBRANCH  15  17
ENDBRANCH   7  15
ENDBRANCH   1  10
BRANCH   3  19
ATOM     19  C   LIG    1       25.122 -29.332   6.775  0.00  0.00    +0.213 C 
BRANCH  19  20
ATOM     20  C   LIG    1       25.091 -27.964   6.096  0.00  0.00    -0.025 A 
ATOM     21  C   LIG    1       24.253 -26.958   6.607  0.00  0.00    +0.005 A 
ATOM     22  C   LIG    1       24.241 -25.680   6.044  0.00  0.00    +0.000 A 
ATOM     23  C   LIG    1       25.062 -25.390   4.958  0.00  0.00    +0.000 A 
ATOM     24  C   LIG    1       25.897 -26.375   4.437  0.00  0.00    +0.000 A 
ATOM     25  C   LIG    1       25.920 -27.651   5.006  0.00  0.00    +0.005 A 
ENDBRANCH  19  20
BRANCH  19  26
ATOM     26  C   LIG    1       23.927 -30.157   6.348  0.00  0.00    +0.321 C 
ATOM     27  O   LIG    1       23.612 -31.262   6.770  0.00  0.00    -0.250 OA
BRANCH  26  28
ATOM     28  O   LIG    1       23.179 -29.576   5.385  0.00  0.00    -0.480 OA
ATOM     29  H   LIG    1       23.519 -28.658   5.326  0.00  0.00    +0.295 HD
ENDBRANCH  26  28
ENDBRANCH  19  26
ENDBRANCH   3  19
TORSDOF 7
ENDMDL
MODEL 5
REMARK VINA RESULT:      -5.8      9.559     10.935
REMARK  Name = *****
REMARK                            x       y       z     vdW  Elec       q    Type
REMARK                         _______ _______ _______ _____ _____    ______ ____
ROOT
ATOM      1  N   LIG    1       26.298 -30.031  10.893  0.00  0.00    -0.301 N 
ATOM      2  H   LIG    1       26.011 -30.763  11.547  0.00  0.00    +0.150 HD
ATOM      3  C   LIG    1       26.456 -28.742  11.354  0.00  0.00    +0.232 C 
ATOM      4  O   LIG    1       26.875 -27.861  10.595  0.00  0.00    -0.275 OA
ENDROOT
BRANCH   1  10
ATOM      5  C   LIG    1       22.663 -31.160   9.579  0.00  0.00    +0.025 C 
ATOM      6  C   LIG    1       23.499 -32.243   8.872  0.00  0.00    +0.042 C 
ATOM      7  CA  LIG    1       24.128 -31.693   7.566  0.00  0.00    +0.201 C 
ATOM      8  N   LIG    1       25.470 -31.186   7.892  0.00  0.00    -0.271 N 
ATOM      9  C   LIG    1       26.178 -31.815   9.023  0.00  0.00    +0.165 C 
ATOM     10  CA  LIG    1       26.605 -30.398   9.487  0.00  0.00    +0.190 C 
ATOM     11  C   LIG    1       25.597 -29.916   8.408  0.00  0.00    +0.240 C 
ATOM     12  O   LIG    1       24.960 -28.924   8.148  0.00  0.00    -0.273 OA
ATOM     13  S   LIG    1       24.903 -32.676  10.004  0.00  0.00    -0.127 S 
ATOM     14  C   LIG    1       22.621 -33.489   8.711  0.00  0.00    +0.025 C 
BRANCH   7  15
ATOM     15  C   LIG    1       24.244 -32.684   6.399  0.00  0.00    +0.327 C 
ATOM     16  O   LIG    1       25.040 -33.610   6.347  0.00  0.00    -0.249 OA
BRANCH  15  17
ATOM     17  OXT LIG    1       23.319 -32.490   5.425  0.00  0.00    -0.479 OA
ATOM     18  HXT LIG    1       22.661 -31.826   5.716  0.00  0.00    +0.295 HD
ENDBRANCH  15  17
ENDBRANCH   7  15
ENDBRANCH   1  10
BRANCH   3  19
ATOM     19  C   LIG    1       26.094 -28.448  12.817  0.00  0.00    +0.213 C 
BRANCH  19  20
ATOM     20  C   LIG    1       24.660 -27.949  12.995  0.00  0.00    -0.025 A 
ATOM     21  C   LIG    1       24.437 -26.653  13.493  0.00  0.00    +0.005 A 
ATOM     22  C   LIG    1       23.142 -26.146  13.616  0.00  0.00    +0.000 A 
ATOM     23  C   LIG    1       22.050 -26.927  13.250  0.00  0.00    +0.000 A 
ATOM     24  C   LIG    1       22.252 -28.214  12.756  0.00  0.00    +0.000 A 
ATOM     25  C   LIG    1       23.548 -28.719  12.621  0.00  0.00    +0.005 A 
ENDBRANCH  19  20
BRANCH  19  26
ATOM     26  C   LIG    1       27.060 -27.537  13.543  0.00  0.00    +0.321 C 
ATOM     27  O   LIG    1       27.490 -27.681  14.679  0.00  0.00    -0.250 OA
BRANCH  26  28
ATOM     28  O   LIG    1       27.439 -26.458  12.823  0.00  0.00    -0.480 OA
ATOM     29  H   LIG    1       27.940 -26.827  12.065  0.00  0.00    +0.295 HD
ENDBRANCH  26  28
ENDBRANCH  19  26
ENDBRANCH   3  19
TORSDOF 7
ENDMDL
MODEL 6
REMARK VINA RESULT:      -5.6      9.339     11.101
REMARK  Name = *****
REMARK                            x       y       z     vdW  Elec       q    Type
REMARK                         _______ _______ _______ _____ _____    ______ ____
ROOT
ATOM      1  N   LIG    1       25.215 -29.902  11.681  0.00  0.00    -0.301 N 
ATOM      2  H   LIG    1       25.003 -29.063  11.138  0.00  0.00    +0.150 HD
ATOM      3  C   LIG    1       25.114 -29.857  13.055  0.00  0.00    +0.232 C 
ATOM      4  O   LIG    1       25.295 -30.881  13.722  0.00  0.00    -0.275 OA
ENDROOT
BRANCH   1  10
ATOM      5  C   LIG    1       25.655 -28.553   7.913  0.00  0.00    +0.025 C 
ATOM      6  C   LIG    1       24.934 -29.875   7.591  0.00  0.00    +0.042 C 
ATOM      7  CA  LIG    1       25.929 -31.064   7.598  0.00  0.00    +0.201 C 
ATOM      8  N   LIG    1       25.923 -31.649   8.948  0.00  0.00    -0.271 N 
ATOM      9  C   LIG    1       24.683 -31.524   9.737  0.00  0.00    +0.165 C 
ATOM     10  CA  LIG    1       25.554 -31.159  10.967  0.00  0.00    +0.190 C 
ATOM     11  C   LIG    1       26.705 -31.077   9.926  0.00  0.00    +0.240 C 
ATOM     12  O   LIG    1       27.797 -30.572   9.827  0.00  0.00    -0.273 OA
ATOM     13  S   LIG    1       23.719 -30.184   8.958  0.00  0.00    -0.127 S 
ATOM     14  C   LIG    1       24.144 -29.680   6.292  0.00  0.00    +0.025 C 
BRANCH   7  15
ATOM     15  C   LIG    1       25.662 -32.179   6.575  0.00  0.00    +0.327 C 
ATOM     16  O   LIG    1       24.864 -33.092   6.732  0.00  0.00    -0.249 OA
BRANCH  15  17
ATOM     17  OXT LIG    1       26.351 -32.032   5.416  0.00  0.00    -0.479 OA
ATOM     18  HXT LIG    1       27.252 -32.403   5.513  0.00  0.00    +0.295 HD
ENDBRANCH  15  17
ENDBRANCH   7  15
ENDBRANCH   1  10
BRANCH   3  19
ATOM     19  C   LIG    1       24.781 -28.509  13.712  0.00  0.00    +0.213 C 
BRANCH  19  20
ATOM     20  C   LIG    1       23.372 -28.013  13.391  0.00  0.00    -0.025 A 
ATOM     21  C   LIG    1       22.385 -28.938  13.008  0.00  0.00    +0.005 A 
ATOM     22  C   LIG    1       21.074 -28.526  12.762  0.00  0.00    +0.000 A 
ATOM     23  C   LIG    1       20.730 -27.184  12.889  0.00  0.00    +0.000 A 
ATOM     24  C   LIG    1       21.695 -26.253  13.265  0.00  0.00    +0.000 A 
ATOM     25  C   LIG    1       23.006 -26.664  13.524  0.00  0.00    +0.005 A 
ENDBRANCH  19  20
BRANCH  19  26
ATOM     26  C   LIG    1       25.794 -27.411  13.463  0.00  0.00    +0.321 C 
ATOM     27  O   LIG    1       26.275 -27.090  12.385  0.00  0.00    -0.250 OA
BRANCH  26  28
ATOM     28  O   LIG    1       26.186 -26.767  14.584  0.00  0.00    -0.480 OA
ATOM     29  H   LIG    1       25.390 -26.757  15.157  0.00  0.00    +0.295 HD
ENDBRANCH  26  28
ENDBRANCH  19  26
ENDBRANCH   3  19
TORSDOF 7
ENDMDL
MODEL 7
REMARK VINA RESULT:      -5.6      9.578     12.538
REMARK  Name = *****
REMARK                            x       y       z     vdW  Elec       q    Type
REMARK                         _______ _______ _______ _____ _____    ______ ____
ROOT
ATOM      1  N   LIG    1       24.331 -31.229   8.594  0.00  0.00    -0.301 N 
ATOM      2  H   LIG    1       24.725 -30.313   8.366  0.00  0.00    +0.150 HD
ATOM      3  C   LIG    1       24.006 -32.095   7.573  0.00  0.00    +0.232 C 
ATOM      4  O   LIG    1       23.600 -33.232   7.832  0.00  0.00    -0.275 OA
ENDROOT
BRANCH   1  10
ATOM      5  C   LIG    1       26.569 -28.405  10.392  0.00  0.00    +0.025 C 
ATOM      6  C   LIG    1       26.991 -29.606  11.259  0.00  0.00    +0.042 C 
ATOM      7  CA  LIG    1       25.937 -29.892  12.359  0.00  0.00    +0.201 C 
ATOM      8  N   LIG    1       24.995 -30.891  11.830  0.00  0.00    -0.271 N 
ATOM      9  C   LIG    1       25.504 -31.837  10.819  0.00  0.00    +0.165 C 
ATOM     10  CA  LIG    1       24.192 -31.621  10.020  0.00  0.00    +0.190 C 
ATOM     11  C   LIG    1       23.952 -30.470  11.036  0.00  0.00    +0.240 C 
ATOM     12  O   LIG    1       23.298 -29.458  11.114  0.00  0.00    -0.273 OA
ATOM     13  S   LIG    1       27.031 -31.093  10.152  0.00  0.00    -0.127 S 
ATOM     14  C   LIG    1       28.418 -29.351  11.759  0.00  0.00    +0.025 C 
BRANCH   7  15
ATOM     15  C   LIG    1       26.480 -30.391  13.706  0.00  0.00    +0.327 C 
ATOM     16  O   LIG    1       26.960 -31.499  13.898  0.00  0.00    -0.249 OA
BRANCH  15  17
ATOM     17  OXT LIG    1       26.448 -29.453  14.687  0.00  0.00    -0.479 OA
ATOM     18  HXT LIG    1       27.291 -28.954  14.700  0.00  0.00    +0.295 HD
ENDBRANCH  15  17
ENDBRANCH   7  15
ENDBRANCH   1  10
BRANCH   3  19
ATOM     19  C   LIG    1       24.159 -31.598   6.128  0.00  0.00    +0.213 C 
BRANCH  19  20
ATOM     20  C   LIG    1       25.320 -32.257   5.383  0.00  0.00    -0.025 A 
ATOM     21  C   LIG    1       26.482 -32.610   6.090  0.00  0.00    +0.005 A 
ATOM     22  C   LIG    1       27.539 -33.262   5.452  0.00  0.00    +0.000 A 
ATOM     23  C   LIG    1       27.453 -33.567   4.097  0.00  0.00    +0.000 A 
ATOM     24  C   LIG    1       26.310 -33.222   3.379  0.00  0.00    +0.000 A 
ATOM     25  C   LIG    1       25.246 -32.580   4.019  0.00  0.00    +0.005 A 
ENDBRANCH  19  20
BRANCH  19  26
ATOM     26  C   LIG    1       24.223 -30.094   5.974  0.00  0.00    +0.321 C 
ATOM     27  O   LIG    1       25.128 -29.358   6.341  0.00  0.00    -0.250 OA
BRANCH  26  28
ATOM     28  O   LIG    1       23.133 -29.559   5.382  0.00  0.00    -0.480 OA
ATOM     29  H   LIG    1       23.369 -28.621   5.224  0.00  0.00    +0.295 HD
ENDBRANCH  26  28
ENDBRANCH  19  26
ENDBRANCH   3  19
TORSDOF 7
ENDMDL
MODEL 8
REMARK VINA RESULT:      -5.3      9.339     11.085
REMARK  Name = *****
REMARK                            x       y       z     vdW  Elec       q    Type
REMARK                         _______ _______ _______ _____ _____    ______ ____
ROOT
ATOM      1  N   LIG    1       24.423 -29.860  11.017  0.00  0.00    -0.301 N 
ATOM      2  H   LIG    1       25.236 -29.345  10.671  0.00  0.00    +0.150 HD
ATOM      3  C   LIG    1       24.275 -30.050  12.374  0.00  0.00    +0.232 C 
ATOM      4  O   LIG    1       23.263 -30.604  12.814  0.00  0.00    -0.275 OA
ENDROOT
BRANCH   1  10
ATOM      5  C   LIG    1       26.546 -32.476   8.813  0.00  0.00    +0.025 C 
ATOM      6  C   LIG    1       25.732 -31.838   7.673  0.00  0.00    +0.042 C 
ATOM      7  CA  LIG    1       24.314 -32.462   7.588  0.00  0.00    +0.201 C 
ATOM      8  N   LIG    1       23.409 -31.632   8.399  0.00  0.00    -0.271 N 
ATOM      9  C   LIG    1       23.744 -30.203   8.544  0.00  0.00    +0.165 C 
ATOM     10  CA  LIG    1       23.393 -30.319  10.051  0.00  0.00    +0.190 C 
ATOM     11  C   LIG    1       23.347 -31.844   9.758  0.00  0.00    +0.240 C 
ATOM     12  O   LIG    1       23.426 -32.882  10.369  0.00  0.00    -0.273 OA
ATOM     13  S   LIG    1       25.506 -30.047   8.097  0.00  0.00    -0.127 S 
ATOM     14  C   LIG    1       26.568 -31.918   6.390  0.00  0.00    +0.025 C 
BRANCH   7  15
ATOM     15  C   LIG    1       23.721 -32.609   6.180  0.00  0.00    +0.327 C 
ATOM     16  O   LIG    1       23.596 -33.669   5.583  0.00  0.00    -0.249 OA
BRANCH  15  17
ATOM     17  OXT LIG    1       23.269 -31.443   5.654  0.00  0.00    -0.479 OA
ATOM     18  HXT LIG    1       22.429 -31.184   6.086  0.00  0.00    +0.295 HD
ENDBRANCH  15  17
ENDBRANCH   7  15
ENDBRANCH   1  10
BRANCH   3  19
ATOM     19  C   LIG    1       25.401 -29.563  13.298  0.00  0.00    +0.213 C 
BRANCH  19  20
ATOM     20  C   LIG    1       25.509 -28.040  13.368  0.00  0.00    -0.025 A 
ATOM     21  C   LIG    1       26.723 -27.418  13.029  0.00  0.00    +0.005 A 
ATOM     22  C   LIG    1       26.839 -26.027  13.029  0.00  0.00    +0.000 A 
ATOM     23  C   LIG    1       25.747 -25.236  13.373  0.00  0.00    +0.000 A 
ATOM     24  C   LIG    1       24.537 -25.836  13.714  0.00  0.00    +0.000 A 
ATOM     25  C   LIG    1       24.414 -27.228  13.703  0.00  0.00    +0.005 A 
ENDBRANCH  19  20
BRANCH  19  26
ATOM     26  C   LIG    1       26.759 -30.173  13.027  0.00  0.00    +0.321 C 
ATOM     27  O   LIG    1       27.573 -30.548  13.859  0.00  0.00    -0.250 OA
BRANCH  26  28
ATOM     28  O   LIG    1       27.060 -30.271  11.713  0.00  0.00    -0.480 OA
ATOM     29  H   LIG    1       26.948 -31.222  11.502  0.00  0.00    +0.295 HD
ENDBRANCH  26  28
ENDBRANCH  19  26
ENDBRANCH   3  19
TORSDOF 7
ENDMDL
MODEL 9
REMARK VINA RESULT:      -5.3      9.149     11.864
REMARK  Name = *****
REMARK                            x       y       z     vdW  Elec       q    Type
REMARK                         _______ _______ _______ _____ _____    ______ ____
ROOT
ATOM      1  N   LIG    1       23.389 -30.476  10.581  0.00  0.00    -0.301 N 
ATOM      2  H   LIG    1       23.291 -29.502  10.877  0.00  0.00    +0.150 HD
ATOM      3  C   LIG    1       24.502 -30.851   9.861  0.00  0.00    +0.232 C 
ATOM      4  O   LIG    1       24.674 -32.036   9.560  0.00  0.00    -0.275 OA
ENDROOT
BRANCH   1  10
ATOM      5  C   LIG    1       20.941 -28.164  12.789  0.00  0.00    +0.025 C 
ATOM      6  C   LIG    1       20.912 -29.424  13.675  0.00  0.00    +0.042 C 
ATOM      7  CA  LIG    1       19.911 -30.469  13.119  0.00  0.00    +0.201 C 
ATOM      8  N   LIG    1       20.655 -31.379  12.234  0.00  0.00    -0.271 N 
ATOM      9  C   LIG    1       22.087 -31.586  12.522  0.00  0.00    +0.165 C 
ATOM     10  CA  LIG    1       22.365 -31.466  11.000  0.00  0.00    +0.190 C 
ATOM     11  C   LIG    1       20.883 -31.004  10.930  0.00  0.00    +0.240 C 
ATOM     12  O   LIG    1       20.167 -30.384  10.182  0.00  0.00    -0.273 OA
ATOM     13  S   LIG    1       22.597 -30.194  13.586  0.00  0.00    -0.127 S 
ATOM     14  C   LIG    1       20.672 -28.980  15.122  0.00  0.00    +0.025 C 
BRANCH   7  15
ATOM     15  C   LIG    1       19.152 -31.303  14.161  0.00  0.00    +0.327 C 
ATOM     16  O   LIG    1       19.633 -32.230  14.796  0.00  0.00    -0.249 OA
BRANCH  15  17
ATOM     17  OXT LIG    1       17.883 -30.876  14.382  0.00  0.00    -0.479 OA
ATOM     18  HXT LIG    1       17.529 -30.448  13.576  0.00  0.00    +0.295 HD
ENDBRANCH  15  17
ENDBRANCH   7  15
ENDBRANCH   1  10
BRANCH   3  19
ATOM     19  C   LIG    1       25.499 -29.757   9.450  0.00  0.00    +0.213 C 
BRANCH  19  20
ATOM     20  C   LIG    1       25.204 -29.156   8.076  0.00  0.00    -0.025 A 
ATOM     21  C   LIG    1       24.329 -29.826   7.203  0.00  0.00    +0.005 A 
ATOM     22  C   LIG    1       23.995 -29.278   5.963  0.00  0.00    +0.000 A 
ATOM     23  C   LIG    1       24.534 -28.055   5.574  0.00  0.00    +0.000 A 
ATOM     24  C   LIG    1       25.404 -27.378   6.425  0.00  0.00    +0.000 A 
ATOM     25  C   LIG    1       25.731 -27.919   7.672  0.00  0.00    +0.005 A 
ENDBRANCH  19  20
BRANCH  19  26
ATOM     26  C   LIG    1       26.957 -30.153   9.547  0.00  0.00    +0.321 C 
ATOM     27  O   LIG    1       27.814 -29.627  10.244  0.00  0.00    -0.250 OA
BRANCH  26  28
ATOM     28  O   LIG    1       27.297 -31.185   8.744  0.00  0.00    -0.480 OA
ATOM     29  H   LIG    1       27.315 -30.803   7.841  0.00  0.00    +0.295 HD
ENDBRANCH  26  28
ENDBRANCH  19  26
ENDBRANCH   3  19
TORSDOF 7
ENDMDL
