MODEL 1
REMARK VINA RESULT:      -6.3      0.000      0.000
REMARK  Name = *****
REMARK                            x       y       z     vdW  Elec       q    Type
REMARK                         _______ _______ _______ _____ _____    ______ ____
ROOT
ATOM      1  C   LIG    1       25.348 -15.385   3.571  0.00  0.00    +0.124 A 
ATOM      2  C   LIG    1       24.051 -14.954   3.847  0.00  0.00    +0.067 A 
ATOM      3 CL   LIG    1       23.564 -13.298   3.902  0.00  0.00    -0.082 Cl
ATOM      4  C   LIG    1       23.061 -15.904   4.110  0.00  0.00    +0.022 A 
ATOM      5  C   LIG    1       23.361 -17.270   4.099  0.00  0.00    +0.010 A 
ATOM      6  C   LIG    1       24.662 -17.727   3.832  0.00  0.00    +0.009 A 
ATOM      7  C   LIG    1       25.648 -16.762   3.551  0.00  0.00    +0.038 A 
ENDROOT
BRANCH   6   8
ATOM      8  C   LIG    1       24.988 -19.216   3.825  0.00  0.00    +0.187 C 
ATOM      9  C   LIG    1       24.255 -20.018   4.860  0.00  0.00    +0.019 A 
ATOM     10  C   LIG    1       25.173 -20.572   5.755  0.00  0.00    +0.045 A 
ATOM     11  C   LIG    1       24.800 -21.338   6.843  0.00  0.00    +0.013 A 
ATOM     12  C   LIG    1       23.435 -21.565   7.022  0.00  0.00    +0.001 A 
ATOM     13  C   LIG    1       22.494 -21.037   6.117  0.00  0.00    +0.001 A 
ATOM     14  C   LIG    1       26.515 -20.186   5.312  0.00  0.00    +0.247 C 
ATOM     15  O   LIG    1       27.560 -20.433   5.881  0.00  0.00    -0.270 OA
ATOM     16  C   LIG    1       22.900 -20.261   5.024  0.00  0.00    +0.009 A 
ATOM     17  N   LIG    1       26.363 -19.476   4.143  0.00  0.00    -0.276 N 
ATOM     18  H   LIG    1       27.136 -18.975   3.730  0.00  0.00    +0.152 HD
BRANCH   8  19
ATOM     19  O   LIG    1       24.798 -19.777   2.549  0.00  0.00    -0.364 OA
ATOM     20  H   LIG    1       25.644 -19.617   2.098  0.00  0.00    +0.213 HD
ENDBRANCH   8  19
ENDBRANCH   6   8
BRANCH   1  21
ATOM     21  S   LIG    1       26.650 -14.239   3.241  0.00  0.00    +0.057 S 
ATOM     22  O   LIG    1       26.861 -14.169   1.813  0.00  0.00    -0.153 OA
ATOM     23  O   LIG    1       26.458 -13.050   4.037  0.00  0.00    -0.153 OA
BRANCH  21  24
ATOM     24  N   LIG    1       28.014 -15.021   3.829  0.00  0.00    -0.203 NA
ATOM     25  H   LIG    1       28.458 -14.455   4.553  0.00  0.00    +0.144 HD
ATOM     26  H   LIG    1       27.770 -15.965   4.132  0.00  0.00    +0.144 HD
ENDBRANCH  21  24
ENDBRANCH   1  21
TORSDOF 4
ENDMDL
MODEL 2
REMARK VINA RESULT:      -3.6      1.544      1.939
REMARK  Name = *****
REMARK                            x       y       z     vdW  Elec       q    Type
REMARK                         _______ _______ _______ _____ _____    ______ ____
ROOT
ATOM      1  C   LIG    1       24.824 -15.320   3.910  0.00  0.00    +0.124 A 
ATOM      2  C   LIG    1       23.925 -14.470   4.555  0.00  0.00    +0.067 A 
ATOM      3 CL   LIG    1       24.237 -12.809   4.910  0.00  0.00    -0.082 Cl
ATOM      4  C   LIG    1       22.687 -14.973   4.960  0.00  0.00    +0.022 A 
ATOM      5  C   LIG    1       22.347 -16.309   4.727  0.00  0.00    +0.010 A 
ATOM      6  C   LIG    1       23.239 -17.185   4.086  0.00  0.00    +0.009 A 
ATOM      7  C   LIG    1       24.477 -16.664   3.665  0.00  0.00    +0.038 A 
ENDROOT
BRANCH   6   8
ATOM      8  C   LIG    1       22.868 -18.642   3.835  0.00  0.00    +0.187 C 
ATOM      9  C   LIG    1       23.284 -19.586   4.926  0.00  0.00    +0.019 A 
ATOM     10  C   LIG    1       24.210 -20.502   4.421  0.00  0.00    +0.045 A 
ATOM     11  C   LIG    1       24.805 -21.479   5.196  0.00  0.00    +0.013 A 
ATOM     12  C   LIG    1       24.432 -21.541   6.539  0.00  0.00    +0.001 A 
ATOM     13  C   LIG    1       23.481 -20.644   7.062  0.00  0.00    +0.001 A 
ATOM     14  C   LIG    1       24.392 -20.211   2.997  0.00  0.00    +0.247 C 
ATOM     15  O   LIG    1       25.169 -20.763   2.244  0.00  0.00    -0.270 OA
ATOM     16  C   LIG    1       22.896 -19.660   6.255  0.00  0.00    +0.009 A 
ATOM     17  N   LIG    1       23.530 -19.185   2.683  0.00  0.00    -0.276 N 
ATOM     18  H   LIG    1       23.584 -18.709   1.794  0.00  0.00    +0.152 HD
BRANCH   8  19
ATOM     19  O   LIG    1       21.496 -18.784   3.566  0.00  0.00    -0.364 OA
ATOM     20  H   LIG    1       21.168 -19.316   4.310  0.00  0.00    +0.213 HD
ENDBRANCH   8  19
ENDBRANCH   6   8
BRANCH   1  21
ATOM     21  S   LIG    1       26.410 -14.754   3.380  0.00  0.00    +0.057 S 
ATOM     22  O   LIG    1       26.353 -14.456   1.967  0.00  0.00    -0.153 OA
ATOM     23  O   LIG    1       26.925 -13.801   4.334  0.00  0.00    -0.153 OA
BRANCH  21  24
ATOM     24  N   LIG    1       27.366 -16.130   3.481  0.00  0.00    -0.203 NA
ATOM     25  H   LIG    1       28.346 -15.888   3.333  0.00  0.00    +0.144 HD
ATOM     26  H   LIG    1       27.187 -16.614   4.362  0.00  0.00    +0.144 HD
ENDBRANCH  21  24
ENDBRANCH   1  21
TORSDOF 4
ENDMDL
