MODEL 1
REMARK VINA RESULT:      -4.0      0.000      0.000
REMARK  Name = *****
REMARK                            x       y       z     vdW  Elec       q    Type
REMARK                         _______ _______ _______ _____ _____    ______ ____
ROOT
ATOM      1  C   LIG    1       22.634 -19.780   5.221  0.00  0.00    +0.418 C 
ATOM      2  F   LIG    1       21.656 -20.619   4.815  0.00  0.00    -0.168 F 
ATOM      3  F   LIG    1       22.125 -18.524   5.189  0.00  0.00    -0.168 F 
ATOM      4  F   LIG    1       22.923 -20.062   6.510  0.00  0.00    -0.168 F 
ENDROOT
BRANCH   1   6
ATOM      5  F   LIG    1       23.984 -18.764   3.557  0.00  0.00    -0.240 F 
ATOM      6  C   LIG    1       23.858 -19.874   4.337  0.00  0.00    +0.326 C 
ENDBRANCH   1   6
TORSDOF 1
ENDMDL
MODEL 2
REMARK VINA RESULT:      -4.0      0.059      1.537
REMARK  Name = *****
REMARK                            x       y       z     vdW  Elec       q    Type
REMARK                         _______ _______ _______ _____ _____    ______ ____
ROOT
ATOM      1  C   LIG    1       22.649 -19.766   5.245  0.00  0.00    +0.418 C 
ATOM      2  F   LIG    1       22.924 -20.084   6.529  0.00  0.00    -0.168 F 
ATOM      3  F   LIG    1       21.671 -20.605   4.824  0.00  0.00    -0.168 F 
ATOM      4  F   LIG    1       22.143 -18.515   5.219  0.00  0.00    -0.168 F 
ENDROOT
BRANCH   1   6
ATOM      5  F   LIG    1       23.951 -18.860   3.482  0.00  0.00    -0.240 F 
ATOM      6  C   LIG    1       23.870 -19.898   4.360  0.00  0.00    +0.326 C 
ENDBRANCH   1   6
TORSDOF 1
ENDMDL
MODEL 3
REMARK VINA RESULT:      -3.9      0.028      1.546
REMARK  Name = *****
REMARK                            x       y       z     vdW  Elec       q    Type
REMARK                         _______ _______ _______ _____ _____    ______ ____
ROOT
ATOM      1  C   LIG    1       22.629 -19.756   5.209  0.00  0.00    +0.418 C 
ATOM      2  F   LIG    1       22.133 -18.500   5.192  0.00  0.00    -0.168 F 
ATOM      3  F   LIG    1       22.919 -20.057   6.499  0.00  0.00    -0.168 F 
ATOM      4  F   LIG    1       21.654 -20.601   4.811  0.00  0.00    -0.168 F 
ENDROOT
BRANCH   1   6
ATOM      5  F   LIG    1       24.016 -18.797   3.541  0.00  0.00    -0.240 F 
ATOM      6  C   LIG    1       23.869 -19.883   4.349  0.00  0.00    +0.326 C 
ENDBRANCH   1   6
TORSDOF 1
ENDMDL
MODEL 4
REMARK VINA RESULT:      -3.8      1.132      2.590
REMARK  Name = *****
REMARK                            x       y       z     vdW  Elec       q    Type
REMARK                         _______ _______ _______ _____ _____    ______ ____
ROOT
ATOM      1  C   LIG    1       22.662 -20.259   5.200  0.00  0.00    +0.418 C 
ATOM      2  F   LIG    1       22.291 -19.026   5.607  0.00  0.00    -0.168 F 
ATOM      3  F   LIG    1       21.535 -20.922   4.844  0.00  0.00    -0.168 F 
ATOM      4  F   LIG    1       23.418 -20.128   4.089  0.00  0.00    -0.168 F 
ENDROOT
BRANCH   1   6
ATOM      5  F   LIG    1       23.233 -20.404   7.498  0.00  0.00    -0.240 F 
ATOM      6  C   LIG    1       23.392 -21.014   6.291  0.00  0.00    +0.326 C 
ENDBRANCH   1   6
TORSDOF 1
ENDMDL
MODEL 5
REMARK VINA RESULT:      -3.8      1.176      2.414
REMARK  Name = *****
REMARK                            x       y       z     vdW  Elec       q    Type
REMARK                         _______ _______ _______ _____ _____    ______ ____
ROOT
ATOM      1  C   LIG    1       22.649 -20.322   5.230  0.00  0.00    +0.418 C 
ATOM      2  F   LIG    1       23.453 -20.169   4.155  0.00  0.00    -0.168 F 
ATOM      3  F   LIG    1       22.306 -19.082   5.656  0.00  0.00    -0.168 F 
ATOM      4  F   LIG    1       21.515 -20.934   4.825  0.00  0.00    -0.168 F 
ENDROOT
BRANCH   1   6
ATOM      5  F   LIG    1       23.269 -20.405   7.518  0.00  0.00    -0.240 F 
ATOM      6  C   LIG    1       23.335 -21.087   6.341  0.00  0.00    +0.326 C 
ENDBRANCH   1   6
TORSDOF 1
ENDMDL
MODEL 6
REMARK VINA RESULT:      -3.8      1.196      2.130
REMARK  Name = *****
REMARK                            x       y       z     vdW  Elec       q    Type
REMARK                         _______ _______ _______ _____ _____    ______ ____
ROOT
ATOM      1  C   LIG    1       22.644 -20.123   5.052  0.00  0.00    +0.418 C 
ATOM      2  F   LIG    1       22.750 -19.902   6.381  0.00  0.00    -0.168 F 
ATOM      3  F   LIG    1       23.722 -20.854   4.679  0.00  0.00    -0.168 F 
ATOM      4  F   LIG    1       21.550 -20.884   4.837  0.00  0.00    -0.168 F 
ENDROOT
BRANCH   1   6
ATOM      5  F   LIG    1       22.111 -17.811   5.039  0.00  0.00    -0.240 F 
ATOM      6  C   LIG    1       22.591 -18.828   4.270  0.00  0.00    +0.326 C 
ENDBRANCH   1   6
TORSDOF 1
ENDMDL
MODEL 7
REMARK VINA RESULT:      -3.6      1.907      3.273
REMARK  Name = *****
REMARK                            x       y       z     vdW  Elec       q    Type
REMARK                         _______ _______ _______ _____ _____    ______ ____
ROOT
ATOM      1  C   LIG    1       23.375 -20.563   6.428  0.00  0.00    +0.418 C 
ATOM      2  F   LIG    1       24.608 -20.283   5.953  0.00  0.00    -0.168 F 
ATOM      3  F   LIG    1       23.402 -20.354   7.767  0.00  0.00    -0.168 F 
ATOM      4  F   LIG    1       22.508 -19.672   5.901  0.00  0.00    -0.168 F 
ENDROOT
BRANCH   1   6
ATOM      5  F   LIG    1       22.827 -22.710   7.276  0.00  0.00    -0.240 F 
ATOM      6  C   LIG    1       22.967 -21.990   6.128  0.00  0.00    +0.326 C 
ENDBRANCH   1   6
TORSDOF 1
ENDMDL
MODEL 8
REMARK VINA RESULT:      -3.6      4.848      5.687
REMARK  Name = *****
REMARK                            x       y       z     vdW  Elec       q    Type
REMARK                         _______ _______ _______ _____ _____    ______ ____
ROOT
ATOM      1  C   LIG    1       24.435 -24.514   6.376  0.00  0.00    +0.418 C 
ATOM      2  F   LIG    1       23.799 -25.702   6.463  0.00  0.00    -0.168 F 
ATOM      3  F   LIG    1       25.497 -24.563   7.217  0.00  0.00    -0.168 F 
ATOM      4  F   LIG    1       24.922 -24.387   5.124  0.00  0.00    -0.168 F 
ENDROOT
BRANCH   1   6
ATOM      5  F   LIG    1       22.236 -23.780   6.880  0.00  0.00    -0.240 F 
ATOM      6  C   LIG    1       23.525 -23.362   6.746  0.00  0.00    +0.326 C 
ENDBRANCH   1   6
TORSDOF 1
ENDMDL
MODEL 9
REMARK VINA RESULT:      -3.6      4.854      5.710
REMARK  Name = *****
REMARK                            x       y       z     vdW  Elec       q    Type
REMARK                         _______ _______ _______ _____ _____    ______ ____
ROOT
ATOM      1  C   LIG    1       24.452 -24.517   6.398  0.00  0.00    +0.418 C 
ATOM      2  F   LIG    1       25.507 -24.592   7.237  0.00  0.00    -0.168 F 
ATOM      3  F   LIG    1       24.944 -24.364   5.145  0.00  0.00    -0.168 F 
ATOM      4  F   LIG    1       23.801 -25.700   6.432  0.00  0.00    -0.168 F 
ENDROOT
BRANCH   1   6
ATOM      5  F   LIG    1       22.250 -23.785   6.892  0.00  0.00    -0.240 F 
ATOM      6  C   LIG    1       23.537 -23.362   6.747  0.00  0.00    +0.326 C 
ENDBRANCH   1   6
TORSDOF 1
ENDMDL
