MODEL 1
REMARK VINA RESULT:      -9.1      0.000      0.000
REMARK  Name = *****
REMARK                            x       y       z     vdW  Elec       q    Type
REMARK                         _______ _______ _______ _____ _____    ______ ____
ROOT
ATOM      1  C   LIG    1       25.591 -21.582   6.439  0.00  0.00    +0.139 C 
ENDROOT
BRANCH   1   2
ATOM      2  C   LIG    1       24.641 -20.668   5.632  0.00  0.00    -0.028 A 
ATOM      3  C   LIG    1       25.061 -20.108   4.404  0.00  0.00    +0.005 A 
ATOM      4  C   LIG    1       24.234 -19.250   3.662  0.00  0.00    +0.000 A 
ATOM      5  C   LIG    1       22.964 -18.927   4.128  0.00  0.00    +0.000 A 
ATOM      6  C   LIG    1       22.515 -19.489   5.321  0.00  0.00    +0.000 A 
ATOM      7  C   LIG    1       23.337 -20.359   6.059  0.00  0.00    +0.005 A 
ENDBRANCH   1   2
BRANCH   1   8
ATOM      8  C   LIG    1       25.162 -23.052   6.482  0.00  0.00    -0.028 A 
ATOM      9  C   LIG    1       26.147 -24.058   6.557  0.00  0.00    +0.005 A 
ATOM     10  C   LIG    1       25.798 -25.414   6.587  0.00  0.00    +0.000 A 
ATOM     11  C   LIG    1       24.461 -25.795   6.532  0.00  0.00    +0.000 A 
ATOM     12  C   LIG    1       23.473 -24.821   6.471  0.00  0.00    +0.000 A 
ATOM     13  C   LIG    1       23.821 -23.467   6.443  0.00  0.00    +0.005 A 
ENDBRANCH   1   8
BRANCH   1  14
ATOM     14  S   LIG    1       26.084 -20.816   8.076  0.00  0.00    +0.043 S 
ATOM     15  O   LIG    1       25.506 -21.601   9.223  0.00  0.00    -0.256 OA
BRANCH  14  16
ATOM     16  C   LIG    1       27.870 -21.155   8.006  0.00  0.00    +0.200 C 
BRANCH  16  20
ATOM     17  N   LIG    1       28.839 -19.591   6.338  0.00  0.00    -0.329 N 
ATOM     18  H   LIG    1       28.428 -20.127   5.592  0.00  0.00    +0.145 HD
ATOM     19  H   LIG    1       29.393 -18.772   6.105  0.00  0.00    +0.145 HD
ATOM     20  C   LIG    1       28.744 -19.938   7.667  0.00  0.00    +0.223 C 
ATOM     21  O   LIG    1       29.270 -19.248   8.531  0.00  0.00    -0.275 OA
ENDBRANCH  16  20
ENDBRANCH  14  16
ENDBRANCH   1  14
TORSDOF 5
ENDMDL
MODEL 2
REMARK VINA RESULT:      -9.1      0.848      4.520
REMARK  Name = *****
REMARK                            x       y       z     vdW  Elec       q    Type
REMARK                         _______ _______ _______ _____ _____    ______ ____
ROOT
ATOM      1  C   LIG    1       24.373 -21.455   7.154  0.00  0.00    +0.139 C 
ENDROOT
BRANCH   1   2
ATOM      2  C   LIG    1       24.601 -22.955   6.858  0.00  0.00    -0.028 A 
ATOM      3  C   LIG    1       23.500 -23.814   6.636  0.00  0.00    +0.005 A 
ATOM      4  C   LIG    1       23.672 -25.187   6.395  0.00  0.00    +0.000 A 
ATOM      5  C   LIG    1       24.948 -25.738   6.367  0.00  0.00    +0.000 A 
ATOM      6  C   LIG    1       26.051 -24.907   6.553  0.00  0.00    +0.000 A 
ATOM      7  C   LIG    1       25.882 -23.530   6.782  0.00  0.00    +0.005 A 
ENDBRANCH   1   2
BRANCH   1   8
ATOM      8  C   LIG    1       24.034 -20.615   5.919  0.00  0.00    -0.028 A 
ATOM      9  C   LIG    1       22.828 -19.886   5.889  0.00  0.00    +0.005 A 
ATOM     10  C   LIG    1       22.473 -19.114   4.775  0.00  0.00    +0.000 A 
ATOM     11  C   LIG    1       23.310 -19.062   3.664  0.00  0.00    +0.000 A 
ATOM     12  C   LIG    1       24.510 -19.761   3.676  0.00  0.00    +0.000 A 
ATOM     13  C   LIG    1       24.864 -20.530   4.789  0.00  0.00    +0.005 A 
ENDBRANCH   1   8
BRANCH   1  14
ATOM     14  S   LIG    1       25.684 -20.756   8.296  0.00  0.00    +0.043 S 
ATOM     15  O   LIG    1       26.218 -21.828   9.207  0.00  0.00    -0.256 OA
BRANCH  14  16
ATOM     16  C   LIG    1       26.959 -20.389   7.050  0.00  0.00    +0.200 C 
BRANCH  16  20
ATOM     17  N   LIG    1       29.272 -21.287   6.974  0.00  0.00    -0.329 N 
ATOM     18  H   LIG    1       28.997 -21.948   6.267  0.00  0.00    +0.145 HD
ATOM     19  H   LIG    1       30.235 -21.291   7.298  0.00  0.00    +0.145 HD
ATOM     20  C   LIG    1       28.401 -20.409   7.579  0.00  0.00    +0.223 C 
ATOM     21  O   LIG    1       28.795 -19.632   8.439  0.00  0.00    -0.275 OA
ENDBRANCH  16  20
ENDBRANCH  14  16
ENDBRANCH   1  14
TORSDOF 5
ENDMDL
MODEL 3
REMARK VINA RESULT:      -8.9      0.814      4.290
REMARK  Name = *****
REMARK                            x       y       z     vdW  Elec       q    Type
REMARK                         _______ _______ _______ _____ _____    ______ ____
ROOT
ATOM      1  C   LIG    1       24.338 -21.329   7.154  0.00  0.00    +0.139 C 
ENDROOT
BRANCH   1   2
ATOM      2  C   LIG    1       24.492 -22.845   6.895  0.00  0.00    -0.028 A 
ATOM      3  C   LIG    1       25.773 -23.442   6.898  0.00  0.00    +0.005 A 
ATOM      4  C   LIG    1       25.950 -24.811   6.637  0.00  0.00    +0.000 A 
ATOM      5  C   LIG    1       24.852 -25.619   6.366  0.00  0.00    +0.000 A 
ATOM      6  C   LIG    1       23.575 -25.060   6.387  0.00  0.00    +0.000 A 
ATOM      7  C   LIG    1       23.395 -23.693   6.661  0.00  0.00    +0.005 A 
ENDBRANCH   1   2
BRANCH   1   8
ATOM      8  C   LIG    1       23.976 -20.513   5.909  0.00  0.00    -0.028 A 
ATOM      9  C   LIG    1       24.904 -20.414   4.853  0.00  0.00    +0.005 A 
ATOM     10  C   LIG    1       24.618 -19.669   3.702  0.00  0.00    +0.000 A 
ATOM     11  C   LIG    1       23.404 -19.000   3.585  0.00  0.00    +0.000 A 
ATOM     12  C   LIG    1       22.468 -19.095   4.606  0.00  0.00    +0.000 A 
ATOM     13  C   LIG    1       22.753 -19.840   5.754  0.00  0.00    +0.005 A 
ENDBRANCH   1   8
BRANCH   1  14
ATOM     14  S   LIG    1       25.725 -20.650   8.214  0.00  0.00    +0.043 S 
ATOM     15  O   LIG    1       25.886 -21.471   9.464  0.00  0.00    -0.256 OA
BRANCH  14  16
ATOM     16  C   LIG    1       27.120 -21.030   7.108  0.00  0.00    +0.200 C 
BRANCH  16  20
ATOM     17  N   LIG    1       29.596 -20.994   6.931  0.00  0.00    -0.329 N 
ATOM     18  H   LIG    1       29.558 -21.687   6.202  0.00  0.00    +0.145 HD
ATOM     19  H   LIG    1       30.504 -20.648   7.230  0.00  0.00    +0.145 HD
ATOM     20  C   LIG    1       28.486 -20.526   7.598  0.00  0.00    +0.223 C 
ATOM     21  O   LIG    1       28.597 -19.685   8.481  0.00  0.00    -0.275 OA
ENDBRANCH  16  20
ENDBRANCH  14  16
ENDBRANCH   1  14
TORSDOF 5
ENDMDL
MODEL 4
REMARK VINA RESULT:      -8.8      2.433      5.395
REMARK  Name = *****
REMARK                            x       y       z     vdW  Elec       q    Type
REMARK                         _______ _______ _______ _____ _____    ______ ____
ROOT
ATOM      1  C   LIG    1       26.195 -21.328   5.821  0.00  0.00    +0.139 C 
ENDROOT
BRANCH   1   2
ATOM      2  C   LIG    1       27.354 -20.437   6.323  0.00  0.00    -0.028 A 
ATOM      3  C   LIG    1       28.091 -19.646   5.414  0.00  0.00    +0.005 A 
ATOM      4  C   LIG    1       29.169 -18.849   5.833  0.00  0.00    +0.000 A 
ATOM      5  C   LIG    1       29.539 -18.822   7.174  0.00  0.00    +0.000 A 
ATOM      6  C   LIG    1       28.810 -19.571   8.095  0.00  0.00    +0.000 A 
ATOM      7  C   LIG    1       27.722 -20.359   7.678  0.00  0.00    +0.005 A 
ENDBRANCH   1   2
BRANCH   1   8
ATOM      8  C   LIG    1       24.965 -20.549   5.345  0.00  0.00    -0.028 A 
ATOM      9  C   LIG    1       25.019 -19.855   4.119  0.00  0.00    +0.005 A 
ATOM     10  C   LIG    1       23.921 -19.121   3.652  0.00  0.00    +0.000 A 
ATOM     11  C   LIG    1       22.751 -19.057   4.402  0.00  0.00    +0.000 A 
ATOM     12  C   LIG    1       22.670 -19.744   5.606  0.00  0.00    +0.000 A 
ATOM     13  C   LIG    1       23.765 -20.479   6.071  0.00  0.00    +0.005 A 
ENDBRANCH   1   8
BRANCH   1  14
ATOM     14  S   LIG    1       25.867 -22.771   6.971  0.00  0.00    +0.043 S 
ATOM     15  O   LIG    1       24.853 -22.394   8.017  0.00  0.00    -0.256 OA
BRANCH  14  16
ATOM     16  C   LIG    1       25.059 -23.885   5.781  0.00  0.00    +0.200 C 
BRANCH  16  20
ATOM     17  N   LIG    1       22.728 -23.863   6.634  0.00  0.00    -0.329 N 
ATOM     18  H   LIG    1       22.716 -22.858   6.585  0.00  0.00    +0.145 HD
ATOM     19  H   LIG    1       21.900 -24.346   6.970  0.00  0.00    +0.145 HD
ATOM     20  C   LIG    1       23.830 -24.628   6.326  0.00  0.00    +0.223 C 
ATOM     21  O   LIG    1       23.785 -25.849   6.409  0.00  0.00    -0.275 OA
ENDBRANCH  16  20
ENDBRANCH  14  16
ENDBRANCH   1  14
TORSDOF 5
ENDMDL
MODEL 5
REMARK VINA RESULT:      -8.6      2.639      5.284
REMARK  Name = *****
REMARK                            x       y       z     vdW  Elec       q    Type
REMARK                         _______ _______ _______ _____ _____    ______ ____
ROOT
ATOM      1  C   LIG    1       25.499 -21.444   5.979  0.00  0.00    +0.139 C 
ENDROOT
BRANCH   1   2
ATOM      2  C   LIG    1       26.755 -20.730   6.527  0.00  0.00    -0.028 A 
ATOM      3  C   LIG    1       27.686 -20.143   5.641  0.00  0.00    +0.005 A 
ATOM      4  C   LIG    1       28.852 -19.513   6.106  0.00  0.00    +0.000 A 
ATOM      5  C   LIG    1       29.119 -19.453   7.469  0.00  0.00    +0.000 A 
ATOM      6  C   LIG    1       28.202 -19.999   8.365  0.00  0.00    +0.000 A 
ATOM      7  C   LIG    1       27.028 -20.618   7.902  0.00  0.00    +0.005 A 
ENDBRANCH   1   2
BRANCH   1   8
ATOM      8  C   LIG    1       24.469 -20.506   5.343  0.00  0.00    -0.028 A 
ATOM      9  C   LIG    1       24.747 -19.921   4.091  0.00  0.00    +0.005 A 
ATOM     10  C   LIG    1       23.838 -19.048   3.480  0.00  0.00    +0.000 A 
ATOM     11  C   LIG    1       22.638 -18.733   4.110  0.00  0.00    +0.000 A 
ATOM     12  C   LIG    1       22.337 -19.307   5.337  0.00  0.00    +0.000 A 
ATOM     13  C   LIG    1       23.243 -20.180   5.946  0.00  0.00    +0.005 A 
ENDBRANCH   1   8
BRANCH   1  14
ATOM     14  S   LIG    1       24.829 -22.714   7.183  0.00  0.00    +0.043 S 
ATOM     15  O   LIG    1       23.446 -23.148   6.778  0.00  0.00    -0.256 OA
BRANCH  14  16
ATOM     16  C   LIG    1       25.978 -24.075   6.807  0.00  0.00    +0.200 C 
BRANCH  16  20
ATOM     17  N   LIG    1       24.867 -24.793   4.706  0.00  0.00    -0.329 N 
ATOM     18  H   LIG    1       24.785 -23.832   4.417  0.00  0.00    +0.145 HD
ATOM     19  H   LIG    1       24.503 -25.520   4.097  0.00  0.00    +0.145 HD
ATOM     20  C   LIG    1       25.395 -25.182   5.916  0.00  0.00    +0.223 C 
ATOM     21  O   LIG    1       25.465 -26.368   6.214  0.00  0.00    -0.275 OA
ENDBRANCH  16  20
ENDBRANCH  14  16
ENDBRANCH   1  14
TORSDOF 5
ENDMDL
MODEL 6
REMARK VINA RESULT:      -8.4      2.952      4.492
REMARK  Name = *****
REMARK                            x       y       z     vdW  Elec       q    Type
REMARK                         _______ _______ _______ _____ _____    ______ ____
ROOT
ATOM      1  C   LIG    1       24.942 -21.266   6.889  0.00  0.00    +0.139 C 
ENDROOT
BRANCH   1   2
ATOM      2  C   LIG    1       24.201 -20.505   5.767  0.00  0.00    -0.028 A 
ATOM      3  C   LIG    1       24.791 -20.361   4.491  0.00  0.00    +0.005 A 
ATOM      4  C   LIG    1       24.157 -19.650   3.459  0.00  0.00    +0.000 A 
ATOM      5  C   LIG    1       22.915 -19.064   3.675  0.00  0.00    +0.000 A 
ATOM      6  C   LIG    1       22.297 -19.216   4.915  0.00  0.00    +0.000 A 
ATOM      7  C   LIG    1       22.926 -19.939   5.945  0.00  0.00    +0.005 A 
ENDBRANCH   1   2
BRANCH   1   8
ATOM      8  C   LIG    1       26.456 -21.033   6.911  0.00  0.00    -0.028 A 
ATOM      9  C   LIG    1       27.244 -21.701   7.871  0.00  0.00    +0.005 A 
ATOM     10  C   LIG    1       28.630 -21.508   7.934  0.00  0.00    +0.000 A 
ATOM     11  C   LIG    1       29.257 -20.639   7.046  0.00  0.00    +0.000 A 
ATOM     12  C   LIG    1       28.503 -19.981   6.084  0.00  0.00    +0.000 A 
ATOM     13  C   LIG    1       27.120 -20.175   6.020  0.00  0.00    +0.005 A 
ENDBRANCH   1   8
BRANCH   1  14
ATOM     14  S   LIG    1       24.376 -23.046   7.026  0.00  0.00    +0.043 S 
ATOM     15  O   LIG    1       22.879 -23.136   6.901  0.00  0.00    -0.256 OA
BRANCH  14  16
ATOM     16  C   LIG    1       25.109 -23.682   5.487  0.00  0.00    +0.200 C 
BRANCH  16  20
ATOM     17  N   LIG    1       23.839 -25.813   5.385  0.00  0.00    -0.329 N 
ATOM     18  H   LIG    1       22.984 -25.317   5.572  0.00  0.00    +0.145 HD
ATOM     19  H   LIG    1       23.803 -26.821   5.263  0.00  0.00    +0.145 HD
ATOM     20  C   LIG    1       25.076 -25.211   5.342  0.00  0.00    +0.223 C 
ATOM     21  O   LIG    1       26.083 -25.870   5.114  0.00  0.00    -0.275 OA
ENDBRANCH  16  20
ENDBRANCH  14  16
ENDBRANCH   1  14
TORSDOF 5
ENDMDL
MODEL 7
REMARK VINA RESULT:      -7.9      2.515      4.942
REMARK  Name = *****
REMARK                            x       y       z     vdW  Elec       q    Type
REMARK                         _______ _______ _______ _____ _____    ______ ____
ROOT
ATOM      1  C   LIG    1       25.984 -21.138   6.760  0.00  0.00    +0.139 C 
ENDROOT
BRANCH   1   2
ATOM      2  C   LIG    1       24.887 -20.539   5.852  0.00  0.00    -0.028 A 
ATOM      3  C   LIG    1       25.184 -20.175   4.519  0.00  0.00    +0.005 A 
ATOM      4  C   LIG    1       24.218 -19.600   3.677  0.00  0.00    +0.000 A 
ATOM      5  C   LIG    1       22.929 -19.373   4.146  0.00  0.00    +0.000 A 
ATOM      6  C   LIG    1       22.602 -19.749   5.447  0.00  0.00    +0.000 A 
ATOM      7  C   LIG    1       23.565 -20.337   6.286  0.00  0.00    +0.005 A 
ENDBRANCH   1   2
BRANCH   1   8
ATOM      8  C   LIG    1       27.303 -20.359   6.752  0.00  0.00    -0.028 A 
ATOM      9  C   LIG    1       28.036 -20.228   7.949  0.00  0.00    +0.005 A 
ATOM     10  C   LIG    1       29.241 -19.514   7.988  0.00  0.00    +0.000 A 
ATOM     11  C   LIG    1       29.733 -18.908   6.836  0.00  0.00    +0.000 A 
ATOM     12  C   LIG    1       29.034 -19.034   5.643  0.00  0.00    +0.000 A 
ATOM     13  C   LIG    1       27.833 -19.749   5.604  0.00  0.00    +0.005 A 
ENDBRANCH   1   8
BRANCH   1  14
ATOM     14  S   LIG    1       26.121 -22.997   6.567  0.00  0.00    +0.043 S 
ATOM     15  O   LIG    1       26.020 -23.677   7.906  0.00  0.00    -0.256 OA
BRANCH  14  16
ATOM     16  C   LIG    1       24.565 -23.290   5.669  0.00  0.00    +0.200 C 
BRANCH  16  20
ATOM     17  N   LIG    1       24.104 -25.631   6.355  0.00  0.00    -0.329 N 
ATOM     18  H   LIG    1       24.970 -25.928   5.937  0.00  0.00    +0.145 HD
ATOM     19  H   LIG    1       23.511 -26.327   6.799  0.00  0.00    +0.145 HD
ATOM     20  C   LIG    1       23.639 -24.336   6.309  0.00  0.00    +0.223 C 
ATOM     21  O   LIG    1       22.574 -24.036   6.832  0.00  0.00    -0.275 OA
ENDBRANCH  16  20
ENDBRANCH  14  16
ENDBRANCH   1  14
TORSDOF 5
ENDMDL
MODEL 8
REMARK VINA RESULT:      -7.9      3.113      4.782
REMARK  Name = *****
REMARK                            x       y       z     vdW  Elec       q    Type
REMARK                         _______ _______ _______ _____ _____    ______ ____
ROOT
ATOM      1  C   LIG    1       24.778 -20.826   6.156  0.00  0.00    +0.139 C 
ENDROOT
BRANCH   1   2
ATOM      2  C   LIG    1       26.235 -20.454   6.512  0.00  0.00    -0.028 A 
ATOM      3  C   LIG    1       27.130 -20.028   5.504  0.00  0.00    +0.005 A 
ATOM      4  C   LIG    1       28.469 -19.713   5.789  0.00  0.00    +0.000 A 
ATOM      5  C   LIG    1       28.948 -19.814   7.090  0.00  0.00    +0.000 A 
ATOM      6  C   LIG    1       28.079 -20.203   8.107  0.00  0.00    +0.000 A 
ATOM      7  C   LIG    1       26.735 -20.507   7.825  0.00  0.00    +0.005 A 
ENDBRANCH   1   2
BRANCH   1   8
ATOM      8  C   LIG    1       24.466 -22.321   6.266  0.00  0.00    -0.028 A 
ATOM      9  C   LIG    1       25.470 -23.262   5.956  0.00  0.00    +0.005 A 
ATOM     10  C   LIG    1       25.223 -24.638   6.032  0.00  0.00    +0.000 A 
ATOM     11  C   LIG    1       23.968 -25.105   6.410  0.00  0.00    +0.000 A 
ATOM     12  C   LIG    1       22.968 -24.197   6.734  0.00  0.00    +0.000 A 
ATOM     13  C   LIG    1       23.215 -22.823   6.659  0.00  0.00    +0.005 A 
ENDBRANCH   1   8
BRANCH   1  14
ATOM     14  S   LIG    1       24.195 -19.971   4.594  0.00  0.00    +0.043 S 
ATOM     15  O   LIG    1       24.096 -20.954   3.458  0.00  0.00    -0.256 OA
BRANCH  14  16
ATOM     16  C   LIG    1       22.506 -19.557   5.127  0.00  0.00    +0.200 C 
BRANCH  16  20
ATOM     17  N   LIG    1       22.453 -17.136   4.576  0.00  0.00    -0.329 N 
ATOM     18  H   LIG    1       23.214 -16.971   5.213  0.00  0.00    +0.145 HD
ATOM     19  H   LIG    1       22.057 -16.348   4.072  0.00  0.00    +0.145 HD
ATOM     20  C   LIG    1       21.870 -18.369   4.388  0.00  0.00    +0.223 C 
ATOM     21  O   LIG    1       20.942 -18.507   3.602  0.00  0.00    -0.275 OA
ENDBRANCH  16  20
ENDBRANCH  14  16
ENDBRANCH   1  14
TORSDOF 5
ENDMDL
MODEL 9
REMARK VINA RESULT:      -7.5      2.487      4.285
REMARK  Name = *****
REMARK                            x       y       z     vdW  Elec       q    Type
REMARK                         _______ _______ _______ _____ _____    ______ ____
ROOT
ATOM      1  C   LIG    1       24.920 -22.490   7.346  0.00  0.00    +0.139 C 
ENDROOT
BRANCH   1   2
ATOM      2  C   LIG    1       26.192 -21.639   7.129  0.00  0.00    -0.028 A 
ATOM      3  C   LIG    1       27.223 -21.637   8.095  0.00  0.00    +0.005 A 
ATOM      4  C   LIG    1       28.378 -20.852   7.943  0.00  0.00    +0.000 A 
ATOM      5  C   LIG    1       28.532 -20.047   6.820  0.00  0.00    +0.000 A 
ATOM      6  C   LIG    1       27.544 -20.053   5.838  0.00  0.00    +0.000 A 
ATOM      7  C   LIG    1       26.393 -20.849   5.983  0.00  0.00    +0.005 A 
ENDBRANCH   1   2
BRANCH   1   8
ATOM      8  C   LIG    1       25.013 -23.912   6.785  0.00  0.00    -0.028 A 
ATOM      9  C   LIG    1       23.829 -24.612   6.475  0.00  0.00    +0.005 A 
ATOM     10  C   LIG    1       23.868 -25.918   5.972  0.00  0.00    +0.000 A 
ATOM     11  C   LIG    1       25.089 -26.557   5.776  0.00  0.00    +0.000 A 
ATOM     12  C   LIG    1       26.269 -25.883   6.061  0.00  0.00    +0.000 A 
ATOM     13  C   LIG    1       26.229 -24.578   6.562  0.00  0.00    +0.005 A 
ENDBRANCH   1   8
BRANCH   1  14
ATOM     14  S   LIG    1       23.359 -21.539   6.937  0.00  0.00    +0.043 S 
ATOM     15  O   LIG    1       23.397 -20.167   7.555  0.00  0.00    -0.256 OA
BRANCH  14  16
ATOM     16  C   LIG    1       23.616 -21.355   5.145  0.00  0.00    +0.200 C 
BRANCH  16  20
ATOM     17  N   LIG    1       22.260 -19.275   5.154  0.00  0.00    -0.329 N 
ATOM     18  H   LIG    1       21.646 -19.674   5.844  0.00  0.00    +0.145 HD
ATOM     19  H   LIG    1       22.071 -18.336   4.814  0.00  0.00    +0.145 HD
ATOM     20  C   LIG    1       23.319 -19.953   4.592  0.00  0.00    +0.223 C 
ATOM     21  O   LIG    1       24.028 -19.416   3.751  0.00  0.00    -0.275 OA
ENDBRANCH  16  20
ENDBRANCH  14  16
ENDBRANCH   1  14
TORSDOF 5
ENDMDL
