MODEL 1
REMARK VINA RESULT:      12.7      0.000      0.000
REMARK  Name = *****
REMARK                            x       y       z     vdW  Elec       q    Type
REMARK                         _______ _______ _______ _____ _____    ______ ____
ROOT
ATOM      1  C   LIG    1       25.618 -14.268   4.140  0.00  0.00    +0.064 A 
ATOM      2  C   LIG    1       26.650 -15.204   3.958  0.00  0.00    +0.049 A 
ATOM      3  I   LIG    1       27.452 -14.714   1.812  0.00  0.00    -0.041 I 
ATOM      4  C   LIG    1       26.427 -16.594   4.072  0.00  0.00    +0.065 A 
ATOM      5  C   LIG    1       25.098 -17.062   4.147  0.00  0.00    +0.040 A 
ATOM      6  I   LIG    1       24.930 -18.282   2.101  0.00  0.00    -0.042 I 
ATOM      7  C   LIG    1       24.028 -16.163   4.273  0.00  0.00    +0.065 A 
ATOM      8  C   LIG    1       24.309 -14.795   4.096  0.00  0.00    +0.049 A 
ATOM      9  I   LIG    1       23.287 -14.412   1.921  0.00  0.00    -0.041 I 
ENDROOT
BRANCH   7  10
ATOM     10  C   LIG    1       22.738 -16.546   4.940  0.00  0.00    +0.246 C 
ATOM     11  N   LIG    1       22.259 -17.850   4.864  0.00  0.00    -0.309 N 
ATOM     12  H   LIG    1       21.433 -17.981   5.437  0.00  0.00    +0.149 HD
ATOM     13  O   LIG    1       22.082 -15.711   5.537  0.00  0.00    -0.270 OA
BRANCH  11  14
ATOM     14  C   LIG    1       22.816 -19.029   4.192  0.00  0.00    +0.132 C 
BRANCH  14  15
ATOM     15  C   LIG    1       22.602 -20.328   4.942  0.00  0.00    +0.174 C 
BRANCH  15  16
ATOM     16  O   LIG    1       22.443 -21.402   4.033  0.00  0.00    -0.394 OA
ATOM     17  H   LIG    1       23.247 -21.948   4.081  0.00  0.00    +0.209 HD
ENDBRANCH  15  16
ENDBRANCH  14  15
ENDBRANCH  11  14
ENDBRANCH   7  10
BRANCH   1  20
ATOM     18  C   LIG    1       23.571 -12.140   4.744  0.00  0.00    +0.110 C 
ATOM     19  C   LIG    1       24.893 -12.233   5.459  0.00  0.00    +0.217 C 
ATOM     20  N   LIG    1       25.891 -13.113   4.988  0.00  0.00    -0.267 N 
ATOM     21  O   LIG    1       25.056 -11.448   6.397  0.00  0.00    -0.276 OA
BRANCH  20  22
ATOM     22  C   LIG    1       27.216 -13.104   5.678  0.00  0.00    +0.147 C 
BRANCH  22  23
ATOM     23  C   LIG    1       28.289 -12.149   5.068  0.00  0.00    +0.158 C 
BRANCH  23  24
ATOM     24  O   LIG    1       29.227 -11.778   6.090  0.00  0.00    -0.388 OA
ATOM     25  H   LIG    1       29.461 -12.612   6.544  0.00  0.00    +0.210 HD
ENDBRANCH  23  24
BRANCH  23  26
ATOM     26  C   LIG    1       29.074 -12.778   3.917  0.00  0.00    +0.188 C 
BRANCH  26  27
ATOM     27  O   LIG    1       29.234 -11.792   2.901  0.00  0.00    -0.392 OA
ATOM     28  H   LIG    1       28.504 -11.910   2.268  0.00  0.00    +0.209 HD
ENDBRANCH  26  27
ENDBRANCH  23  26
ENDBRANCH  22  23
ENDBRANCH  20  22
ENDBRANCH   1  20
BRANCH   4  29
ATOM     29  C   LIG    1       27.453 -17.459   4.708  0.00  0.00    +0.246 C 
ATOM     30  N   LIG    1       27.354 -18.796   4.557  0.00  0.00    -0.309 N 
ATOM     31  H   LIG    1       26.566 -19.201   4.035  0.00  0.00    +0.149 HD
ATOM     32  O   LIG    1       28.413 -16.918   5.330  0.00  0.00    -0.270 OA
BRANCH  30  33
ATOM     33  C   LIG    1       28.245 -19.770   5.192  0.00  0.00    +0.138 C 
BRANCH  33  34
ATOM     34  C   LIG    1       27.481 -20.986   5.745  0.00  0.00    +0.157 C 
BRANCH  34  35
ATOM     35  O   LIG    1       27.982 -21.287   7.057  0.00  0.00    -0.388 OA
ATOM     36  H   LIG    1       28.836 -20.833   7.167  0.00  0.00    +0.210 HD
ENDBRANCH  34  35
BRANCH  34  37
ATOM     37  C   LIG    1       25.963 -20.747   5.782  0.00  0.00    +0.188 C 
BRANCH  37  38
ATOM     38  O   LIG    1       25.472 -20.353   4.500  0.00  0.00    -0.392 OA
ATOM     39  H   LIG    1       26.213 -20.467   3.874  0.00  0.00    +0.209 HD
ENDBRANCH  37  38
ENDBRANCH  34  37
ENDBRANCH  33  34
ENDBRANCH  30  33
ENDBRANCH   4  29
TORSDOF 16
ENDMDL
MODEL 2
REMARK VINA RESULT:      14.8      1.820      7.299
REMARK  Name = *****
REMARK                            x       y       z     vdW  Elec       q    Type
REMARK                         _______ _______ _______ _____ _____    ______ ____
ROOT
ATOM      1  C   LIG    1       24.427 -19.015   4.480  0.00  0.00    +0.064 A 
ATOM      2  C   LIG    1       23.516 -17.948   4.399  0.00  0.00    +0.049 A 
ATOM      3  I   LIG    1       22.177 -18.519   2.563  0.00  0.00    -0.041 I 
ATOM      4  C   LIG    1       23.944 -16.608   4.271  0.00  0.00    +0.065 A 
ATOM      5  C   LIG    1       25.304 -16.356   3.994  0.00  0.00    +0.040 A 
ATOM      6  I   LIG    1       25.152 -15.394   1.813  0.00  0.00    -0.042 I 
ATOM      7  C   LIG    1       26.243 -17.398   4.008  0.00  0.00    +0.065 A 
ATOM      8  C   LIG    1       25.747 -18.713   4.083  0.00  0.00    +0.049 A 
ATOM      9  I   LIG    1       26.174 -19.476   1.812  0.00  0.00    -0.041 I 
ENDROOT
BRANCH   7  10
ATOM     10  C   LIG    1       27.692 -17.162   4.323  0.00  0.00    +0.246 C 
ATOM     11  N   LIG    1       28.194 -15.869   4.432  0.00  0.00    -0.309 N 
ATOM     12  H   LIG    1       29.161 -15.865   4.739  0.00  0.00    +0.149 HD
ATOM     13  O   LIG    1       28.453 -18.104   4.464  0.00  0.00    -0.270 OA
BRANCH  11  14
ATOM     14  C   LIG    1       27.524 -14.573   4.278  0.00  0.00    +0.132 C 
BRANCH  14  15
ATOM     15  C   LIG    1       28.415 -13.477   3.730  0.00  0.00    +0.174 C 
BRANCH  15  16
ATOM     16  O   LIG    1       28.748 -12.556   4.753  0.00  0.00    -0.394 OA
ATOM     17  H   LIG    1       28.533 -12.974   5.605  0.00  0.00    +0.209 HD
ENDBRANCH  15  16
ENDBRANCH  14  15
ENDBRANCH  11  14
ENDBRANCH   7  10
BRANCH   1  20
ATOM     18  C   LIG    1       22.348 -18.729   6.644  0.00  0.00    +0.110 C 
ATOM     19  C   LIG    1       23.102 -20.009   6.394  0.00  0.00    +0.217 C 
ATOM     20  N   LIG    1       24.207 -20.018   5.515  0.00  0.00    -0.267 N 
ATOM     21  O   LIG    1       22.744 -20.985   7.058  0.00  0.00    -0.276 OA
BRANCH  20  22
ATOM     22  C   LIG    1       24.976 -21.292   5.369  0.00  0.00    +0.147 C 
BRANCH  22  23
ATOM     23  C   LIG    1       26.289 -21.388   6.207  0.00  0.00    +0.158 C 
BRANCH  23  24
ATOM     24  O   LIG    1       27.405 -21.559   5.320  0.00  0.00    -0.388 OA
ATOM     25  H   LIG    1       27.097 -21.238   4.449  0.00  0.00    +0.210 HD
ENDBRANCH  23  24
BRANCH  23  26
ATOM     26  C   LIG    1       26.553 -20.147   7.061  0.00  0.00    +0.188 C 
BRANCH  26  27
ATOM     27  O   LIG    1       27.816 -19.609   6.678  0.00  0.00    -0.392 OA
ATOM     28  H   LIG    1       28.168 -20.177   5.971  0.00  0.00    +0.209 HD
ENDBRANCH  26  27
ENDBRANCH  23  26
ENDBRANCH  22  23
ENDBRANCH  20  22
ENDBRANCH   1  20
BRANCH   4  29
ATOM     29  C   LIG    1       23.220 -15.529   4.991  0.00  0.00    +0.246 C 
ATOM     30  N   LIG    1       23.528 -14.246   4.708  0.00  0.00    -0.309 N 
ATOM     31  H   LIG    1       24.271 -14.029   4.030  0.00  0.00    +0.149 HD
ATOM     32  O   LIG    1       22.305 -15.840   5.807  0.00  0.00    -0.270 OA
BRANCH  30  33
ATOM     33  C   LIG    1       22.956 -13.085   5.394  0.00  0.00    +0.138 C 
BRANCH  33  34
ATOM     34  C   LIG    1       23.846 -11.837   5.273  0.00  0.00    +0.157 C 
BRANCH  34  35
ATOM     35  O   LIG    1       25.027 -12.033   6.065  0.00  0.00    -0.388 OA
ATOM     36  H   LIG    1       25.204 -12.990   6.111  0.00  0.00    +0.210 HD
ENDBRANCH  34  35
BRANCH  34  37
ATOM     37  C   LIG    1       24.214 -11.528   3.812  0.00  0.00    +0.188 C 
BRANCH  37  38
ATOM     38  O   LIG    1       23.599 -12.458   2.919  0.00  0.00    -0.392 OA
ATOM     39  H   LIG    1       24.282 -13.120   2.696  0.00  0.00    +0.209 HD
ENDBRANCH  37  38
ENDBRANCH  34  37
ENDBRANCH  33  34
ENDBRANCH  30  33
ENDBRANCH   4  29
TORSDOF 16
ENDMDL
MODEL 3
REMARK VINA RESULT:      15.6      2.260      4.448
REMARK  Name = *****
REMARK                            x       y       z     vdW  Elec       q    Type
REMARK                         _______ _______ _______ _____ _____    ______ ____
ROOT
ATOM      1  C   LIG    1       24.889 -17.541   3.518  0.00  0.00    +0.064 A 
ATOM      2  C   LIG    1       25.061 -18.861   3.969  0.00  0.00    +0.049 A 
ATOM      3  I   LIG    1       24.774 -20.139   2.027  0.00  0.00    -0.041 I 
ATOM      4  C   LIG    1       24.273 -19.403   5.009  0.00  0.00    +0.065 A 
ATOM      5  C   LIG    1       23.144 -18.681   5.451  0.00  0.00    +0.040 A 
ATOM      6  I   LIG    1       21.380 -20.150   4.794  0.00  0.00    -0.042 I 
ATOM      7  C   LIG    1       22.900 -17.379   4.985  0.00  0.00    +0.065 A 
ATOM      8  C   LIG    1       23.684 -16.920   3.911  0.00  0.00    +0.049 A 
ATOM      9  I   LIG    1       22.046 -16.976   2.112  0.00  0.00    -0.041 I 
ENDROOT
BRANCH   7  10
ATOM     10  C   LIG    1       22.142 -16.370   5.799  0.00  0.00    +0.246 C 
ATOM     11  N   LIG    1       22.416 -15.012   5.680  0.00  0.00    -0.309 N 
ATOM     12  H   LIG    1       21.765 -14.448   6.216  0.00  0.00    +0.149 HD
ATOM     13  O   LIG    1       21.292 -16.733   6.593  0.00  0.00    -0.270 OA
BRANCH  11  14
ATOM     14  C   LIG    1       23.395 -14.309   4.843  0.00  0.00    +0.132 C 
BRANCH  14  15
ATOM     15  C   LIG    1       23.510 -12.827   5.137  0.00  0.00    +0.174 C 
BRANCH  15  16
ATOM     16  O   LIG    1       24.857 -12.406   5.026  0.00  0.00    -0.394 OA
ATOM     17  H   LIG    1       25.387 -13.183   4.773  0.00  0.00    +0.209 HD
ENDBRANCH  15  16
ENDBRANCH  14  15
ENDBRANCH  11  14
ENDBRANCH   7  10
BRANCH   1  20
ATOM     18  C   LIG    1       27.513 -18.128   4.881  0.00  0.00    +0.110 C 
ATOM     19  C   LIG    1       27.368 -17.106   3.784  0.00  0.00    +0.217 C 
ATOM     20  N   LIG    1       26.084 -16.725   3.338  0.00  0.00    -0.267 N 
ATOM     21  O   LIG    1       28.415 -16.587   3.387  0.00  0.00    -0.276 OA
BRANCH  20  22
ATOM     22  C   LIG    1       25.991 -15.643   2.311  0.00  0.00    +0.147 C 
BRANCH  22  23
ATOM     23  C   LIG    1       26.457 -14.229   2.777  0.00  0.00    +0.158 C 
BRANCH  23  24
ATOM     24  O   LIG    1       25.474 -13.256   2.391  0.00  0.00    -0.388 OA
ATOM     25  H   LIG    1       24.709 -13.773   2.069  0.00  0.00    +0.210 HD
ENDBRANCH  23  24
BRANCH  23  26
ATOM     26  C   LIG    1       26.653 -14.124   4.290  0.00  0.00    +0.188 C 
BRANCH  26  27
ATOM     27  O   LIG    1       28.013 -13.778   4.536  0.00  0.00    -0.392 OA
ATOM     28  H   LIG    1       28.564 -14.458   4.111  0.00  0.00    +0.209 HD
ENDBRANCH  26  27
ENDBRANCH  23  26
ENDBRANCH  22  23
ENDBRANCH  20  22
ENDBRANCH   1  20
BRANCH   4  29
ATOM     29  C   LIG    1       24.893 -20.308   6.011  0.00  0.00    +0.246 C 
ATOM     30  N   LIG    1       26.237 -20.315   6.131  0.00  0.00    -0.309 N 
ATOM     31  H   LIG    1       26.815 -19.725   5.517  0.00  0.00    +0.149 HD
ATOM     32  O   LIG    1       24.144 -21.007   6.755  0.00  0.00    -0.270 OA
BRANCH  30  33
ATOM     33  C   LIG    1       26.986 -21.210   7.017  0.00  0.00    +0.138 C 
BRANCH  33  34
ATOM     34  C   LIG    1       28.485 -20.870   7.058  0.00  0.00    +0.157 C 
BRANCH  34  35
ATOM     35  O   LIG    1       29.144 -21.554   5.981  0.00  0.00    -0.388 OA
ATOM     36  H   LIG    1       29.197 -22.499   6.210  0.00  0.00    +0.210 HD
ENDBRANCH  34  35
BRANCH  34  37
ATOM     37  C   LIG    1       28.738 -19.356   6.978  0.00  0.00    +0.188 C 
BRANCH  37  38
ATOM     38  O   LIG    1       29.474 -19.019   5.801  0.00  0.00    -0.392 OA
ATOM     39  H   LIG    1       29.966 -18.201   6.008  0.00  0.00    +0.209 HD
ENDBRANCH  37  38
ENDBRANCH  34  37
ENDBRANCH  33  34
ENDBRANCH  30  33
ENDBRANCH   4  29
TORSDOF 16
ENDMDL
