MODEL 1
REMARK VINA RESULT:      -6.1      0.000      0.000
REMARK  Name = *****
REMARK                            x       y       z     vdW  Elec       q    Type
REMARK                         _______ _______ _______ _____ _____    ______ ____
ROOT
ATOM      1  C   LIG    1       25.065 -21.133   6.011  0.00  0.00    +0.076 C 
ATOM      2  C   LIG    1       23.758 -20.339   6.175  0.00  0.00    +0.137 C 
ATOM      3  C   LIG    1       22.770 -20.884   5.142  0.00  0.00    +0.130 C 
ATOM      4  C   LIG    1       23.645 -21.448   4.000  0.00  0.00    +0.058 C 
ATOM      5  C   LIG    1       25.111 -21.300   4.459  0.00  0.00    +0.153 C 
ENDROOT
BRANCH   2   6
ATOM      6  O   LIG    1       23.196 -20.443   7.470  0.00  0.00    -0.391 OA
ATOM      7  H   LIG    1       23.154 -21.395   7.682  0.00  0.00    +0.210 HD
ENDBRANCH   2   6
BRANCH   3   8
ATOM      8  C   LIG    1       21.854 -19.786   4.660  0.00  0.00    +0.310 C 
ATOM      9  O   LIG    1       22.117 -18.602   4.687  0.00  0.00    -0.251 OA
BRANCH   8  10
ATOM     10  O   LIG    1       20.666 -20.255   4.200  0.00  0.00    -0.480 OA
ATOM     11  H   LIG    1       19.927 -19.623   4.275  0.00  0.00    +0.295 HD
ENDBRANCH   8  10
ENDBRANCH   3   8
BRANCH   5  12
ATOM     12  N   LIG    1       25.694 -20.128   3.805  0.00  0.00    -0.273 N 
ATOM     13  H   LIG    1       25.131 -19.680   3.084  0.00  0.00    +0.258 HD
BRANCH  12  14
ATOM     14  C   LIG    1       26.716 -19.378   4.269  0.00  0.00    +0.376 C 
ATOM     15  N   LIG    1       27.667 -19.739   5.048  0.00  0.00    -0.130 NA
ATOM     16  H   LIG    1       27.569 -20.727   5.268  0.00  0.00    +0.306 HD
BRANCH  14  17
ATOM     17  N   LIG    1       26.673 -18.102   3.848  0.00  0.00    -0.289 N 
ATOM     18  H   LIG    1       27.400 -17.966   3.150  0.00  0.00    +0.255 HD
ATOM     19  H   LIG    1       25.778 -17.829   3.463  0.00  0.00    +0.255 HD
ENDBRANCH  14  17
ENDBRANCH  12  14
ENDBRANCH   5  12
BRANCH   1  20
ATOM     20  C   LIG    1       25.232 -22.472   6.832  0.00  0.00    +0.085 C 
BRANCH  20  21
ATOM     21  N   LIG    1       26.540 -22.470   7.486  0.00  0.00    -0.312 N 
ATOM     22  H   LIG    1       27.139 -23.269   7.299  0.00  0.00    +0.149 HD
ATOM     23  C   LIG    1       27.113 -21.581   8.343  0.00  0.00    +0.210 C 
ATOM     24  O   LIG    1       28.251 -21.813   8.750  0.00  0.00    -0.276 OA
ATOM     25  C   LIG    1       26.359 -20.361   8.797  0.00  0.00    +0.109 C 
ENDBRANCH  20  21
BRANCH  20  26
ATOM     26  C   LIG    1       25.015 -23.850   6.050  0.00  0.00    +0.009 C 
BRANCH  26  28
ATOM     27  C   LIG    1       22.494 -23.691   6.825  0.00  0.00    +0.004 C 
ATOM     28  C   LIG    1       23.699 -24.579   6.474  0.00  0.00    +0.002 C 
ENDBRANCH  26  28
BRANCH  26  29
ATOM     29  C   LIG    1       26.168 -24.883   6.276  0.00  0.00    +0.002 C 
ATOM     30  C   LIG    1       25.842 -26.338   6.553  0.00  0.00    +0.004 C 
ENDBRANCH  26  29
ENDBRANCH  20  26
ENDBRANCH   1  20
TORSDOF 11
ENDMDL
MODEL 2
REMARK VINA RESULT:      -5.8      2.459      4.202
REMARK  Name = *****
REMARK                            x       y       z     vdW  Elec       q    Type
REMARK                         _______ _______ _______ _____ _____    ______ ____
ROOT
ATOM      1  C   LIG    1       26.001 -21.111   5.203  0.00  0.00    +0.076 C 
ATOM      2  C   LIG    1       24.909 -20.229   4.575  0.00  0.00    +0.137 C 
ATOM      3  C   LIG    1       23.737 -20.200   5.559  0.00  0.00    +0.130 C 
ATOM      4  C   LIG    1       23.841 -21.520   6.355  0.00  0.00    +0.058 C 
ATOM      5  C   LIG    1       25.130 -22.220   5.874  0.00  0.00    +0.153 C 
ENDROOT
BRANCH   2   6
ATOM      6  O   LIG    1       25.339 -18.907   4.311  0.00  0.00    -0.391 OA
ATOM      7  H   LIG    1       25.015 -18.353   5.047  0.00  0.00    +0.210 HD
ENDBRANCH   2   6
BRANCH   3   8
ATOM      8  C   LIG    1       22.429 -20.093   4.813  0.00  0.00    +0.310 C 
ATOM      9  O   LIG    1       22.010 -19.083   4.289  0.00  0.00    -0.251 OA
BRANCH   8  10
ATOM     10  O   LIG    1       21.735 -21.260   4.799  0.00  0.00    -0.480 OA
ATOM     11  H   LIG    1       22.281 -22.055   4.945  0.00  0.00    +0.295 HD
ENDBRANCH   8  10
ENDBRANCH   3   8
BRANCH   5  12
ATOM     12  N   LIG    1       24.768 -23.273   4.924  0.00  0.00    -0.273 N 
ATOM     13  H   LIG    1       24.794 -23.026   3.936  0.00  0.00    +0.258 HD
BRANCH  12  14
ATOM     14  C   LIG    1       24.738 -24.599   5.172  0.00  0.00    +0.376 C 
ATOM     15  N   LIG    1       25.516 -25.505   4.709  0.00  0.00    -0.130 NA
ATOM     16  H   LIG    1       26.221 -25.075   4.116  0.00  0.00    +0.306 HD
BRANCH  14  17
ATOM     17  N   LIG    1       23.739 -24.963   5.996  0.00  0.00    -0.289 N 
ATOM     18  H   LIG    1       23.924 -25.905   6.333  0.00  0.00    +0.255 HD
ATOM     19  H   LIG    1       23.613 -24.340   6.784  0.00  0.00    +0.255 HD
ENDBRANCH  14  17
ENDBRANCH  12  14
ENDBRANCH   5  12
BRANCH   1  20
ATOM     20  C   LIG    1       27.059 -20.426   6.155  0.00  0.00    +0.085 C 
BRANCH  20  21
ATOM     21  N   LIG    1       28.110 -19.817   5.341  0.00  0.00    -0.312 N 
ATOM     22  H   LIG    1       28.195 -20.154   4.387  0.00  0.00    +0.149 HD
ATOM     23  C   LIG    1       29.040 -18.868   5.640  0.00  0.00    +0.210 C 
ATOM     24  O   LIG    1       29.820 -18.516   4.756  0.00  0.00    -0.276 OA
ATOM     25  C   LIG    1       29.123 -18.288   7.026  0.00  0.00    +0.109 C 
ENDBRANCH  20  21
BRANCH  20  26
ATOM     26  C   LIG    1       27.712 -21.327   7.304  0.00  0.00    +0.009 C 
BRANCH  26  28
ATOM     27  C   LIG    1       25.901 -20.495   9.040  0.00  0.00    +0.004 C 
ATOM     28  C   LIG    1       27.377 -20.803   8.738  0.00  0.00    +0.002 C 
ENDBRANCH  26  28
BRANCH  26  29
ATOM     29  C   LIG    1       29.272 -21.399   7.228  0.00  0.00    +0.002 C 
ATOM     30  C   LIG    1       30.094 -21.444   8.502  0.00  0.00    +0.004 C 
ENDBRANCH  26  29
ENDBRANCH  20  26
ENDBRANCH   1  20
TORSDOF 11
ENDMDL
MODEL 3
REMARK VINA RESULT:      -5.8      1.510      3.154
REMARK  Name = *****
REMARK                            x       y       z     vdW  Elec       q    Type
REMARK                         _______ _______ _______ _____ _____    ______ ____
ROOT
ATOM      1  C   LIG    1       25.221 -20.787   5.696  0.00  0.00    +0.076 C 
ATOM      2  C   LIG    1       23.748 -20.439   5.966  0.00  0.00    +0.137 C 
ATOM      3  C   LIG    1       22.937 -20.976   4.784  0.00  0.00    +0.130 C 
ATOM      4  C   LIG    1       23.920 -20.999   3.592  0.00  0.00    +0.058 C 
ATOM      5  C   LIG    1       25.293 -20.570   4.151  0.00  0.00    +0.153 C 
ENDROOT
BRANCH   2   6
ATOM      6  O   LIG    1       23.252 -20.991   7.171  0.00  0.00    -0.391 OA
ATOM      7  H   LIG    1       23.986 -20.962   7.815  0.00  0.00    +0.210 HD
ENDBRANCH   2   6
BRANCH   3   8
ATOM      8  C   LIG    1       21.747 -20.088   4.517  0.00  0.00    +0.310 C 
ATOM      9  O   LIG    1       20.627 -20.482   4.274  0.00  0.00    -0.251 OA
BRANCH   8  10
ATOM     10  O   LIG    1       22.058 -18.766   4.554  0.00  0.00    -0.480 OA
ATOM     11  H   LIG    1       22.522 -18.485   5.365  0.00  0.00    +0.295 HD
ENDBRANCH   8  10
ENDBRANCH   3   8
BRANCH   5  12
ATOM     12  N   LIG    1       25.521 -19.164   3.812  0.00  0.00    -0.273 N 
ATOM     13  H   LIG    1       24.693 -18.592   3.655  0.00  0.00    +0.258 HD
BRANCH  12  14
ATOM     14  C   LIG    1       26.658 -18.466   4.015  0.00  0.00    +0.376 C 
ATOM     15  N   LIG    1       27.669 -18.798   4.728  0.00  0.00    -0.130 NA
ATOM     16  H   LIG    1       27.515 -19.721   5.126  0.00  0.00    +0.306 HD
BRANCH  14  17
ATOM     17  N   LIG    1       26.672 -17.278   3.386  0.00  0.00    -0.289 N 
ATOM     18  H   LIG    1       27.438 -17.274   2.717  0.00  0.00    +0.255 HD
ATOM     19  H   LIG    1       25.806 -17.057   2.910  0.00  0.00    +0.255 HD
ENDBRANCH  14  17
ENDBRANCH  12  14
ENDBRANCH   5  12
BRANCH   1  20
ATOM     20  C   LIG    1       25.762 -22.183   6.199  0.00  0.00    +0.085 C 
BRANCH  20  21
ATOM     21  N   LIG    1       24.629 -23.028   6.572  0.00  0.00    -0.312 N 
ATOM     22  H   LIG    1       23.989 -22.647   7.262  0.00  0.00    +0.149 HD
ATOM     23  C   LIG    1       24.273 -24.279   6.169  0.00  0.00    +0.210 C 
ATOM     24  O   LIG    1       23.247 -24.773   6.637  0.00  0.00    -0.276 OA
ATOM     25  C   LIG    1       25.130 -25.044   5.197  0.00  0.00    +0.109 C 
ENDBRANCH  20  21
BRANCH  20  26
ATOM     26  C   LIG    1       26.846 -22.175   7.375  0.00  0.00    +0.009 C 
BRANCH  26  28
ATOM     27  C   LIG    1       25.963 -20.375   9.097  0.00  0.00    +0.004 C 
ATOM     28  C   LIG    1       26.216 -21.856   8.769  0.00  0.00    +0.002 C 
ENDBRANCH  26  28
BRANCH  26  29
ATOM     29  C   LIG    1       27.982 -21.121   7.168  0.00  0.00    +0.002 C 
ATOM     30  C   LIG    1       29.324 -21.305   7.850  0.00  0.00    +0.004 C 
ENDBRANCH  26  29
ENDBRANCH  20  26
ENDBRANCH   1  20
TORSDOF 11
ENDMDL
MODEL 4
REMARK VINA RESULT:      -5.8      2.964      5.679
REMARK  Name = *****
REMARK                            x       y       z     vdW  Elec       q    Type
REMARK                         _______ _______ _______ _____ _____    ______ ____
ROOT
ATOM      1  C   LIG    1       27.490 -21.816   8.027  0.00  0.00    +0.076 C 
ATOM      2  C   LIG    1       27.761 -20.482   8.743  0.00  0.00    +0.137 C 
ATOM      3  C   LIG    1       28.330 -19.520   7.698  0.00  0.00    +0.130 C 
ATOM      4  C   LIG    1       29.004 -20.422   6.639  0.00  0.00    +0.058 C 
ATOM      5  C   LIG    1       28.712 -21.878   7.057  0.00  0.00    +0.153 C 
ENDROOT
BRANCH   2   6
ATOM      6  O   LIG    1       26.604 -19.915   9.329  0.00  0.00    -0.391 OA
ATOM      7  H   LIG    1       26.905 -19.394  10.098  0.00  0.00    +0.210 HD
ENDBRANCH   2   6
BRANCH   3   8
ATOM      8  C   LIG    1       29.313 -18.572   8.339  0.00  0.00    +0.310 C 
ATOM      9  O   LIG    1       29.345 -18.298   9.520  0.00  0.00    -0.251 OA
BRANCH   8  10
ATOM     10  O   LIG    1       30.172 -18.020   7.443  0.00  0.00    -0.480 OA
ATOM     11  H   LIG    1       29.762 -17.765   6.596  0.00  0.00    +0.295 HD
ENDBRANCH   8  10
ENDBRANCH   3   8
BRANCH   5  12
ATOM     12  N   LIG    1       29.899 -22.427   7.716  0.00  0.00    -0.273 N 
ATOM     13  H   LIG    1       30.345 -23.224   7.265  0.00  0.00    +0.258 HD
BRANCH  12  14
ATOM     14  C   LIG    1       30.659 -21.806   8.642  0.00  0.00    +0.376 C 
ATOM     15  N   LIG    1       30.617 -21.940   9.915  0.00  0.00    -0.130 NA
ATOM     16  H   LIG    1       29.915 -22.635  10.159  0.00  0.00    +0.306 HD
BRANCH  14  17
ATOM     17  N   LIG    1       31.539 -20.937   8.112  0.00  0.00    -0.289 N 
ATOM     18  H   LIG    1       31.502 -21.015   7.099  0.00  0.00    +0.255 HD
ATOM     19  H   LIG    1       31.377 -19.976   8.383  0.00  0.00    +0.255 HD
ENDBRANCH  14  17
ENDBRANCH  12  14
ENDBRANCH   5  12
BRANCH   1  20
ATOM     20  C   LIG    1       26.083 -22.022   7.341  0.00  0.00    +0.085 C 
BRANCH  20  21
ATOM     21  N   LIG    1       26.182 -23.107   6.365  0.00  0.00    -0.312 N 
ATOM     22  H   LIG    1       27.028 -23.135   5.805  0.00  0.00    +0.149 HD
ATOM     23  C   LIG    1       25.314 -24.107   6.044  0.00  0.00    +0.210 C 
ATOM     24  O   LIG    1       25.649 -24.913   5.176  0.00  0.00    -0.276 OA
ATOM     25  C   LIG    1       23.972 -24.201   6.718  0.00  0.00    +0.109 C 
ENDBRANCH  20  21
BRANCH  20  26
ATOM     26  C   LIG    1       25.394 -20.746   6.667  0.00  0.00    +0.009 C 
BRANCH  26  28
ATOM     27  C   LIG    1       22.886 -20.355   5.929  0.00  0.00    +0.004 C 
ATOM     28  C   LIG    1       23.891 -20.594   7.069  0.00  0.00    +0.002 C 
ENDBRANCH  26  28
BRANCH  26  29
ATOM     29  C   LIG    1       25.418 -20.776   5.104  0.00  0.00    +0.002 C 
ATOM     30  C   LIG    1       26.058 -19.639   4.332  0.00  0.00    +0.004 C 
ENDBRANCH  26  29
ENDBRANCH  20  26
ENDBRANCH   1  20
TORSDOF 11
ENDMDL
MODEL 5
REMARK VINA RESULT:      -5.7      6.920      9.162
REMARK  Name = *****
REMARK                            x       y       z     vdW  Elec       q    Type
REMARK                         _______ _______ _______ _____ _____    ______ ____
ROOT
ATOM      1  C   LIG    1       25.361 -29.761   7.689  0.00  0.00    +0.076 C 
ATOM      2  C   LIG    1       26.199 -28.512   7.368  0.00  0.00    +0.137 C 
ATOM      3  C   LIG    1       25.246 -27.474   6.771  0.00  0.00    +0.130 C 
ATOM      4  C   LIG    1       24.100 -28.294   6.135  0.00  0.00    +0.058 C 
ATOM      5  C   LIG    1       24.379 -29.772   6.475  0.00  0.00    +0.153 C 
ENDROOT
BRANCH   2   6
ATOM      6  O   LIG    1       26.847 -27.964   8.502  0.00  0.00    -0.391 OA
ATOM      7  H   LIG    1       26.176 -27.910   9.209  0.00  0.00    +0.210 HD
ENDBRANCH   2   6
BRANCH   3   8
ATOM      8  C   LIG    1       25.965 -26.626   5.752  0.00  0.00    +0.310 C 
ATOM      9  O   LIG    1       25.433 -25.815   5.024  0.00  0.00    -0.251 OA
BRANCH   8  10
ATOM     10  O   LIG    1       27.300 -26.874   5.709  0.00  0.00    -0.480 OA
ATOM     11  H   LIG    1       27.728 -26.629   4.868  0.00  0.00    +0.295 HD
ENDBRANCH   8  10
ENDBRANCH   3   8
BRANCH   5  12
ATOM     12  N   LIG    1       24.973 -30.421   5.305  0.00  0.00    -0.273 N 
ATOM     13  H   LIG    1       25.363 -29.808   4.591  0.00  0.00    +0.258 HD
BRANCH  12  14
ATOM     14  C   LIG    1       25.366 -31.709   5.218  0.00  0.00    +0.376 C 
ATOM     15  N   LIG    1       26.469 -32.224   5.617  0.00  0.00    -0.130 NA
ATOM     16  H   LIG    1       27.038 -31.507   6.060  0.00  0.00    +0.306 HD
BRANCH  14  17
ATOM     17  N   LIG    1       24.463 -32.502   4.614  0.00  0.00    -0.289 N 
ATOM     18  H   LIG    1       24.221 -32.091   3.715  0.00  0.00    +0.255 HD
ATOM     19  H   LIG    1       24.782 -33.452   4.477  0.00  0.00    +0.255 HD
ENDBRANCH  14  17
ENDBRANCH  12  14
ENDBRANCH   5  12
BRANCH   1  20
ATOM     20  C   LIG    1       24.671 -29.852   9.107  0.00  0.00    +0.085 C 
BRANCH  20  21
ATOM     21  N   LIG    1       25.622 -30.411  10.066  0.00  0.00    -0.312 N 
ATOM     22  H   LIG    1       26.002 -31.326   9.844  0.00  0.00    +0.149 HD
ATOM     23  C   LIG    1       26.092 -29.928  11.249  0.00  0.00    +0.210 C 
ATOM     24  O   LIG    1       26.911 -30.604  11.872  0.00  0.00    -0.276 OA
ATOM     25  C   LIG    1       25.599 -28.612  11.788  0.00  0.00    +0.109 C 
ENDBRANCH  20  21
BRANCH  20  26
ATOM     26  C   LIG    1       23.278 -30.633   9.202  0.00  0.00    +0.009 C 
BRANCH  26  28
ATOM     27  C   LIG    1       21.052 -30.839  10.611  0.00  0.00    +0.004 C 
ATOM     28  C   LIG    1       22.482 -30.283  10.500  0.00  0.00    +0.002 C 
ENDBRANCH  26  28
BRANCH  26  29
ATOM     29  C   LIG    1       23.435 -32.189   9.203  0.00  0.00    +0.002 C 
ATOM     30  C   LIG    1       23.121 -32.986   7.953  0.00  0.00    +0.004 C 
ENDBRANCH  26  29
ENDBRANCH  20  26
ENDBRANCH   1  20
TORSDOF 11
ENDMDL
MODEL 6
REMARK VINA RESULT:      -5.6      2.911      6.289
REMARK  Name = *****
REMARK                            x       y       z     vdW  Elec       q    Type
REMARK                         _______ _______ _______ _____ _____    ______ ____
ROOT
ATOM      1  C   LIG    1       28.321 -20.319   6.501  0.00  0.00    +0.076 C 
ATOM      2  C   LIG    1       29.348 -21.373   6.950  0.00  0.00    +0.137 C 
ATOM      3  C   LIG    1       29.355 -21.367   8.480  0.00  0.00    +0.130 C 
ATOM      4  C   LIG    1       28.906 -19.944   8.884  0.00  0.00    +0.058 C 
ATOM      5  C   LIG    1       28.556 -19.209   7.573  0.00  0.00    +0.153 C 
ENDROOT
BRANCH   2   6
ATOM      6  O   LIG    1       29.056 -22.676   6.482  0.00  0.00    -0.391 OA
ATOM      7  H   LIG    1       29.322 -22.703   5.543  0.00  0.00    +0.210 HD
ENDBRANCH   2   6
BRANCH   3   8
ATOM      8  C   LIG    1       30.734 -21.691   8.999  0.00  0.00    +0.310 C 
ATOM      9  O   LIG    1       30.975 -22.128  10.104  0.00  0.00    -0.251 OA
BRANCH   8  10
ATOM     10  O   LIG    1       31.713 -21.422   8.097  0.00  0.00    -0.480 OA
ATOM     11  H   LIG    1       31.975 -20.483   8.055  0.00  0.00    +0.295 HD
ENDBRANCH   8  10
ENDBRANCH   3   8
BRANCH   5  12
ATOM     12  N   LIG    1       29.673 -18.334   7.211  0.00  0.00    -0.273 N 
ATOM     13  H   LIG    1       29.514 -17.687   6.440  0.00  0.00    +0.258 HD
BRANCH  12  14
ATOM     14  C   LIG    1       30.745 -18.045   7.978  0.00  0.00    +0.376 C 
ATOM     15  N   LIG    1       31.943 -18.478   7.850  0.00  0.00    -0.130 NA
ATOM     16  H   LIG    1       32.001 -19.083   7.034  0.00  0.00    +0.306 HD
BRANCH  14  17
ATOM     17  N   LIG    1       30.463 -17.213   8.996  0.00  0.00    -0.289 N 
ATOM     18  H   LIG    1       31.248 -17.213   9.642  0.00  0.00    +0.255 HD
ATOM     19  H   LIG    1       30.264 -16.265   8.704  0.00  0.00    +0.255 HD
ENDBRANCH  14  17
ENDBRANCH  12  14
ENDBRANCH   5  12
BRANCH   1  20
ATOM     20  C   LIG    1       26.818 -20.770   6.325  0.00  0.00    +0.085 C 
BRANCH  20  21
ATOM     21  N   LIG    1       26.158 -19.871   5.378  0.00  0.00    -0.312 N 
ATOM     22  H   LIG    1       26.404 -18.888   5.442  0.00  0.00    +0.149 HD
ATOM     23  C   LIG    1       25.231 -20.112   4.410  0.00  0.00    +0.210 C 
ATOM     24  O   LIG    1       24.837 -19.164   3.731  0.00  0.00    -0.276 OA
ATOM     25  C   LIG    1       24.686 -21.499   4.200  0.00  0.00    +0.109 C 
ENDBRANCH  20  21
BRANCH  20  26
ATOM     26  C   LIG    1       25.930 -20.915   7.647  0.00  0.00    +0.009 C 
BRANCH  26  28
ATOM     27  C   LIG    1       25.979 -23.503   7.111  0.00  0.00    +0.004 C 
ATOM     28  C   LIG    1       25.862 -22.389   8.164  0.00  0.00    +0.002 C 
ENDBRANCH  26  28
BRANCH  26  29
ATOM     29  C   LIG    1       24.446 -20.461   7.455  0.00  0.00    +0.002 C 
ATOM     30  C   LIG    1       23.326 -21.481   7.507  0.00  0.00    +0.004 C 
ENDBRANCH  26  29
ENDBRANCH  20  26
ENDBRANCH   1  20
TORSDOF 11
ENDMDL
MODEL 7
REMARK VINA RESULT:      -5.6      2.754      5.370
REMARK  Name = *****
REMARK                            x       y       z     vdW  Elec       q    Type
REMARK                         _______ _______ _______ _____ _____    ______ ____
ROOT
ATOM      1  C   LIG    1       27.618 -21.880   6.882  0.00  0.00    +0.076 C 
ATOM      2  C   LIG    1       26.636 -21.175   5.932  0.00  0.00    +0.137 C 
ATOM      3  C   LIG    1       25.650 -20.396   6.805  0.00  0.00    +0.130 C 
ATOM      4  C   LIG    1       25.614 -21.152   8.152  0.00  0.00    +0.058 C 
ATOM      5  C   LIG    1       26.658 -22.283   8.046  0.00  0.00    +0.153 C 
ENDROOT
BRANCH   2   6
ATOM      6  O   LIG    1       27.269 -20.290   5.026  0.00  0.00    -0.391 OA
ATOM      7  H   LIG    1       26.828 -19.425   5.124  0.00  0.00    +0.210 HD
ENDBRANCH   2   6
BRANCH   3   8
ATOM      8  C   LIG    1       24.292 -20.348   6.149  0.00  0.00    +0.310 C 
ATOM      9  O   LIG    1       23.238 -20.528   6.721  0.00  0.00    -0.251 OA
BRANCH   8  10
ATOM     10  O   LIG    1       24.360 -20.098   4.816  0.00  0.00    -0.480 OA
ATOM     11  H   LIG    1       23.557 -20.341   4.318  0.00  0.00    +0.295 HD
ENDBRANCH   8  10
ENDBRANCH   3   8
BRANCH   5  12
ATOM     12  N   LIG    1       25.963 -23.540   7.765  0.00  0.00    -0.273 N 
ATOM     13  H   LIG    1       26.003 -24.256   8.489  0.00  0.00    +0.258 HD
BRANCH  12  14
ATOM     14  C   LIG    1       25.009 -23.736   6.830  0.00  0.00    +0.376 C 
ATOM     15  N   LIG    1       23.747 -23.555   6.944  0.00  0.00    -0.130 NA
ATOM     16  H   LIG    1       23.538 -23.197   7.873  0.00  0.00    +0.306 HD
BRANCH  14  17
ATOM     17  N   LIG    1       25.494 -24.196   5.663  0.00  0.00    -0.289 N 
ATOM     18  H   LIG    1       25.133 -25.134   5.509  0.00  0.00    +0.255 HD
ATOM     19  H   LIG    1       25.268 -23.611   4.869  0.00  0.00    +0.255 HD
ENDBRANCH  14  17
ENDBRANCH  12  14
ENDBRANCH   5  12
BRANCH   1  20
ATOM     20  C   LIG    1       28.916 -21.100   7.328  0.00  0.00    +0.085 C 
BRANCH  20  21
ATOM     21  N   LIG    1       29.353 -21.603   8.630  0.00  0.00    -0.312 N 
ATOM     22  H   LIG    1       28.620 -21.885   9.273  0.00  0.00    +0.149 HD
ATOM     23  C   LIG    1       30.596 -21.748   9.164  0.00  0.00    +0.210 C 
ATOM     24  O   LIG    1       30.693 -22.214  10.299  0.00  0.00    -0.276 OA
ATOM     25  C   LIG    1       31.816 -21.324   8.392  0.00  0.00    +0.109 C 
ENDBRANCH  20  21
BRANCH  20  26
ATOM     26  C   LIG    1       28.846 -19.502   7.356  0.00  0.00    +0.009 C 
BRANCH  26  28
ATOM     27  C   LIG    1       29.291 -18.067   5.182  0.00  0.00    +0.004 C 
ATOM     28  C   LIG    1       29.870 -18.839   6.380  0.00  0.00    +0.002 C 
ENDBRANCH  26  28
BRANCH  26  29
ATOM     29  C   LIG    1       29.140 -18.891   8.765  0.00  0.00    +0.002 C 
ATOM     30  C   LIG    1       30.269 -17.894   8.940  0.00  0.00    +0.004 C 
ENDBRANCH  26  29
ENDBRANCH  20  26
ENDBRANCH   1  20
TORSDOF 11
ENDMDL
MODEL 8
REMARK VINA RESULT:      -5.5      8.079     10.707
REMARK  Name = *****
REMARK                            x       y       z     vdW  Elec       q    Type
REMARK                         _______ _______ _______ _____ _____    ______ ____
ROOT
ATOM      1  C   LIG    1       24.199 -31.220   6.726  0.00  0.00    +0.076 C 
ATOM      2  C   LIG    1       23.778 -32.269   5.683  0.00  0.00    +0.137 C 
ATOM      3  C   LIG    1       25.059 -32.792   5.030  0.00  0.00    +0.130 C 
ATOM      4  C   LIG    1       26.084 -31.642   5.166  0.00  0.00    +0.058 C 
ATOM      5  C   LIG    1       25.389 -30.533   5.983  0.00  0.00    +0.153 C 
ENDROOT
BRANCH   2   6
ATOM      6  O   LIG    1       23.051 -33.350   6.236  0.00  0.00    -0.391 OA
ATOM      7  H   LIG    1       23.276 -33.383   7.185  0.00  0.00    +0.210 HD
ENDBRANCH   2   6
BRANCH   3   8
ATOM      8  C   LIG    1       24.804 -33.151   3.587  0.00  0.00    +0.310 C 
ATOM      9  O   LIG    1       25.550 -32.896   2.666  0.00  0.00    -0.251 OA
BRANCH   8  10
ATOM     10  O   LIG    1       23.619 -33.789   3.406  0.00  0.00    -0.480 OA
ATOM     11  H   LIG    1       22.911 -33.503   4.013  0.00  0.00    +0.295 HD
ENDBRANCH   8  10
ENDBRANCH   3   8
BRANCH   5  12
ATOM     12  N   LIG    1       24.925 -29.492   5.065  0.00  0.00    -0.273 N 
ATOM     13  H   LIG    1       24.254 -29.777   4.353  0.00  0.00    +0.258 HD
BRANCH  12  14
ATOM     14  C   LIG    1       25.011 -28.159   5.257  0.00  0.00    +0.376 C 
ATOM     15  N   LIG    1       24.059 -27.332   5.482  0.00  0.00    -0.130 NA
ATOM     16  H   LIG    1       23.177 -27.836   5.528  0.00  0.00    +0.306 HD
BRANCH  14  17
ATOM     17  N   LIG    1       26.269 -27.690   5.174  0.00  0.00    -0.289 N 
ATOM     18  H   LIG    1       26.910 -28.430   5.449  0.00  0.00    +0.255 HD
ATOM     19  H   LIG    1       26.518 -27.352   4.253  0.00  0.00    +0.255 HD
ENDBRANCH  14  17
ENDBRANCH  12  14
ENDBRANCH   5  12
BRANCH   1  20
ATOM     20  C   LIG    1       24.523 -31.714   8.191  0.00  0.00    +0.085 C 
BRANCH  20  21
ATOM     21  N   LIG    1       23.613 -31.056   9.128  0.00  0.00    -0.312 N 
ATOM     22  H   LIG    1       23.826 -30.091   9.362  0.00  0.00    +0.149 HD
ATOM     23  C   LIG    1       22.512 -31.517   9.782  0.00  0.00    +0.210 C 
ATOM     24  O   LIG    1       21.906 -30.742  10.522  0.00  0.00    -0.276 OA
ATOM     25  C   LIG    1       22.067 -32.945   9.620  0.00  0.00    +0.109 C 
ENDBRANCH  20  21
BRANCH  20  26
ATOM     26  C   LIG    1       26.031 -31.570   8.703  0.00  0.00    +0.009 C 
BRANCH  26  28
ATOM     27  C   LIG    1       27.545 -33.672   8.179  0.00  0.00    +0.004 C 
ATOM     28  C   LIG    1       26.637 -32.931   9.175  0.00  0.00    +0.002 C 
ENDBRANCH  26  28
BRANCH  26  29
ATOM     29  C   LIG    1       26.188 -30.590   9.912  0.00  0.00    +0.002 C 
ATOM     30  C   LIG    1       26.727 -29.190   9.692  0.00  0.00    +0.004 C 
ENDBRANCH  26  29
ENDBRANCH  20  26
ENDBRANCH   1  20
TORSDOF 11
ENDMDL
MODEL 9
REMARK VINA RESULT:      -5.4      7.966      9.655
REMARK  Name = *****
REMARK                            x       y       z     vdW  Elec       q    Type
REMARK                         _______ _______ _______ _____ _____    ______ ____
ROOT
ATOM      1  C   LIG    1       25.852 -30.379   8.498  0.00  0.00    +0.076 C 
ATOM      2  C   LIG    1       25.899 -29.159   7.563  0.00  0.00    +0.137 C 
ATOM      3  C   LIG    1       24.455 -28.847   7.162  0.00  0.00    +0.130 C 
ATOM      4  C   LIG    1       23.703 -30.193   7.272  0.00  0.00    +0.058 C 
ATOM      5  C   LIG    1       24.715 -31.214   7.831  0.00  0.00    +0.153 C 
ENDROOT
BRANCH   2   6
ATOM      6  O   LIG    1       26.483 -28.016   8.160  0.00  0.00    -0.391 OA
ATOM      7  H   LIG    1       27.394 -27.953   7.814  0.00  0.00    +0.210 HD
ENDBRANCH   2   6
BRANCH   3   8
ATOM      8  C   LIG    1       24.409 -28.288   5.762  0.00  0.00    +0.310 C 
ATOM      9  O   LIG    1       25.057 -27.341   5.371  0.00  0.00    -0.251 OA
BRANCH   8  10
ATOM     10  O   LIG    1       23.534 -28.949   4.960  0.00  0.00    -0.480 OA
ATOM     11  H   LIG    1       23.627 -29.920   4.977  0.00  0.00    +0.295 HD
ENDBRANCH   8  10
ENDBRANCH   3   8
BRANCH   5  12
ATOM     12  N   LIG    1       25.220 -32.031   6.725  0.00  0.00    -0.273 N 
ATOM     13  H   LIG    1       25.899 -32.752   6.964  0.00  0.00    +0.258 HD
BRANCH  12  14
ATOM     14  C   LIG    1       24.653 -32.170   5.509  0.00  0.00    +0.376 C 
ATOM     15  N   LIG    1       23.590 -32.816   5.205  0.00  0.00    -0.130 NA
ATOM     16  H   LIG    1       23.183 -33.215   6.047  0.00  0.00    +0.306 HD
BRANCH  14  17
ATOM     17  N   LIG    1       25.337 -31.552   4.529  0.00  0.00    -0.289 N 
ATOM     18  H   LIG    1       25.432 -30.568   4.770  0.00  0.00    +0.255 HD
ATOM     19  H   LIG    1       26.253 -31.948   4.359  0.00  0.00    +0.255 HD
ENDBRANCH  14  17
ENDBRANCH  12  14
ENDBRANCH   5  12
BRANCH   1  20
ATOM     20  C   LIG    1       25.673 -30.125  10.047  0.00  0.00    +0.085 C 
BRANCH  20  21
ATOM     21  N   LIG    1       26.973 -30.248  10.705  0.00  0.00    -0.312 N 
ATOM     22  H   LIG    1       27.416 -31.161  10.663  0.00  0.00    +0.149 HD
ATOM     23  C   LIG    1       27.715 -29.344  11.402  0.00  0.00    +0.210 C 
ATOM     24  O   LIG    1       28.801 -29.705  11.855  0.00  0.00    -0.276 OA
ATOM     25  C   LIG    1       27.202 -27.949  11.633  0.00  0.00    +0.109 C 
ENDBRANCH  20  21
BRANCH  20  26
ATOM     26  C   LIG    1       24.586 -31.008  10.820  0.00  0.00    +0.009 C 
BRANCH  26  28
ATOM     27  C   LIG    1       21.975 -30.709  10.539  0.00  0.00    +0.004 C 
ATOM     28  C   LIG    1       23.289 -30.203  11.157  0.00  0.00    +0.002 C 
ENDBRANCH  26  28
BRANCH  26  29
ATOM     29  C   LIG    1       25.101 -31.580  12.181  0.00  0.00    +0.002 C 
ATOM     30  C   LIG    1       24.699 -30.917  13.485  0.00  0.00    +0.004 C 
ENDBRANCH  26  29
ENDBRANCH  20  26
ENDBRANCH   1  20
TORSDOF 11
ENDMDL
