MODEL 1
REMARK VINA RESULT:       9.7      0.000      0.000
REMARK  Name = *****
REMARK                            x       y       z     vdW  Elec       q    Type
REMARK                         _______ _______ _______ _____ _____    ______ ____
ROOT
ATOM      1  C   LIG    1       22.600 -19.467   4.080  0.00  0.00    +0.176 C 
ATOM      2  C   LIG    1       22.596 -17.921   3.707  0.00  0.00    +0.018 C 
ATOM      3  C   LIG    1       21.786 -17.637   2.407  0.00  0.00    +0.016 C 
ATOM      4  C   LIG    1       24.104 -17.620   3.383  0.00  0.00    +0.003 C 
ATOM      5  C   LIG    1       24.948 -16.996   4.525  0.00  0.00    -0.003 C 
ATOM      6  C   LIG    1       24.236 -15.876   5.316  0.00  0.00    +0.002 C 
ATOM      7  C   LIG    1       22.928 -16.445   5.857  0.00  0.00    +0.005 C 
ATOM      8  C   LIG    1       24.195 -14.441   4.657  0.00  0.00    -0.007 C 
ATOM      9  C   LIG    1       23.702 -13.437   5.740  0.00  0.00    +0.016 C 
ATOM     10  C   LIG    1       25.600 -14.093   4.142  0.00  0.00    -0.060 C 
ATOM     11  C   LIG    1       25.883 -12.815   3.813  0.00  0.00    +0.046 C 
ATOM     12  C   LIG    1       24.995 -12.429   2.652  0.00  0.00    +0.156 C 
ATOM     13  O   LIG    1       25.415 -11.638   1.812  0.00  0.00    -0.293 OA
ATOM     14  C   LIG    1       23.547 -12.916   2.662  0.00  0.00    +0.080 C 
ATOM     15  C   LIG    1       26.297 -15.176   3.338  0.00  0.00    +0.032 C 
ATOM     16  C   LIG    1       23.304 -14.248   3.404  0.00  0.00    +0.019 C 
ATOM     17  C   LIG    1       26.334 -16.511   4.067  0.00  0.00    +0.008 C 
ATOM     18  C   LIG    1       24.699 -18.969   2.915  0.00  0.00    +0.009 C 
ATOM     19  C   LIG    1       21.998 -17.002   4.802  0.00  0.00    +0.011 C 
ATOM     20  C   LIG    1       23.591 -20.008   3.016  0.00  0.00    +0.057 C 
ENDROOT
BRANCH   1  21
ATOM     21  C   LIG    1       21.216 -20.181   3.897  0.00  0.00    +0.174 C 
ATOM     22  O   LIG    1       21.086 -21.400   4.059  0.00  0.00    -0.293 OA
ATOM     23  C   LIG    1       19.994 -19.384   3.518  0.00  0.00    +0.090 C 
ENDBRANCH   1  21
BRANCH   1  24
ATOM     24  O   LIG    1       23.204 -19.583   5.396  0.00  0.00    -0.450 OA
BRANCH  24  25
ATOM     25  C   LIG    1       23.421 -20.808   5.940  0.00  0.00    +0.308 C 
ATOM     26  O   LIG    1       22.573 -21.513   6.447  0.00  0.00    -0.251 OA
BRANCH  25  27
ATOM     27  C   LIG    1       24.863 -21.240   5.727  0.00  0.00    +0.120 C 
BRANCH  27  28
ATOM     28  C   LIG    1       25.807 -20.215   6.356  0.00  0.00    +0.011 C 
BRANCH  28  29
ATOM     29  C   LIG    1       27.215 -20.766   6.601  0.00  0.00    +0.000 C 
BRANCH  29  31
ATOM     30  C   LIG    1       28.840 -18.865   6.177  0.00  0.00    +0.004 C 
ATOM     31  C   LIG    1       28.225 -20.144   5.629  0.00  0.00    -0.003 C 
ENDBRANCH  29  31
ENDBRANCH  28  29
ENDBRANCH  27  28
ENDBRANCH  25  27
ENDBRANCH  24  25
ENDBRANCH   1  24
TORSDOF 7
ENDMDL
