MODEL 1
REMARK VINA RESULT:      -6.2      0.000      0.000
REMARK  Name = *****
REMARK                            x       y       z     vdW  Elec       q    Type
REMARK                         _______ _______ _______ _____ _____    ______ ____
ROOT
ATOM      1  C   LIG    1       23.635 -30.776   6.787  0.00  0.00    +0.129 C 
ATOM      2  C   LIG    1       24.436 -31.146   8.098  0.00  0.00    +0.061 C 
ATOM      3  C   LIG    1       25.781 -30.415   8.220  0.00  0.00    +0.190 C 
ATOM      4  C   LIG    1       26.389 -30.478   9.610  0.00  0.00    +0.141 C 
ATOM      5  C   LIG    1       25.699 -30.852  10.709  0.00  0.00    +0.047 C 
ATOM      6  C   LIG    1       24.262 -31.323  10.667  0.00  0.00    +0.062 C 
ATOM      7  C   LIG    1       23.482 -30.917  11.969  0.00  0.00    +0.097 C 
ATOM      8  C   LIG    1       21.986 -31.233  11.818  0.00  0.00    +0.047 C 
ATOM      9  C   LIG    1       24.220 -31.479  13.194  0.00  0.00    +0.017 A 
ATOM     10  C   LIG    1       25.629 -31.281  13.231  0.00  0.00    +0.071 A 
ATOM     11  C   LIG    1       26.384 -31.578  14.385  0.00  0.00    +0.128 A 
ATOM     12  C   LIG    1       25.785 -32.136  15.498  0.00  0.00    +0.047 A 
ATOM     13  C   LIG    1       24.426 -32.410  15.461  0.00  0.00    +0.024 A 
ATOM     14  C   LIG    1       23.647 -32.090  14.334  0.00  0.00    +0.048 A 
ATOM     15 CL   LIG    1       21.992 -32.561  14.500  0.00  0.00    -0.083 Cl
ATOM     16  C   LIG    1       26.363 -30.789  12.040  0.00  0.00    +0.197 C 
ATOM     17  O   LIG    1       27.526 -30.396  12.150  0.00  0.00    -0.287 OA
ATOM     18  C   LIG    1       25.546 -28.941   7.871  0.00  0.00    +0.210 C 
ATOM     19  O   LIG    1       25.656 -28.001   8.661  0.00  0.00    -0.288 OA
ATOM     20  C   LIG    1       25.050 -28.665   6.509  0.00  0.00    +0.121 C 
ATOM     21  C   LIG    1       23.573 -30.871   9.353  0.00  0.00    +0.020 C 
ATOM     22  C   LIG    1       24.080 -29.491   6.068  0.00  0.00    +0.127 C 
ENDROOT
BRANCH  20  23
ATOM     23  C   LIG    1       25.483 -27.469   5.742  0.00  0.00    +0.253 C 
ATOM     24  N   LIG    1       25.184 -26.264   6.295  0.00  0.00    -0.289 N 
ATOM     25  H   LIG    1       24.673 -26.222   7.175  0.00  0.00    +0.151 HD
ATOM     26  O   LIG    1       26.059 -27.593   4.652  0.00  0.00    -0.270 OA
BRANCH  24  27
ATOM     27  C   LIG    1       25.547 -25.033   5.683  0.00  0.00    +0.264 C 
BRANCH  27  28
ATOM     28  O   LIG    1       24.783 -24.938   4.507  0.00  0.00    -0.377 OA
ATOM     29  H   LIG    1       23.994 -25.485   4.653  0.00  0.00    +0.211 HD
ENDBRANCH  27  28
ENDBRANCH  24  27
ENDBRANCH  20  23
BRANCH   1  31
ATOM     30  C   LIG    1       23.000 -33.169   6.655  0.00  0.00    +0.105 C 
ATOM     31  N   LIG    1       23.479 -31.987   5.937  0.00  0.00    -0.298 NA
ATOM     32  C   LIG    1       24.693 -32.326   5.185  0.00  0.00    +0.105 C 
ENDBRANCH   1  31
BRANCH   3  33
ATOM     33  O   LIG    1       26.730 -30.974   7.314  0.00  0.00    -0.373 OA
ATOM     34  H   LIG    1       26.907 -30.275   6.651  0.00  0.00    +0.211 HD
ENDBRANCH   3  33
BRANCH   4  35
ATOM     35  O   LIG    1       27.736 -30.129   9.627  0.00  0.00    -0.507 OA
ATOM     36  H   LIG    1       28.197 -30.713  10.275  0.00  0.00    +0.292 HD
ENDBRANCH   4  35
BRANCH   7  37
ATOM     37  O   LIG    1       23.571 -29.488  12.131  0.00  0.00    -0.384 OA
ATOM     38  H   LIG    1       22.927 -29.055  11.546  0.00  0.00    +0.211 HD
ENDBRANCH   7  37
BRANCH  11  39
ATOM     39  O   LIG    1       27.730 -31.351  14.496  0.00  0.00    -0.506 OA
ATOM     40  H   LIG    1       27.977 -31.422  15.444  0.00  0.00    +0.292 HD
ENDBRANCH  11  39
BRANCH  22  41
ATOM     41  O   LIG    1       23.310 -29.168   4.952  0.00  0.00    -0.509 OA
ATOM     42  H   LIG    1       22.365 -29.366   5.127  0.00  0.00    +0.292 HD
ENDBRANCH  22  41
TORSDOF 9
ENDMDL
MODEL 2
REMARK VINA RESULT:      -5.3      3.435      7.770
REMARK  Name = *****
REMARK                            x       y       z     vdW  Elec       q    Type
REMARK                         _______ _______ _______ _____ _____    ______ ____
ROOT
ATOM      1  C   LIG    1       26.140 -31.246  13.806  0.00  0.00    +0.129 C 
ATOM      2  C   LIG    1       25.767 -30.352  12.559  0.00  0.00    +0.061 C 
ATOM      3  C   LIG    1       26.630 -29.089  12.431  0.00  0.00    +0.190 C 
ATOM      4  C   LIG    1       26.534 -28.415  11.073  0.00  0.00    +0.141 C 
ATOM      5  C   LIG    1       26.009 -29.011   9.981  0.00  0.00    +0.047 C 
ATOM      6  C   LIG    1       25.387 -30.390  10.005  0.00  0.00    +0.062 C 
ATOM      7  C   LIG    1       25.611 -31.149   8.648  0.00  0.00    +0.097 C 
ATOM      8  C   LIG    1       25.144 -32.608   8.768  0.00  0.00    +0.047 C 
ATOM      9  C   LIG    1       25.046 -30.302   7.498  0.00  0.00    +0.017 A 
ATOM     10  C   LIG    1       25.394 -28.921   7.498  0.00  0.00    +0.071 A 
ATOM     11  C   LIG    1       25.099 -28.088   6.399  0.00  0.00    +0.128 A 
ATOM     12  C   LIG    1       24.401 -28.573   5.310  0.00  0.00    +0.047 A 
ATOM     13  C   LIG    1       23.982 -29.895   5.317  0.00  0.00    +0.024 A 
ATOM     14  C   LIG    1       24.295 -30.754   6.388  0.00  0.00    +0.048 A 
ATOM     15 CL   LIG    1       23.636 -32.340   6.196  0.00  0.00    -0.083 Cl
ATOM     16  C   LIG    1       26.047 -28.298   8.675  0.00  0.00    +0.197 C 
ATOM     17  O   LIG    1       26.557 -27.180   8.578  0.00  0.00    -0.287 OA
ATOM     18  C   LIG    1       28.091 -29.494  12.658  0.00  0.00    +0.210 C 
ATOM     19  O   LIG    1       28.977 -29.449  11.802  0.00  0.00    -0.288 OA
ATOM     20  C   LIG    1       28.408 -30.078  13.974  0.00  0.00    +0.121 C 
ATOM     21  C   LIG    1       25.854 -31.182  11.255  0.00  0.00    +0.020 C 
ATOM     22  C   LIG    1       27.514 -30.974  14.441  0.00  0.00    +0.127 C 
ENDROOT
BRANCH  20  23
ATOM     23  C   LIG    1       29.696 -29.809  14.664  0.00  0.00    +0.253 C 
ATOM     24  N   LIG    1       30.172 -28.540  14.565  0.00  0.00    -0.289 N 
ATOM     25  H   LIG    1       29.659 -27.846  14.024  0.00  0.00    +0.151 HD
ATOM     26  O   LIG    1       30.291 -30.715  15.264  0.00  0.00    -0.270 OA
BRANCH  24  27
ATOM     27  C   LIG    1       31.385 -28.131  15.183  0.00  0.00    +0.264 C 
BRANCH  27  28
ATOM     28  O   LIG    1       31.403 -26.727  15.125  0.00  0.00    -0.377 OA
ATOM     29  H   LIG    1       32.244 -26.485  14.707  0.00  0.00    +0.211 HD
ENDBRANCH  27  28
ENDBRANCH  24  27
ENDBRANCH  20  23
BRANCH   1  31
ATOM     30  C   LIG    1       24.457 -32.659  14.955  0.00  0.00    +0.105 C 
ATOM     31  N   LIG    1       24.983 -31.310  14.740  0.00  0.00    -0.298 NA
ATOM     32  C   LIG    1       23.888 -30.407  14.367  0.00  0.00    +0.105 C 
ENDBRANCH   1  31
BRANCH   3  33
ATOM     33  O   LIG    1       26.244 -28.127  13.411  0.00  0.00    -0.373 OA
ATOM     34  H   LIG    1       26.989 -27.493  13.467  0.00  0.00    +0.211 HD
ENDBRANCH   3  33
BRANCH   4  35
ATOM     35  O   LIG    1       27.025 -27.113  11.079  0.00  0.00    -0.507 OA
ATOM     36  H   LIG    1       26.867 -26.720  10.188  0.00  0.00    +0.292 HD
ENDBRANCH   4  35
BRANCH   7  37
ATOM     37  O   LIG    1       27.025 -31.206   8.381  0.00  0.00    -0.384 OA
ATOM     38  H   LIG    1       27.400 -32.005   8.787  0.00  0.00    +0.211 HD
ENDBRANCH   7  37
BRANCH  11  39
ATOM     39  O   LIG    1       25.463 -26.770   6.321  0.00  0.00    -0.506 OA
ATOM     40  H   LIG    1       25.720 -26.576   5.393  0.00  0.00    +0.292 HD
ENDBRANCH  11  39
BRANCH  22  41
ATOM     41  O   LIG    1       27.830 -31.823  15.500  0.00  0.00    -0.509 OA
ATOM     42  H   LIG    1       27.584 -32.745  15.276  0.00  0.00    +0.292 HD
ENDBRANCH  22  41
TORSDOF 9
ENDMDL
MODEL 3
REMARK VINA RESULT:      -5.1      4.381      7.451
REMARK  Name = *****
REMARK                            x       y       z     vdW  Elec       q    Type
REMARK                         _______ _______ _______ _____ _____    ______ ____
ROOT
ATOM      1  C   LIG    1       28.187 -28.591  14.118  0.00  0.00    +0.129 C 
ATOM      2  C   LIG    1       26.870 -29.313  13.627  0.00  0.00    +0.061 C 
ATOM      3  C   LIG    1       25.592 -28.511  13.907  0.00  0.00    +0.190 C 
ATOM      4  C   LIG    1       24.377 -29.005  13.142  0.00  0.00    +0.141 C 
ATOM      5  C   LIG    1       24.452 -29.847  12.088  0.00  0.00    +0.047 C 
ATOM      6  C   LIG    1       25.749 -30.452  11.600  0.00  0.00    +0.062 C 
ATOM      7  C   LIG    1       25.739 -30.664  10.043  0.00  0.00    +0.097 C 
ATOM      8  C   LIG    1       27.129 -31.094   9.551  0.00  0.00    +0.047 C 
ATOM      9  C   LIG    1       24.535 -31.539   9.662  0.00  0.00    +0.017 A 
ATOM     10  C   LIG    1       23.285 -31.187  10.246  0.00  0.00    +0.071 A 
ATOM     11  C   LIG    1       22.081 -31.789   9.827  0.00  0.00    +0.128 A 
ATOM     12  C   LIG    1       22.085 -32.793   8.878  0.00  0.00    +0.047 A 
ATOM     13  C   LIG    1       23.296 -33.210   8.348  0.00  0.00    +0.024 A 
ATOM     14  C   LIG    1       24.507 -32.599   8.725  0.00  0.00    +0.048 A 
ATOM     15 CL   LIG    1       25.888 -33.310   7.967  0.00  0.00    -0.083 Cl
ATOM     16  C   LIG    1       23.209 -30.197  11.348  0.00  0.00    +0.197 C 
ATOM     17  O   LIG    1       22.120 -29.724  11.679  0.00  0.00    -0.287 OA
ATOM     18  C   LIG    1       25.852 -27.057  13.498  0.00  0.00    +0.210 C 
ATOM     19  O   LIG    1       25.287 -26.472  12.571  0.00  0.00    -0.288 OA
ATOM     20  C   LIG    1       26.939 -26.363  14.214  0.00  0.00    +0.121 C 
ATOM     21  C   LIG    1       26.965 -29.639  12.116  0.00  0.00    +0.020 C 
ATOM     22  C   LIG    1       28.061 -27.085  14.402  0.00  0.00    +0.127 C 
ENDROOT
BRANCH  20  23
ATOM     23  C   LIG    1       26.854 -24.922  14.566  0.00  0.00    +0.253 C 
ATOM     24  N   LIG    1       25.675 -24.507  15.102  0.00  0.00    -0.289 N 
ATOM     25  H   LIG    1       24.911 -25.169  15.221  0.00  0.00    +0.151 HD
ATOM     26  O   LIG    1       27.808 -24.162  14.347  0.00  0.00    -0.270 OA
BRANCH  24  27
ATOM     27  C   LIG    1       25.452 -23.161  15.500  0.00  0.00    +0.264 C 
BRANCH  27  28
ATOM     28  O   LIG    1       25.446 -22.397  14.320  0.00  0.00    -0.377 OA
ATOM     29  H   LIG    1       26.308 -21.954  14.280  0.00  0.00    +0.211 HD
ENDBRANCH  27  28
ENDBRANCH  24  27
ENDBRANCH  20  23
BRANCH   1  31
ATOM     30  C   LIG    1       30.247 -29.725  14.907  0.00  0.00    +0.105 C 
ATOM     31  N   LIG    1       28.842 -29.410  15.173  0.00  0.00    -0.298 NA
ATOM     32  C   LIG    1       28.112 -30.643  15.486  0.00  0.00    +0.105 C 
ENDBRANCH   1  31
BRANCH   3  33
ATOM     33  O   LIG    1       25.270 -28.565  15.296  0.00  0.00    -0.373 OA
ATOM     34  H   LIG    1       25.398 -29.500  15.560  0.00  0.00    +0.211 HD
ENDBRANCH   3  33
BRANCH   4  35
ATOM     35  O   LIG    1       23.179 -28.515  13.653  0.00  0.00    -0.507 OA
ATOM     36  H   LIG    1       22.873 -29.129  14.362  0.00  0.00    +0.292 HD
ENDBRANCH   4  35
BRANCH   7  37
ATOM     37  O   LIG    1       25.468 -29.399   9.409  0.00  0.00    -0.384 OA
ATOM     38  H   LIG    1       26.277 -29.070   8.983  0.00  0.00    +0.211 HD
ENDBRANCH   7  37
BRANCH  11  39
ATOM     39  O   LIG    1       20.846 -31.446  10.311  0.00  0.00    -0.506 OA
ATOM     40  H   LIG    1       20.165 -31.843   9.725  0.00  0.00    +0.292 HD
ENDBRANCH  11  39
BRANCH  22  41
ATOM     41  O   LIG    1       29.258 -26.475  14.775  0.00  0.00    -0.509 OA
ATOM     42  H   LIG    1       29.580 -25.897  14.050  0.00  0.00    +0.292 HD
ENDBRANCH  22  41
TORSDOF 9
ENDMDL
MODEL 4
REMARK VINA RESULT:      -5.0      4.464      7.400
REMARK  Name = *****
REMARK                            x       y       z     vdW  Elec       q    Type
REMARK                         _______ _______ _______ _____ _____    ______ ____
ROOT
ATOM      1  C   LIG    1       26.815 -27.115  14.415  0.00  0.00    +0.129 C 
ATOM      2  C   LIG    1       25.791 -27.727  13.379  0.00  0.00    +0.061 C 
ATOM      3  C   LIG    1       26.442 -28.675  12.362  0.00  0.00    +0.190 C 
ATOM      4  C   LIG    1       25.448 -29.534  11.601  0.00  0.00    +0.141 C 
ATOM      5  C   LIG    1       24.162 -29.697  11.979  0.00  0.00    +0.047 C 
ATOM      6  C   LIG    1       23.546 -28.982  13.161  0.00  0.00    +0.062 C 
ATOM      7  C   LIG    1       22.451 -29.862  13.864  0.00  0.00    +0.097 C 
ATOM      8  C   LIG    1       21.985 -29.196  15.168  0.00  0.00    +0.047 C 
ATOM      9  C   LIG    1       21.384 -30.258  12.833  0.00  0.00    +0.017 A 
ATOM     10  C   LIG    1       21.861 -30.747  11.583  0.00  0.00    +0.071 A 
ATOM     11  C   LIG    1       20.988 -31.319  10.635  0.00  0.00    +0.128 A 
ATOM     12  C   LIG    1       19.626 -31.363  10.863  0.00  0.00    +0.047 A 
ATOM     13  C   LIG    1       19.126 -30.825  12.039  0.00  0.00    +0.024 A 
ATOM     14  C   LIG    1       19.981 -30.280  13.015  0.00  0.00    +0.048 A 
ATOM     15 CL   LIG    1       19.132 -29.633  14.374  0.00  0.00    -0.083 Cl
ATOM     16  C   LIG    1       23.294 -30.636  11.216  0.00  0.00    +0.197 C 
ATOM     17  O   LIG    1       23.735 -31.268  10.255  0.00  0.00    -0.287 OA
ATOM     18  C   LIG    1       27.387 -29.608  13.129  0.00  0.00    +0.210 C 
ATOM     19  O   LIG    1       27.233 -30.825  13.250  0.00  0.00    -0.288 OA
ATOM     20  C   LIG    1       28.495 -28.959  13.855  0.00  0.00    +0.121 C 
ATOM     21  C   LIG    1       24.646 -28.458  14.121  0.00  0.00    +0.020 C 
ATOM     22  C   LIG    1       28.167 -27.839  14.531  0.00  0.00    +0.127 C 
ENDROOT
BRANCH  20  23
ATOM     23  C   LIG    1       29.839 -29.583  13.956  0.00  0.00    +0.253 C 
ATOM     24  N   LIG    1       30.695 -29.325  12.932  0.00  0.00    -0.289 N 
ATOM     25  H   LIG    1       30.390 -28.751  12.148  0.00  0.00    +0.151 HD
ATOM     26  O   LIG    1       30.127 -30.311  14.917  0.00  0.00    -0.270 OA
BRANCH  24  27
ATOM     27  C   LIG    1       32.019 -29.841  12.898  0.00  0.00    +0.264 C 
BRANCH  27  28
ATOM     28  O   LIG    1       32.697 -29.257  13.982  0.00  0.00    -0.377 OA
ATOM     29  H   LIG    1       33.567 -28.991  13.644  0.00  0.00    +0.211 HD
ENDBRANCH  27  28
ENDBRANCH  24  27
ENDBRANCH  20  23
BRANCH   1  31
ATOM     30  C   LIG    1       26.715 -24.886  15.498  0.00  0.00    +0.105 C 
ATOM     31  N   LIG    1       26.870 -25.637  14.251  0.00  0.00    -0.298 NA
ATOM     32  C   LIG    1       25.925 -25.131  13.250  0.00  0.00    +0.105 C 
ENDBRANCH   1  31
BRANCH   3  33
ATOM     33  O   LIG    1       27.185 -27.930  11.399  0.00  0.00    -0.373 OA
ATOM     34  H   LIG    1       26.518 -27.455  10.861  0.00  0.00    +0.211 HD
ENDBRANCH   3  33
BRANCH   4  35
ATOM     35  O   LIG    1       25.997 -30.118  10.464  0.00  0.00    -0.507 OA
ATOM     36  H   LIG    1       26.131 -31.079  10.645  0.00  0.00    +0.292 HD
ENDBRANCH   4  35
BRANCH   7  37
ATOM     37  O   LIG    1       23.048 -31.115  14.251  0.00  0.00    -0.384 OA
ATOM     38  H   LIG    1       22.595 -31.460  15.038  0.00  0.00    +0.211 HD
ENDBRANCH   7  37
BRANCH  11  39
ATOM     39  O   LIG    1       21.400 -31.858   9.445  0.00  0.00    -0.506 OA
ATOM     40  H   LIG    1       22.195 -32.409   9.616  0.00  0.00    +0.292 HD
ENDBRANCH  11  39
BRANCH  22  41
ATOM     41  O   LIG    1       29.018 -27.305  15.497  0.00  0.00    -0.509 OA
ATOM     42  H   LIG    1       28.690 -26.427  15.785  0.00  0.00    +0.292 HD
ENDBRANCH  22  41
TORSDOF 9
ENDMDL
MODEL 5
REMARK VINA RESULT:      -4.9      4.750      7.205
REMARK  Name = *****
REMARK                            x       y       z     vdW  Elec       q    Type
REMARK                         _______ _______ _______ _____ _____    ______ ____
ROOT
ATOM      1  C   LIG    1       25.709 -29.506  12.728  0.00  0.00    +0.129 C 
ATOM      2  C   LIG    1       24.266 -29.857  13.267  0.00  0.00    +0.061 C 
ATOM      3  C   LIG    1       23.674 -28.776  14.183  0.00  0.00    +0.190 C 
ATOM      4  C   LIG    1       22.181 -28.921  14.418  0.00  0.00    +0.141 C 
ATOM      5  C   LIG    1       21.382 -29.708  13.666  0.00  0.00    +0.047 C 
ATOM      6  C   LIG    1       21.897 -30.594  12.554  0.00  0.00    +0.062 C 
ATOM      7  C   LIG    1       20.850 -30.729  11.390  0.00  0.00    +0.097 C 
ATOM      8  C   LIG    1       21.470 -31.468  10.195  0.00  0.00    +0.047 C 
ATOM      9  C   LIG    1       19.527 -31.261  11.962  0.00  0.00    +0.017 A 
ATOM     10  C   LIG    1       19.053 -30.636  13.150  0.00  0.00    +0.071 A 
ATOM     11  C   LIG    1       17.765 -30.903  13.658  0.00  0.00    +0.128 A 
ATOM     12  C   LIG    1       16.944 -31.834  13.052  0.00  0.00    +0.047 A 
ATOM     13  C   LIG    1       17.410 -32.514  11.938  0.00  0.00    +0.024 A 
ATOM     14  C   LIG    1       18.678 -32.239  11.392  0.00  0.00    +0.048 A 
ATOM     15 CL   LIG    1       19.060 -33.236  10.033  0.00  0.00    -0.083 Cl
ATOM     16  C   LIG    1       19.915 -29.707  13.921  0.00  0.00    +0.197 C 
ATOM     17  O   LIG    1       19.424 -28.994  14.798  0.00  0.00    -0.287 OA
ATOM     18  C   LIG    1       23.922 -27.416  13.522  0.00  0.00    +0.210 C 
ATOM     19  O   LIG    1       23.041 -26.669  13.090  0.00  0.00    -0.288 OA
ATOM     20  C   LIG    1       25.333 -27.044  13.304  0.00  0.00    +0.121 C 
ATOM     21  C   LIG    1       23.301 -30.131  12.087  0.00  0.00    +0.020 C 
ATOM     22  C   LIG    1       26.125 -28.030  12.836  0.00  0.00    +0.127 C 
ENDROOT
BRANCH  20  23
ATOM     23  C   LIG    1       25.808 -25.644  13.446  0.00  0.00    +0.253 C 
ATOM     24  N   LIG    1       25.271 -24.933  14.473  0.00  0.00    -0.289 N 
ATOM     25  H   LIG    1       24.572 -25.362  15.076  0.00  0.00    +0.151 HD
ATOM     26  O   LIG    1       26.627 -25.171  12.645  0.00  0.00    -0.270 OA
BRANCH  24  27
ATOM     27  C   LIG    1       25.640 -23.587  14.742  0.00  0.00    +0.264 C 
BRANCH  27  28
ATOM     28  O   LIG    1       27.044 -23.565  14.789  0.00  0.00    -0.377 OA
ATOM     29  H   LIG    1       27.280 -23.339  15.702  0.00  0.00    +0.211 HD
ENDBRANCH  27  28
ENDBRANCH  24  27
ENDBRANCH  20  23
BRANCH   1  31
ATOM     30  C   LIG    1       26.095 -31.789  13.615  0.00  0.00    +0.105 C 
ATOM     31  N   LIG    1       26.688 -30.507  13.232  0.00  0.00    -0.298 NA
ATOM     32  C   LIG    1       27.520 -30.001  14.329  0.00  0.00    +0.105 C 
ENDBRANCH   1  31
BRANCH   3  33
ATOM     33  O   LIG    1       24.311 -28.810  15.459  0.00  0.00    -0.373 OA
ATOM     34  H   LIG    1       23.822 -28.168  16.015  0.00  0.00    +0.211 HD
ENDBRANCH   3  33
BRANCH   4  35
ATOM     35  O   LIG    1       21.729 -28.172  15.500  0.00  0.00    -0.507 OA
ATOM     36  H   LIG    1       22.320 -27.389  15.602  0.00  0.00    +0.292 HD
ENDBRANCH   4  35
BRANCH   7  37
ATOM     37  O   LIG    1       20.520 -29.410  10.913  0.00  0.00    -0.384 OA
ATOM     38  H   LIG    1       21.305 -29.009  10.504  0.00  0.00    +0.211 HD
ENDBRANCH   7  37
BRANCH  11  39
ATOM     39  O   LIG    1       17.237 -30.286  14.761  0.00  0.00    -0.506 OA
ATOM     40  H   LIG    1       16.990 -29.368  14.512  0.00  0.00    +0.292 HD
ENDBRANCH  11  39
BRANCH  22  41
ATOM     41  O   LIG    1       27.380 -27.751  12.296  0.00  0.00    -0.509 OA
ATOM     42  H   LIG    1       28.004 -27.500  13.009  0.00  0.00    +0.292 HD
ENDBRANCH  22  41
TORSDOF 9
ENDMDL
MODEL 6
REMARK VINA RESULT:      -4.7      2.026      2.490
REMARK  Name = *****
REMARK                            x       y       z     vdW  Elec       q    Type
REMARK                         _______ _______ _______ _____ _____    ______ ____
ROOT
ATOM      1  C   LIG    1       24.969 -31.913   6.522  0.00  0.00    +0.129 C 
ATOM      2  C   LIG    1       24.872 -31.723   8.088  0.00  0.00    +0.061 C 
ATOM      3  C   LIG    1       25.445 -30.386   8.579  0.00  0.00    +0.190 C 
ATOM      4  C   LIG    1       25.047 -30.034  10.001  0.00  0.00    +0.141 C 
ATOM      5  C   LIG    1       24.047 -30.649  10.669  0.00  0.00    +0.047 C 
ATOM      6  C   LIG    1       23.260 -31.809  10.102  0.00  0.00    +0.062 C 
ATOM      7  C   LIG    1       21.771 -31.799  10.603  0.00  0.00    +0.097 C 
ATOM      8  C   LIG    1       20.950 -32.866   9.865  0.00  0.00    +0.047 C 
ATOM      9  C   LIG    1       21.757 -31.811  12.139  0.00  0.00    +0.017 A 
ATOM     10  C   LIG    1       22.634 -30.896  12.789  0.00  0.00    +0.071 A 
ATOM     11  C   LIG    1       22.572 -30.679  14.181  0.00  0.00    +0.128 A 
ATOM     12  C   LIG    1       21.697 -31.400  14.971  0.00  0.00    +0.047 A 
ATOM     13  C   LIG    1       20.885 -32.352  14.376  0.00  0.00    +0.024 A 
ATOM     14  C   LIG    1       20.905 -32.562  12.984  0.00  0.00    +0.048 A 
ATOM     15 CL   LIG    1       19.841 -33.825  12.475  0.00  0.00    -0.083 Cl
ATOM     16  C   LIG    1       23.675 -30.164  12.027  0.00  0.00    +0.197 C 
ATOM     17  O   LIG    1       24.260 -29.209  12.542  0.00  0.00    -0.287 OA
ATOM     18  C   LIG    1       24.921 -29.283   7.652  0.00  0.00    +0.210 C 
ATOM     19  O   LIG    1       24.152 -28.381   7.991  0.00  0.00    -0.288 OA
ATOM     20  C   LIG    1       25.297 -29.394   6.230  0.00  0.00    +0.121 C 
ATOM     21  C   LIG    1       23.405 -31.870   8.559  0.00  0.00    +0.020 C 
ATOM     22  C   LIG    1       25.213 -30.633   5.704  0.00  0.00    +0.127 C 
ENDROOT
BRANCH  20  23
ATOM     23  C   LIG    1       25.598 -28.199   5.401  0.00  0.00    +0.253 C 
ATOM     24  N   LIG    1       24.760 -27.140   5.554  0.00  0.00    -0.289 N 
ATOM     25  H   LIG    1       23.970 -27.205   6.194  0.00  0.00    +0.151 HD
ATOM     26  O   LIG    1       26.549 -28.206   4.606  0.00  0.00    -0.270 OA
BRANCH  24  27
ATOM     27  C   LIG    1       24.931 -25.924   4.838  0.00  0.00    +0.264 C 
BRANCH  27  28
ATOM     28  O   LIG    1       26.047 -25.286   5.407  0.00  0.00    -0.377 OA
ATOM     29  H   LIG    1       25.717 -24.806   6.184  0.00  0.00    +0.211 HD
ENDBRANCH  27  28
ENDBRANCH  24  27
ENDBRANCH  20  23
BRANCH   1  31
ATOM     30  C   LIG    1       27.268 -32.737   6.093  0.00  0.00    +0.105 C 
ATOM     31  N   LIG    1       25.848 -33.073   6.213  0.00  0.00    -0.298 NA
ATOM     32  C   LIG    1       25.418 -33.825   5.029  0.00  0.00    +0.105 C 
ENDBRANCH   1  31
BRANCH   3  33
ATOM     33  O   LIG    1       26.870 -30.413   8.530  0.00  0.00    -0.373 OA
ATOM     34  H   LIG    1       27.120 -29.830   7.784  0.00  0.00    +0.211 HD
ENDBRANCH   3  33
BRANCH   4  35
ATOM     35  O   LIG    1       25.834 -29.026  10.550  0.00  0.00    -0.507 OA
ATOM     36  H   LIG    1       25.395 -28.161  10.372  0.00  0.00    +0.292 HD
ENDBRANCH   4  35
BRANCH   7  37
ATOM     37  O   LIG    1       21.178 -30.532  10.257  0.00  0.00    -0.384 OA
ATOM     38  H   LIG    1       21.668 -29.816  10.693  0.00  0.00    +0.211 HD
ENDBRANCH   7  37
BRANCH  11  39
ATOM     39  O   LIG    1       23.349 -29.768  14.847  0.00  0.00    -0.506 OA
ATOM     40  H   LIG    1       22.915 -29.562  15.704  0.00  0.00    +0.292 HD
ENDBRANCH  11  39
BRANCH  22  41
ATOM     41  O   LIG    1       25.232 -30.834   4.325  0.00  0.00    -0.509 OA
ATOM     42  H   LIG    1       25.515 -31.751   4.123  0.00  0.00    +0.292 HD
ENDBRANCH  22  41
TORSDOF 9
ENDMDL
MODEL 7
REMARK VINA RESULT:      -4.4      5.147      7.754
REMARK  Name = *****
REMARK                            x       y       z     vdW  Elec       q    Type
REMARK                         _______ _______ _______ _____ _____    ______ ____
ROOT
ATOM      1  C   LIG    1       21.384 -32.432  12.174  0.00  0.00    +0.129 C 
ATOM      2  C   LIG    1       22.027 -30.990  12.128  0.00  0.00    +0.061 C 
ATOM      3  C   LIG    1       21.014 -29.860  12.357  0.00  0.00    +0.190 C 
ATOM      4  C   LIG    1       21.651 -28.517  12.668  0.00  0.00    +0.141 C 
ATOM      5  C   LIG    1       22.946 -28.373  13.025  0.00  0.00    +0.047 C 
ATOM      6  C   LIG    1       23.927 -29.523  13.080  0.00  0.00    +0.062 C 
ATOM      7  C   LIG    1       24.996 -29.318  14.212  0.00  0.00    +0.097 C 
ATOM      8  C   LIG    1       25.853 -30.583  14.375  0.00  0.00    +0.047 C 
ATOM      9  C   LIG    1       25.716 -27.980  13.989  0.00  0.00    +0.017 A 
ATOM     10  C   LIG    1       24.891 -26.854  13.708  0.00  0.00    +0.071 A 
ATOM     11  C   LIG    1       25.416 -25.546  13.675  0.00  0.00    +0.128 A 
ATOM     12  C   LIG    1       26.768 -25.322  13.851  0.00  0.00    +0.047 A 
ATOM     13  C   LIG    1       27.607 -26.407  14.050  0.00  0.00    +0.024 A 
ATOM     14  C   LIG    1       27.100 -27.719  14.121  0.00  0.00    +0.048 A 
ATOM     15 CL   LIG    1       28.335 -28.910  14.333  0.00  0.00    -0.083 Cl
ATOM     16  C   LIG    1       23.449 -27.022  13.400  0.00  0.00    +0.197 C 
ATOM     17  O   LIG    1       22.701 -26.044  13.397  0.00  0.00    -0.287 OA
ATOM     18  C   LIG    1       20.133 -30.255  13.548  0.00  0.00    +0.210 C 
ATOM     19  O   LIG    1       20.110 -29.672  14.634  0.00  0.00    -0.288 OA
ATOM     20  C   LIG    1       19.344 -31.491  13.393  0.00  0.00    +0.121 C 
ATOM     21  C   LIG    1       23.178 -30.879  13.157  0.00  0.00    +0.020 C 
ATOM     22  C   LIG    1       19.996 -32.528  12.829  0.00  0.00    +0.127 C 
ENDROOT
BRANCH  20  23
ATOM     23  C   LIG    1       17.976 -31.626  13.956  0.00  0.00    +0.253 C 
ATOM     24  N   LIG    1       17.120 -30.602  13.697  0.00  0.00    -0.289 N 
ATOM     25  H   LIG    1       17.439 -29.797  13.161  0.00  0.00    +0.151 HD
ATOM     26  O   LIG    1       17.670 -32.613  14.641  0.00  0.00    -0.270 OA
BRANCH  24  27
ATOM     27  C   LIG    1       15.775 -30.598  14.159  0.00  0.00    +0.264 C 
BRANCH  27  28
ATOM     28  O   LIG    1       15.820 -30.171  15.497  0.00  0.00    -0.377 OA
ATOM     29  H   LIG    1       14.897 -30.098  15.788  0.00  0.00    +0.211 HD
ENDBRANCH  27  28
ENDBRANCH  24  27
ENDBRANCH  20  23
BRANCH   1  31
ATOM     30  C   LIG    1       22.783 -32.768  10.154  0.00  0.00    +0.105 C 
ATOM     31  N   LIG    1       21.534 -33.089  10.847  0.00  0.00    -0.298 NA
ATOM     32  C   LIG    1       20.397 -32.851   9.952  0.00  0.00    +0.105 C 
ENDBRANCH   1  31
BRANCH   3  33
ATOM     33  O   LIG    1       20.200 -29.686  11.199  0.00  0.00    -0.373 OA
ATOM     34  H   LIG    1       20.762 -29.214  10.549  0.00  0.00    +0.211 HD
ENDBRANCH   3  33
BRANCH   4  35
ATOM     35  O   LIG    1       20.767 -27.452  12.528  0.00  0.00    -0.507 OA
ATOM     36  H   LIG    1       19.932 -27.681  13.001  0.00  0.00    +0.292 HD
ENDBRANCH   4  35
BRANCH   7  37
ATOM     37  O   LIG    1       24.309 -29.141  15.466  0.00  0.00    -0.384 OA
ATOM     38  H   LIG    1       24.809 -29.580  16.174  0.00  0.00    +0.211 HD
ENDBRANCH   7  37
BRANCH  11  39
ATOM     39  O   LIG    1       24.658 -24.424  13.470  0.00  0.00    -0.506 OA
ATOM     40  H   LIG    1       23.830 -24.692  13.013  0.00  0.00    +0.292 HD
ENDBRANCH  11  39
BRANCH  22  41
ATOM     41  O   LIG    1       19.490 -33.825  12.904  0.00  0.00    -0.509 OA
ATOM     42  H   LIG    1       19.428 -34.213  12.006  0.00  0.00    +0.292 HD
ENDBRANCH  22  41
TORSDOF 9
ENDMDL
MODEL 8
REMARK VINA RESULT:      -4.2      2.510      4.200
REMARK  Name = *****
REMARK                            x       y       z     vdW  Elec       q    Type
REMARK                         _______ _______ _______ _____ _____    ______ ____
ROOT
ATOM      1  C   LIG    1       25.280 -28.963   6.669  0.00  0.00    +0.129 C 
ATOM      2  C   LIG    1       24.796 -29.538   8.058  0.00  0.00    +0.061 C 
ATOM      3  C   LIG    1       24.513 -31.047   8.031  0.00  0.00    +0.190 C 
ATOM      4  C   LIG    1       24.396 -31.675   9.408  0.00  0.00    +0.141 C 
ATOM      5  C   LIG    1       24.808 -31.065  10.542  0.00  0.00    +0.047 C 
ATOM      6  C   LIG    1       25.360 -29.658  10.575  0.00  0.00    +0.062 C 
ATOM      7  C   LIG    1       26.451 -29.490  11.693  0.00  0.00    +0.097 C 
ATOM      8  C   LIG    1       27.130 -28.118  11.577  0.00  0.00    +0.047 C 
ATOM      9  C   LIG    1       25.847 -29.886  13.049  0.00  0.00    +0.017 A 
ATOM     10  C   LIG    1       25.108 -31.103  13.083  0.00  0.00    +0.071 A 
ATOM     11  C   LIG    1       24.673 -31.665  14.301  0.00  0.00    +0.128 A 
ATOM     12  C   LIG    1       24.893 -31.015  15.500  0.00  0.00    +0.047 A 
ATOM     13  C   LIG    1       25.543 -29.791  15.488  0.00  0.00    +0.024 A 
ATOM     14  C   LIG    1       26.017 -29.227  14.289  0.00  0.00    +0.048 A 
ATOM     15 CL   LIG    1       26.755 -27.680  14.515  0.00  0.00    -0.083 Cl
ATOM     16  C   LIG    1       24.735 -31.806  11.831  0.00  0.00    +0.197 C 
ATOM     17  O   LIG    1       24.315 -32.963  11.875  0.00  0.00    -0.287 OA
ATOM     18  C   LIG    1       25.672 -31.728   7.294  0.00  0.00    +0.210 C 
ATOM     19  O   LIG    1       26.476 -32.506   7.810  0.00  0.00    -0.288 OA
ATOM     20  C   LIG    1       25.880 -31.322   5.891  0.00  0.00    +0.121 C 
ATOM     21  C   LIG    1       25.832 -29.219   9.164  0.00  0.00    +0.020 C 
ATOM     22  C   LIG    1       25.784 -29.999   5.651  0.00  0.00    +0.127 C 
ENDROOT
BRANCH  20  23
ATOM     23  C   LIG    1       26.315 -32.289   4.851  0.00  0.00    +0.253 C 
ATOM     24  N   LIG    1       25.572 -32.314   3.712  0.00  0.00    -0.289 N 
ATOM     25  H   LIG    1       24.760 -31.707   3.622  0.00  0.00    +0.151 HD
ATOM     26  O   LIG    1       27.286 -33.034   5.047  0.00  0.00    -0.270 OA
BRANCH  24  27
ATOM     27  C   LIG    1       25.876 -33.177   2.624  0.00  0.00    +0.264 C 
BRANCH  27  28
ATOM     28  O   LIG    1       27.055 -32.679   2.044  0.00  0.00    -0.377 OA
ATOM     29  H   LIG    1       26.964 -32.813   1.087  0.00  0.00    +0.211 HD
ENDBRANCH  27  28
ENDBRANCH  24  27
ENDBRANCH  20  23
BRANCH   1  31
ATOM     30  C   LIG    1       23.633 -28.357   4.915  0.00  0.00    +0.105 C 
ATOM     31  N   LIG    1       24.289 -27.972   6.166  0.00  0.00    -0.298 NA
ATOM     32  C   LIG    1       24.839 -26.618   6.038  0.00  0.00    +0.105 C 
ENDBRANCH   1  31
BRANCH   3  33
ATOM     33  O   LIG    1       23.291 -31.306   7.341  0.00  0.00    -0.373 OA
ATOM     34  H   LIG    1       22.590 -31.274   8.025  0.00  0.00    +0.211 HD
ENDBRANCH   3  33
BRANCH   4  35
ATOM     35  O   LIG    1       23.804 -32.933   9.381  0.00  0.00    -0.507 OA
ATOM     36  H   LIG    1       23.540 -33.169  10.302  0.00  0.00    +0.292 HD
ENDBRANCH   4  35
BRANCH   7  37
ATOM     37  O   LIG    1       27.488 -30.466  11.473  0.00  0.00    -0.384 OA
ATOM     38  H   LIG    1       27.095 -31.355  11.444  0.00  0.00    +0.211 HD
ENDBRANCH   7  37
BRANCH  11  39
ATOM     39  O   LIG    1       24.012 -32.862  14.396  0.00  0.00    -0.506 OA
ATOM     40  H   LIG    1       23.288 -32.762  15.053  0.00  0.00    +0.292 HD
ENDBRANCH  11  39
BRANCH  22  41
ATOM     41  O   LIG    1       26.257 -29.446   4.462  0.00  0.00    -0.509 OA
ATOM     42  H   LIG    1       27.205 -29.667   4.343  0.00  0.00    +0.292 HD
ENDBRANCH  22  41
TORSDOF 9
ENDMDL
MODEL 9
REMARK VINA RESULT:      -4.1      3.993      7.648
REMARK  Name = *****
REMARK                            x       y       z     vdW  Elec       q    Type
REMARK                         _______ _______ _______ _____ _____    ______ ____
ROOT
ATOM      1  C   LIG    1       26.040 -28.655  13.566  0.00  0.00    +0.129 C 
ATOM      2  C   LIG    1       25.325 -29.802  12.748  0.00  0.00    +0.061 C 
ATOM      3  C   LIG    1       23.835 -29.956  13.084  0.00  0.00    +0.190 C 
ATOM      4  C   LIG    1       23.062 -30.789  12.077  0.00  0.00    +0.141 C 
ATOM      5  C   LIG    1       23.535 -31.104  10.851  0.00  0.00    +0.047 C 
ATOM      6  C   LIG    1       24.918 -30.725  10.372  0.00  0.00    +0.062 C 
ATOM      7  C   LIG    1       24.939 -30.447   8.826  0.00  0.00    +0.097 C 
ATOM      8  C   LIG    1       26.302 -29.879   8.402  0.00  0.00    +0.047 C 
ATOM      9  C   LIG    1       24.409 -31.684   8.085  0.00  0.00    +0.017 A 
ATOM     10  C   LIG    1       23.212 -32.263   8.592  0.00  0.00    +0.071 A 
ATOM     11  C   LIG    1       22.528 -33.276   7.889  0.00  0.00    +0.128 A 
ATOM     12  C   LIG    1       23.037 -33.786   6.710  0.00  0.00    +0.047 A 
ATOM     13  C   LIG    1       24.242 -33.295   6.232  0.00  0.00    +0.024 A 
ATOM     14  C   LIG    1       24.925 -32.260   6.900  0.00  0.00    +0.048 A 
ATOM     15 CL   LIG    1       26.421 -31.840   6.144  0.00  0.00    -0.083 Cl
ATOM     16  C   LIG    1       22.658 -31.847   9.904  0.00  0.00    +0.197 C 
ATOM     17  O   LIG    1       21.512 -32.169  10.221  0.00  0.00    -0.287 OA
ATOM     18  C   LIG    1       23.215 -28.554  13.117  0.00  0.00    +0.210 C 
ATOM     19  O   LIG    1       22.368 -28.138  12.323  0.00  0.00    -0.288 OA
ATOM     20  C   LIG    1       23.768 -27.620  14.115  0.00  0.00    +0.121 C 
ATOM     21  C   LIG    1       25.500 -29.569  11.227  0.00  0.00    +0.020 C 
ATOM     22  C   LIG    1       25.112 -27.625  14.231  0.00  0.00    +0.127 C 
ENDROOT
BRANCH  20  23
ATOM     23  C   LIG    1       22.914 -26.639  14.831  0.00  0.00    +0.253 C 
ATOM     24  N   LIG    1       21.580 -26.905  14.843  0.00  0.00    -0.289 N 
ATOM     25  H   LIG    1       21.223 -27.728  14.360  0.00  0.00    +0.151 HD
ATOM     26  O   LIG    1       23.411 -25.632  15.355  0.00  0.00    -0.270 OA
BRANCH  24  27
ATOM     27  C   LIG    1       20.642 -26.064  15.500  0.00  0.00    +0.264 C 
BRANCH  27  28
ATOM     28  O   LIG    1       19.373 -26.607  15.234  0.00  0.00    -0.377 OA
ATOM     29  H   LIG    1       18.750 -26.131  15.806  0.00  0.00    +0.211 HD
ENDBRANCH  27  28
ENDBRANCH  24  27
ENDBRANCH  20  23
BRANCH   1  31
ATOM     30  C   LIG    1       28.434 -28.680  14.213  0.00  0.00    +0.105 C 
ATOM     31  N   LIG    1       27.100 -29.242  14.430  0.00  0.00    -0.298 NA
ATOM     32  C   LIG    1       27.164 -30.706  14.353  0.00  0.00    +0.105 C 
ENDBRANCH   1  31
BRANCH   3  33
ATOM     33  O   LIG    1       23.679 -30.577  14.359  0.00  0.00    -0.373 OA
ATOM     34  H   LIG    1       23.068 -31.329  14.214  0.00  0.00    +0.211 HD
ENDBRANCH   3  33
BRANCH   4  35
ATOM     35  O   LIG    1       21.827 -31.211  12.558  0.00  0.00    -0.507 OA
ATOM     36  H   LIG    1       21.233 -30.425  12.612  0.00  0.00    +0.292 HD
ENDBRANCH   4  35
BRANCH   7  37
ATOM     37  O   LIG    1       23.972 -29.421   8.530  0.00  0.00    -0.384 OA
ATOM     38  H   LIG    1       24.405 -28.697   8.048  0.00  0.00    +0.211 HD
ENDBRANCH   7  37
BRANCH  11  39
ATOM     39  O   LIG    1       21.342 -33.824   8.301  0.00  0.00    -0.506 OA
ATOM     40  H   LIG    1       20.806 -33.117   8.721  0.00  0.00    +0.292 HD
ENDBRANCH  11  39
BRANCH  22  41
ATOM     41  O   LIG    1       25.782 -26.597  14.891  0.00  0.00    -0.509 OA
ATOM     42  H   LIG    1       26.202 -25.997  14.239  0.00  0.00    +0.292 HD
ENDBRANCH  22  41
TORSDOF 9
ENDMDL
