MODEL 1
REMARK VINA RESULT:      -7.8      0.000      0.000
REMARK  Name = *****
REMARK                            x       y       z     vdW  Elec       q    Type
REMARK                         _______ _______ _______ _____ _____    ______ ____
ROOT
ATOM      1  C   LIG    1       24.420 -22.414   5.621  0.00  0.00    +0.151 C 
ATOM      2  C   LIG    1       24.879 -20.923   5.807  0.00  0.00    +0.021 C 
ATOM      3  C   LIG    1       23.530 -20.131   5.683  0.00  0.00    +0.025 C 
ATOM      4  C   LIG    1       23.132 -19.668   4.257  0.00  0.00    +0.001 C 
ATOM      5  C   LIG    1       24.306 -19.021   3.502  0.00  0.00    -0.000 C 
ATOM      6  C   LIG    1       25.441 -20.047   3.408  0.00  0.00    +0.005 C 
ATOM      7  C   LIG    1       24.716 -17.645   4.106  0.00  0.00    +0.019 C 
ATOM      8  C   LIG    1       23.505 -16.730   4.250  0.00  0.00    -0.063 C 
ATOM      9  C   LIG    1       23.519 -15.427   3.915  0.00  0.00    +0.045 C 
ATOM     10  C   LIG    1       24.769 -14.756   3.487  0.00  0.00    +0.156 C 
ATOM     11  O   LIG    1       24.739 -13.575   3.153  0.00  0.00    -0.293 OA
ATOM     12  C   LIG    1       26.054 -15.534   3.597  0.00  0.00    +0.079 C 
ATOM     13  C   LIG    1       22.260 -17.339   4.847  0.00  0.00    +0.031 C 
ATOM     14  C   LIG    1       25.822 -16.995   3.248  0.00  0.00    +0.016 C 
ATOM     15  C   LIG    1       21.931 -18.704   4.251  0.00  0.00    +0.009 C 
ATOM     16  C   LIG    1       22.525 -21.140   6.191  0.00  0.00    -0.023 C 
ATOM     17  C   LIG    1       25.956 -20.485   4.773  0.00  0.00    +0.012 C 
ATOM     18  C   LIG    1       23.016 -22.385   6.147  0.00  0.00    +0.017 C 
ENDROOT
BRANCH   1  20
ATOM     19  C   LIG    1       25.901 -24.248   6.875  0.00  0.00    +0.007 C 
ATOM     20  C   LIG    1       25.244 -23.416   6.310  0.00  0.00    -0.066 C 
ENDBRANCH   1  20
BRANCH   1  21
ATOM     21  O   LIG    1       24.330 -22.777   4.250  0.00  0.00    -0.372 OA
ATOM     22  H   LIG    1       24.321 -23.747   4.221  0.00  0.00    +0.212 HD
ENDBRANCH   1  21
BRANCH   2  23
ATOM     23  C   LIG    1       25.527 -20.638   7.224  0.00  0.00    +0.008 C 
ATOM     24  C   LIG    1       27.018 -20.328   7.316  0.00  0.00    +0.004 C 
ENDBRANCH   2  23
TORSDOF 3
ENDMDL
MODEL 2
REMARK VINA RESULT:      -5.9      7.880     11.573
REMARK  Name = *****
REMARK                            x       y       z     vdW  Elec       q    Type
REMARK                         _______ _______ _______ _____ _____    ______ ____
ROOT
ATOM      1  C   LIG    1       24.521 -31.945  11.246  0.00  0.00    +0.151 C 
ATOM      2  C   LIG    1       24.217 -30.569  10.552  0.00  0.00    +0.021 C 
ATOM      3  C   LIG    1       23.859 -30.997   9.085  0.00  0.00    +0.025 C 
ATOM      4  C   LIG    1       25.039 -31.068   8.081  0.00  0.00    +0.001 C 
ATOM      5  C   LIG    1       25.954 -29.834   8.163  0.00  0.00    -0.000 C 
ATOM      6  C   LIG    1       26.503 -29.737   9.591  0.00  0.00    +0.005 C 
ATOM      7  C   LIG    1       25.258 -28.542   7.640  0.00  0.00    +0.019 C 
ATOM      8  C   LIG    1       24.660 -28.766   6.256  0.00  0.00    -0.063 C 
ATOM      9  C   LIG    1       24.769 -27.878   5.251  0.00  0.00    +0.045 C 
ATOM     10  C   LIG    1       25.387 -26.549   5.463  0.00  0.00    +0.156 C 
ATOM     11  O   LIG    1       25.503 -25.777   4.515  0.00  0.00    -0.293 OA
ATOM     12  C   LIG    1       25.740 -26.157   6.873  0.00  0.00    +0.079 C 
ATOM     13  C   LIG    1       23.871 -30.037   6.055  0.00  0.00    +0.031 C 
ATOM     14  C   LIG    1       26.252 -27.361   7.647  0.00  0.00    +0.016 C 
ATOM     15  C   LIG    1       24.578 -31.263   6.624  0.00  0.00    +0.009 C 
ATOM     16  C   LIG    1       23.283 -32.379   9.294  0.00  0.00    -0.023 C 
ATOM     17  C   LIG    1       25.407 -29.570  10.636  0.00  0.00    +0.012 C 
ATOM     18  C   LIG    1       23.655 -32.893  10.473  0.00  0.00    +0.017 C 
ENDROOT
BRANCH   1  20
ATOM     19  C   LIG    1       24.016 -32.059  13.866  0.00  0.00    +0.007 C 
ATOM     20  C   LIG    1       24.241 -31.996  12.688  0.00  0.00    -0.066 C 
ENDBRANCH   1  20
BRANCH   1  21
ATOM     21  O   LIG    1       25.863 -32.362  11.038  0.00  0.00    -0.372 OA
ATOM     22  H   LIG    1       26.429 -31.637  11.351  0.00  0.00    +0.212 HD
ENDBRANCH   1  21
BRANCH   2  23
ATOM     23  C   LIG    1       22.987 -29.801  11.190  0.00  0.00    +0.008 C 
ATOM     24  C   LIG    1       23.238 -28.751  12.267  0.00  0.00    +0.004 C 
ENDBRANCH   2  23
TORSDOF 3
ENDMDL
MODEL 3
REMARK VINA RESULT:      -5.8     11.073     12.811
REMARK  Name = *****
REMARK                            x       y       z     vdW  Elec       q    Type
REMARK                         _______ _______ _______ _____ _____    ______ ____
ROOT
ATOM      1  C   LIG    1       23.937 -32.464   6.062  0.00  0.00    +0.151 C 
ATOM      2  C   LIG    1       24.967 -32.126   7.200  0.00  0.00    +0.021 C 
ATOM      3  C   LIG    1       24.059 -32.079   8.480  0.00  0.00    +0.025 C 
ATOM      4  C   LIG    1       23.445 -30.701   8.838  0.00  0.00    +0.001 C 
ATOM      5  C   LIG    1       24.477 -29.562   8.764  0.00  0.00    -0.000 C 
ATOM      6  C   LIG    1       25.040 -29.515   7.340  0.00  0.00    +0.005 C 
ATOM      7  C   LIG    1       25.550 -29.658   9.890  0.00  0.00    +0.019 C 
ATOM      8  C   LIG    1       24.894 -29.798  11.259  0.00  0.00    -0.063 C 
ATOM      9  C   LIG    1       25.301 -29.120  12.347  0.00  0.00    +0.045 C 
ATOM     10  C   LIG    1       26.511 -28.265  12.312  0.00  0.00    +0.156 C 
ATOM     11  O   LIG    1       26.833 -27.631  13.313  0.00  0.00    -0.293 OA
ATOM     12  C   LIG    1       27.364 -28.308  11.071  0.00  0.00    +0.079 C 
ATOM     13  C   LIG    1       23.766 -30.794  11.372  0.00  0.00    +0.031 C 
ATOM     14  C   LIG    1       26.493 -28.437   9.833  0.00  0.00    +0.016 C 
ATOM     15  C   LIG    1       22.769 -30.685  10.223  0.00  0.00    +0.009 C 
ATOM     16  C   LIG    1       22.958 -33.050   8.120  0.00  0.00    -0.023 C 
ATOM     17  C   LIG    1       25.746 -30.805   6.941  0.00  0.00    +0.012 C 
ATOM     18  C   LIG    1       22.893 -33.250   6.797  0.00  0.00    +0.017 C 
ENDROOT
BRANCH   1  20
ATOM     19  C   LIG    1       24.912 -33.824   3.981  0.00  0.00    +0.007 C 
ATOM     20  C   LIG    1       24.484 -33.210   4.922  0.00  0.00    -0.066 C 
ENDBRANCH   1  20
BRANCH   1  21
ATOM     21  O   LIG    1       23.291 -31.300   5.565  0.00  0.00    -0.372 OA
ATOM     22  H   LIG    1       23.010 -31.506   4.658  0.00  0.00    +0.212 HD
ENDBRANCH   1  21
BRANCH   2  23
ATOM     23  C   LIG    1       26.082 -33.235   7.387  0.00  0.00    +0.008 C 
ATOM     24  C   LIG    1       27.002 -33.171   8.601  0.00  0.00    +0.004 C 
ENDBRANCH   2  23
TORSDOF 3
ENDMDL
MODEL 4
REMARK VINA RESULT:      -5.6     11.273     12.709
REMARK  Name = *****
REMARK                            x       y       z     vdW  Elec       q    Type
REMARK                         _______ _______ _______ _____ _____    ______ ____
ROOT
ATOM      1  C   LIG    1       26.494 -30.980   9.886  0.00  0.00    +0.151 C 
ATOM      2  C   LIG    1       25.303 -29.958   9.968  0.00  0.00    +0.021 C 
ATOM      3  C   LIG    1       25.774 -28.974  11.098  0.00  0.00    +0.025 C 
ATOM      4  C   LIG    1       25.359 -29.340  12.546  0.00  0.00    +0.001 C 
ATOM      5  C   LIG    1       23.877 -29.741  12.649  0.00  0.00    -0.000 C 
ATOM      6  C   LIG    1       23.641 -30.946  11.731  0.00  0.00    +0.005 C 
ATOM      7  C   LIG    1       22.917 -28.538  12.410  0.00  0.00    +0.019 C 
ATOM      8  C   LIG    1       23.291 -27.357  13.298  0.00  0.00    -0.063 C 
ATOM      9  C   LIG    1       22.387 -26.619  13.967  0.00  0.00    +0.045 C 
ATOM     10  C   LIG    1       20.932 -26.837  13.788  0.00  0.00    +0.156 C 
ATOM     11  O   LIG    1       20.135 -26.170  14.441  0.00  0.00    -0.293 OA
ATOM     12  C   LIG    1       20.495 -27.796  12.711  0.00  0.00    +0.079 C 
ATOM     13  C   LIG    1       24.755 -26.996  13.367  0.00  0.00    +0.031 C 
ATOM     14  C   LIG    1       21.452 -28.973  12.628  0.00  0.00    +0.016 C 
ATOM     15  C   LIG    1       25.651 -28.215  13.558  0.00  0.00    +0.009 C 
ATOM     16  C   LIG    1       27.278 -29.041  10.965  0.00  0.00    -0.023 C 
ATOM     17  C   LIG    1       23.937 -30.641  10.268  0.00  0.00    +0.012 C 
ATOM     18  C   LIG    1       27.664 -30.143  10.308  0.00  0.00    +0.017 C 
ENDROOT
BRANCH   1  20
ATOM     19  C   LIG    1       26.863 -32.109   7.494  0.00  0.00    +0.007 C 
ATOM     20  C   LIG    1       26.705 -31.592   8.567  0.00  0.00    -0.066 C 
ENDBRANCH   1  20
BRANCH   1  21
ATOM     21  O   LIG    1       26.372 -32.019  10.846  0.00  0.00    -0.372 OA
ATOM     22  H   LIG    1       26.511 -32.854  10.369  0.00  0.00    +0.212 HD
ENDBRANCH   1  21
BRANCH   2  23
ATOM     23  C   LIG    1       25.075 -29.148   8.627  0.00  0.00    +0.008 C 
ATOM     24  C   LIG    1       24.047 -29.648   7.617  0.00  0.00    +0.004 C 
ENDBRANCH   2  23
TORSDOF 3
ENDMDL
MODEL 5
REMARK VINA RESULT:      -5.6     10.287     12.634
REMARK  Name = *****
REMARK                            x       y       z     vdW  Elec       q    Type
REMARK                         _______ _______ _______ _____ _____    ______ ____
ROOT
ATOM      1  C   LIG    1       24.952 -31.871   8.480  0.00  0.00    +0.151 C 
ATOM      2  C   LIG    1       24.573 -30.435   8.991  0.00  0.00    +0.021 C 
ATOM      3  C   LIG    1       25.813 -30.047   9.873  0.00  0.00    +0.025 C 
ATOM      4  C   LIG    1       25.738 -30.433  11.373  0.00  0.00    +0.001 C 
ATOM      5  C   LIG    1       24.384 -30.067  12.006  0.00  0.00    -0.000 C 
ATOM      6  C   LIG    1       23.280 -30.797  11.235  0.00  0.00    +0.005 C 
ATOM      7  C   LIG    1       24.185 -28.527  12.134  0.00  0.00    +0.019 C 
ATOM      8  C   LIG    1       25.377 -27.877  12.827  0.00  0.00    -0.063 C 
ATOM      9  C   LIG    1       25.256 -26.936  13.780  0.00  0.00    +0.045 C 
ATOM     10  C   LIG    1       23.935 -26.372  14.141  0.00  0.00    +0.156 C 
ATOM     11  O   LIG    1       23.856 -25.540  15.040  0.00  0.00    -0.293 OA
ATOM     12  C   LIG    1       22.751 -26.765  13.296  0.00  0.00    +0.079 C 
ATOM     13  C   LIG    1       26.748 -28.303  12.360  0.00  0.00    +0.031 C 
ATOM     14  C   LIG    1       22.863 -28.220  12.869  0.00  0.00    +0.016 C 
ATOM     15  C   LIG    1       26.874 -29.815  12.211  0.00  0.00    +0.009 C 
ATOM     16  C   LIG    1       26.928 -30.817   9.203  0.00  0.00    -0.023 C 
ATOM     17  C   LIG    1       23.224 -30.401   9.765  0.00  0.00    +0.012 C 
ATOM     18  C   LIG    1       26.450 -31.816   8.449  0.00  0.00    +0.017 C 
ENDROOT
BRANCH   1  20
ATOM     19  C   LIG    1       23.916 -32.556   6.116  0.00  0.00    +0.007 C 
ATOM     20  C   LIG    1       24.390 -32.241   7.174  0.00  0.00    -0.066 C 
ENDBRANCH   1  20
BRANCH   1  21
ATOM     21  O   LIG    1       24.604 -32.880   9.417  0.00  0.00    -0.372 OA
ATOM     22  H   LIG    1       23.647 -32.802   9.564  0.00  0.00    +0.212 HD
ENDBRANCH   1  21
BRANCH   2  23
ATOM     23  C   LIG    1       24.407 -29.376   7.825  0.00  0.00    +0.008 C 
ATOM     24  C   LIG    1       25.429 -28.253   7.683  0.00  0.00    +0.004 C 
ENDBRANCH   2  23
TORSDOF 3
ENDMDL
MODEL 6
REMARK VINA RESULT:      -5.4      3.392      5.671
REMARK  Name = *****
REMARK                            x       y       z     vdW  Elec       q    Type
REMARK                         _______ _______ _______ _____ _____    ______ ____
ROOT
ATOM      1  C   LIG    1       24.780 -22.116   5.948  0.00  0.00    +0.151 C 
ATOM      2  C   LIG    1       25.652 -21.359   7.013  0.00  0.00    +0.021 C 
ATOM      3  C   LIG    1       26.296 -20.202   6.168  0.00  0.00    +0.025 C 
ATOM      4  C   LIG    1       27.660 -20.516   5.500  0.00  0.00    +0.001 C 
ATOM      5  C   LIG    1       28.642 -21.203   6.464  0.00  0.00    -0.000 C 
ATOM      6  C   LIG    1       28.002 -22.507   6.954  0.00  0.00    +0.005 C 
ATOM      7  C   LIG    1       29.131 -20.249   7.595  0.00  0.00    +0.019 C 
ATOM      8  C   LIG    1       29.660 -18.942   7.015  0.00  0.00    -0.063 C 
ATOM      9  C   LIG    1       30.791 -18.350   7.438  0.00  0.00    +0.045 C 
ATOM     10  C   LIG    1       31.549 -18.878   8.597  0.00  0.00    +0.156 C 
ATOM     11  O   LIG    1       32.597 -18.334   8.934  0.00  0.00    -0.293 OA
ATOM     12  C   LIG    1       30.926 -19.998   9.390  0.00  0.00    +0.079 C 
ATOM     13  C   LIG    1       28.820 -18.283   5.948  0.00  0.00    +0.031 C 
ATOM     14  C   LIG    1       30.190 -20.956   8.467  0.00  0.00    +0.016 C 
ATOM     15  C   LIG    1       28.333 -19.270   4.892  0.00  0.00    +0.009 C 
ATOM     16  C   LIG    1       25.247 -19.970   5.104  0.00  0.00    -0.023 C 
ATOM     17  C   LIG    1       26.698 -22.278   7.707  0.00  0.00    +0.012 C 
ATOM     18  C   LIG    1       24.428 -21.022   4.985  0.00  0.00    +0.017 C 
ENDROOT
BRANCH   1  20
ATOM     19  C   LIG    1       22.604 -23.344   6.892  0.00  0.00    +0.007 C 
ATOM     20  C   LIG    1       23.585 -22.786   6.478  0.00  0.00    -0.066 C 
ENDBRANCH   1  20
BRANCH   1  21
ATOM     21  O   LIG    1       25.539 -23.069   5.218  0.00  0.00    -0.372 OA
ATOM     22  H   LIG    1       24.954 -23.829   5.064  0.00  0.00    +0.212 HD
ENDBRANCH   1  21
BRANCH   2  23
ATOM     23  C   LIG    1       24.801 -20.735   8.193  0.00  0.00    +0.008 C 
ATOM     24  C   LIG    1       25.511 -20.259   9.457  0.00  0.00    +0.004 C 
ENDBRANCH   2  23
TORSDOF 3
ENDMDL
MODEL 7
REMARK VINA RESULT:      -5.4     11.289     13.124
REMARK  Name = *****
REMARK                            x       y       z     vdW  Elec       q    Type
REMARK                         _______ _______ _______ _____ _____    ______ ____
ROOT
ATOM      1  C   LIG    1       27.152 -27.277  14.394  0.00  0.00    +0.151 C 
ATOM      2  C   LIG    1       26.095 -27.432  13.243  0.00  0.00    +0.021 C 
ATOM      3  C   LIG    1       25.534 -28.879  13.485  0.00  0.00    +0.025 C 
ATOM      4  C   LIG    1       26.270 -30.033  12.757  0.00  0.00    +0.001 C 
ATOM      5  C   LIG    1       26.545 -29.712  11.278  0.00  0.00    -0.000 C 
ATOM      6  C   LIG    1       27.399 -28.441  11.212  0.00  0.00    +0.005 C 
ATOM      7  C   LIG    1       25.241 -29.670  10.426  0.00  0.00    +0.019 C 
ATOM      8  C   LIG    1       24.413 -30.933  10.632  0.00  0.00    -0.063 C 
ATOM      9  C   LIG    1       23.825 -31.604   9.625  0.00  0.00    +0.045 C 
ATOM     10  C   LIG    1       23.845 -31.083   8.239  0.00  0.00    +0.156 C 
ATOM     11  O   LIG    1       23.330 -31.739   7.338  0.00  0.00    -0.293 OA
ATOM     12  C   LIG    1       24.400 -29.700   8.018  0.00  0.00    +0.079 C 
ATOM     13  C   LIG    1       24.226 -31.398  12.055  0.00  0.00    +0.031 C 
ATOM     14  C   LIG    1       25.584 -29.450   8.937  0.00  0.00    +0.016 C 
ATOM     15  C   LIG    1       25.525 -31.378  12.855  0.00  0.00    +0.009 C 
ATOM     16  C   LIG    1       25.698 -29.031  14.981  0.00  0.00    -0.023 C 
ATOM     17  C   LIG    1       26.705 -27.231  11.826  0.00  0.00    +0.012 C 
ATOM     18  C   LIG    1       26.588 -28.158  15.468  0.00  0.00    +0.017 C 
ENDROOT
BRANCH   1  20
ATOM     19  C   LIG    1       27.562 -24.783  15.260  0.00  0.00    +0.007 C 
ATOM     20  C   LIG    1       27.366 -25.903  14.868  0.00  0.00    -0.066 C 
ENDBRANCH   1  20
BRANCH   1  21
ATOM     21  O   LIG    1       28.412 -27.827  14.039  0.00  0.00    -0.372 OA
ATOM     22  H   LIG    1       28.266 -28.360  13.240  0.00  0.00    +0.212 HD
ENDBRANCH   1  21
BRANCH   2  23
ATOM     23  C   LIG    1       24.908 -26.387  13.334  0.00  0.00    +0.008 C 
ATOM     24  C   LIG    1       23.468 -26.883  13.250  0.00  0.00    +0.004 C 
ENDBRANCH   2  23
TORSDOF 3
ENDMDL
MODEL 8
REMARK VINA RESULT:      -5.1     11.632     13.805
REMARK  Name = *****
REMARK                            x       y       z     vdW  Elec       q    Type
REMARK                         _______ _______ _______ _____ _____    ______ ____
ROOT
ATOM      1  C   LIG    1       18.825 -30.849  13.397  0.00  0.00    +0.151 C 
ATOM      2  C   LIG    1       20.307 -30.611  13.859  0.00  0.00    +0.021 C 
ATOM      3  C   LIG    1       20.359 -29.053  14.052  0.00  0.00    +0.025 C 
ATOM      4  C   LIG    1       20.775 -28.220  12.812  0.00  0.00    +0.001 C 
ATOM      5  C   LIG    1       22.009 -28.801  12.101  0.00  0.00    -0.000 C 
ATOM      6  C   LIG    1       21.684 -30.235  11.668  0.00  0.00    +0.005 C 
ATOM      7  C   LIG    1       23.308 -28.652  12.949  0.00  0.00    +0.019 C 
ATOM      8  C   LIG    1       23.494 -27.213  13.415  0.00  0.00    -0.063 C 
ATOM      9  C   LIG    1       24.675 -26.570  13.375  0.00  0.00    +0.045 C 
ATOM     10  C   LIG    1       25.919 -27.270  12.981  0.00  0.00    +0.156 C 
ATOM     11  O   LIG    1       26.974 -26.644  12.921  0.00  0.00    -0.293 OA
ATOM     12  C   LIG    1       25.851 -28.762  12.784  0.00  0.00    +0.079 C 
ATOM     13  C   LIG    1       22.280 -26.522  13.987  0.00  0.00    +0.031 C 
ATOM     14  C   LIG    1       24.528 -29.154  12.147  0.00  0.00    +0.016 C 
ATOM     15  C   LIG    1       21.029 -26.737  13.141  0.00  0.00    +0.009 C 
ATOM     16  C   LIG    1       18.929 -28.735  14.425  0.00  0.00    -0.023 C 
ATOM     17  C   LIG    1       21.355 -31.147  12.843  0.00  0.00    +0.012 C 
ATOM     18  C   LIG    1       18.096 -29.717  14.057  0.00  0.00    +0.017 C 
ENDROOT
BRANCH   1  20
ATOM     19  C   LIG    1       17.774 -33.218  14.044  0.00  0.00    +0.007 C 
ATOM     20  C   LIG    1       18.256 -32.154  13.760  0.00  0.00    -0.066 C 
ENDBRANCH   1  20
BRANCH   1  21
ATOM     21  O   LIG    1       18.668 -30.668  11.996  0.00  0.00    -0.372 OA
ATOM     22  H   LIG    1       19.250 -31.317  11.567  0.00  0.00    +0.212 HD
ENDBRANCH   1  21
BRANCH   2  23
ATOM     23  C   LIG    1       20.659 -31.321  15.230  0.00  0.00    +0.008 C 
ATOM     24  C   LIG    1       22.048 -31.919  15.427  0.00  0.00    +0.004 C 
ENDBRANCH   2  23
TORSDOF 3
ENDMDL
MODEL 9
REMARK VINA RESULT:      -5.1     10.865     13.185
REMARK  Name = *****
REMARK                            x       y       z     vdW  Elec       q    Type
REMARK                         _______ _______ _______ _____ _____    ______ ____
ROOT
ATOM      1  C   LIG    1       25.406 -32.748   8.418  0.00  0.00    +0.151 C 
ATOM      2  C   LIG    1       24.624 -31.434   8.776  0.00  0.00    +0.021 C 
ATOM      3  C   LIG    1       25.645 -30.666   9.689  0.00  0.00    +0.025 C 
ATOM      4  C   LIG    1       25.556 -30.950  11.211  0.00  0.00    +0.001 C 
ATOM      5  C   LIG    1       24.109 -30.916  11.731  0.00  0.00    -0.000 C 
ATOM      6  C   LIG    1       23.299 -31.970  10.967  0.00  0.00    +0.005 C 
ATOM      7  C   LIG    1       23.502 -29.481  11.709  0.00  0.00    +0.019 C 
ATOM      8  C   LIG    1       24.424 -28.488  12.407  0.00  0.00    -0.063 C 
ATOM      9  C   LIG    1       23.985 -27.548  13.263  0.00  0.00    +0.045 C 
ATOM     10  C   LIG    1       22.538 -27.336  13.497  0.00  0.00    +0.156 C 
ATOM     11  O   LIG    1       22.173 -26.494  14.313  0.00  0.00    -0.293 OA
ATOM     12  C   LIG    1       21.569 -28.092  12.625  0.00  0.00    +0.079 C 
ATOM     13  C   LIG    1       25.890 -28.562  12.059  0.00  0.00    +0.031 C 
ATOM     14  C   LIG    1       22.093 -29.489  12.338  0.00  0.00    +0.016 C 
ATOM     15  C   LIG    1       26.421 -29.992  12.053  0.00  0.00    +0.009 C 
ATOM     16  C   LIG    1       26.972 -31.154   9.154  0.00  0.00    -0.023 C 
ATOM     17  C   LIG    1       23.257 -31.709   9.467  0.00  0.00    +0.012 C 
ATOM     18  C   LIG    1       26.834 -32.295   8.468  0.00  0.00    +0.017 C 
ENDROOT
BRANCH   1  20
ATOM     19  C   LIG    1       24.791 -33.820   6.051  0.00  0.00    +0.007 C 
ATOM     20  C   LIG    1       25.065 -33.348   7.121  0.00  0.00    -0.066 C 
ENDBRANCH   1  20
BRANCH   1  21
ATOM     21  O   LIG    1       25.263 -33.744   9.421  0.00  0.00    -0.372 OA
ATOM     22  H   LIG    1       26.152 -33.912   9.773  0.00  0.00    +0.212 HD
ENDBRANCH   1  21
BRANCH   2  23
ATOM     23  C   LIG    1       24.277 -30.545   7.513  0.00  0.00    +0.008 C 
ATOM     24  C   LIG    1       24.552 -29.045   7.556  0.00  0.00    +0.004 C 
ENDBRANCH   2  23
TORSDOF 3
ENDMDL
