MODEL 1
REMARK VINA RESULT:      -4.2      0.000      0.000
REMARK  Name = *****
REMARK                            x       y       z     vdW  Elec       q    Type
REMARK                         _______ _______ _______ _____ _____    ______ ____
ROOT
ATOM      1  C   LIG    1       25.177 -20.744   5.781  0.00  0.00    +0.234 C 
ATOM      2  N   LIG    1       26.216 -20.347   4.961  0.00  0.00    -0.283 N 
ATOM      3  H   LIG    1       26.073 -20.519   3.967  0.00  0.00    +0.155 HD
ATOM      4  O   LIG    1       25.026 -20.455   6.966  0.00  0.00    -0.274 OA
ENDROOT
BRANCH   2   5
ATOM      5  C   LIG    1       27.414 -19.704   5.332  0.00  0.00    +0.058 A 
ATOM      6  C   LIG    1       27.767 -18.459   4.791  0.00  0.00    +0.118 A 
ATOM      7  S   LIG    1       29.274 -17.891   5.386  0.00  0.00    -0.088 S 
ATOM      8  C   LIG    1       29.475 -19.249   6.367  0.00  0.00    +0.051 A 
ATOM      9  C   LIG    1       28.458 -20.175   6.233  0.00  0.00    -0.021 A 
ATOM     10  C   LIG    1       28.543 -21.473   6.970  0.00  0.00    +0.046 C 
BRANCH   6  11
ATOM     11  C   LIG    1       27.074 -17.550   3.899  0.00  0.00    +0.347 C 
ATOM     12  O   LIG    1       26.238 -17.864   3.044  0.00  0.00    -0.244 OA
BRANCH  11  13
ATOM     13  O   LIG    1       27.572 -16.290   4.041  0.00  0.00    -0.464 OA
ATOM     14  C   LIG    1       26.849 -15.294   3.314  0.00  0.00    +0.280 C 
ENDBRANCH  11  13
ENDBRANCH   6  11
ENDBRANCH   2   5
BRANCH   1  15
ATOM     15  C   LIG    1       24.046 -21.532   5.099  0.00  0.00    +0.138 C 
ATOM     16  C   LIG    1       22.837 -21.554   6.035  0.00  0.00    +0.034 C 
BRANCH  15  17
ATOM     17  N   LIG    1       23.686 -21.019   3.751  0.00  0.00    -0.306 NA
ATOM     18  H   LIG    1       24.424 -21.317   3.107  0.00  0.00    +0.123 HD
BRANCH  17  19
ATOM     19  C   LIG    1       23.650 -19.544   3.732  0.00  0.00    +0.081 C 
BRANCH  19  21
ATOM     20  C   LIG    1       22.321 -17.692   4.809  0.00  0.00    +0.005 C 
ATOM     21  C   LIG    1       22.248 -19.014   4.052  0.00  0.00    +0.012 C 
ENDBRANCH  19  21
ENDBRANCH  17  19
ENDBRANCH  15  17
ENDBRANCH   1  15
TORSDOF 7
ENDMDL
MODEL 2
REMARK VINA RESULT:      -3.8      2.739      4.715
REMARK  Name = *****
REMARK                            x       y       z     vdW  Elec       q    Type
REMARK                         _______ _______ _______ _____ _____    ______ ____
ROOT
ATOM      1  C   LIG    1       24.523 -18.125   3.677  0.00  0.00    +0.234 C 
ATOM      2  N   LIG    1       25.243 -16.945   3.675  0.00  0.00    -0.283 N 
ATOM      3  H   LIG    1       26.234 -17.044   3.460  0.00  0.00    +0.155 HD
ATOM      4  O   LIG    1       23.300 -18.238   3.696  0.00  0.00    -0.274 OA
ENDROOT
BRANCH   2   5
ATOM      5  C   LIG    1       24.763 -15.639   3.892  0.00  0.00    +0.058 A 
ATOM      6  C   LIG    1       25.558 -14.518   3.613  0.00  0.00    +0.118 A 
ATOM      7  S   LIG    1       24.758 -13.042   3.974  0.00  0.00    -0.088 S 
ATOM      8  C   LIG    1       23.363 -13.844   4.481  0.00  0.00    +0.051 A 
ATOM      9  C   LIG    1       23.481 -15.221   4.444  0.00  0.00    -0.021 A 
ATOM     10  C   LIG    1       22.358 -16.068   4.950  0.00  0.00    +0.046 C 
BRANCH   6  11
ATOM     11  C   LIG    1       26.873 -14.376   3.019  0.00  0.00    +0.347 C 
ATOM     12  O   LIG    1       27.137 -14.424   1.812  0.00  0.00    -0.244 OA
BRANCH  11  13
ATOM     13  O   LIG    1       27.819 -14.311   3.997  0.00  0.00    -0.464 OA
ATOM     14  C   LIG    1       28.622 -13.128   3.952  0.00  0.00    +0.280 C 
ENDBRANCH  11  13
ENDBRANCH   6  11
ENDBRANCH   2   5
BRANCH   1  15
ATOM     15  C   LIG    1       25.347 -19.415   3.525  0.00  0.00    +0.138 C 
ATOM     16  C   LIG    1       26.361 -19.480   4.668  0.00  0.00    +0.034 C 
BRANCH  15  17
ATOM     17  N   LIG    1       24.521 -20.650   3.454  0.00  0.00    -0.306 NA
ATOM     18  H   LIG    1       23.566 -20.361   3.226  0.00  0.00    +0.123 HD
BRANCH  17  19
ATOM     19  C   LIG    1       24.476 -21.338   4.759  0.00  0.00    +0.081 C 
BRANCH  19  21
ATOM     20  C   LIG    1       23.167 -20.527   6.756  0.00  0.00    +0.005 C 
ATOM     21  C   LIG    1       23.089 -21.227   5.403  0.00  0.00    +0.012 C 
ENDBRANCH  19  21
ENDBRANCH  17  19
ENDBRANCH  15  17
ENDBRANCH   1  15
TORSDOF 7
ENDMDL
MODEL 3
REMARK VINA RESULT:      -3.7      2.782      6.056
REMARK  Name = *****
REMARK                            x       y       z     vdW  Elec       q    Type
REMARK                         _______ _______ _______ _____ _____    ______ ____
ROOT
ATOM      1  C   LIG    1       23.806 -16.494   4.072  0.00  0.00    +0.234 C 
ATOM      2  N   LIG    1       24.281 -17.784   3.923  0.00  0.00    -0.283 N 
ATOM      3  H   LIG    1       25.190 -17.861   3.471  0.00  0.00    +0.155 HD
ATOM      4  O   LIG    1       22.855 -16.137   4.762  0.00  0.00    -0.274 OA
ENDROOT
BRANCH   2   5
ATOM      5  C   LIG    1       23.678 -18.982   4.355  0.00  0.00    +0.058 A 
ATOM      6  C   LIG    1       24.443 -20.025   4.896  0.00  0.00    +0.118 A 
ATOM      7  S   LIG    1       23.485 -21.382   5.333  0.00  0.00    -0.088 S 
ATOM      8  C   LIG    1       22.063 -20.620   4.841  0.00  0.00    +0.051 A 
ATOM      9  C   LIG    1       22.274 -19.368   4.293  0.00  0.00    -0.021 A 
ATOM     10  C   LIG    1       21.119 -18.608   3.727  0.00  0.00    +0.046 C 
BRANCH   6  11
ATOM     11  C   LIG    1       25.853 -20.138   5.216  0.00  0.00    +0.347 C 
ATOM     12  O   LIG    1       26.772 -19.496   4.695  0.00  0.00    -0.244 OA
BRANCH  11  13
ATOM     13  O   LIG    1       26.050 -21.161   6.094  0.00  0.00    -0.464 OA
ATOM     14  C   LIG    1       27.111 -20.932   7.025  0.00  0.00    +0.280 C 
ENDBRANCH  11  13
ENDBRANCH   6  11
ENDBRANCH   2   5
BRANCH   1  15
ATOM     15  C   LIG    1       24.633 -15.392   3.388  0.00  0.00    +0.138 C 
ATOM     16  C   LIG    1       24.390 -14.075   4.127  0.00  0.00    +0.034 C 
BRANCH  15  17
ATOM     17  N   LIG    1       26.083 -15.704   3.288  0.00  0.00    -0.306 NA
ATOM     18  H   LIG    1       26.381 -16.052   4.204  0.00  0.00    +0.123 HD
BRANCH  17  19
ATOM     19  C   LIG    1       26.872 -14.491   2.998  0.00  0.00    +0.081 C 
BRANCH  19  21
ATOM     20  C   LIG    1       28.679 -12.937   3.821  0.00  0.00    +0.005 C 
ATOM     21  C   LIG    1       27.930 -14.240   4.079  0.00  0.00    +0.012 C 
ENDBRANCH  19  21
ENDBRANCH  17  19
ENDBRANCH  15  17
ENDBRANCH   1  15
TORSDOF 7
ENDMDL
MODEL 4
REMARK VINA RESULT:      -3.3      2.703      5.513
REMARK  Name = *****
REMARK                            x       y       z     vdW  Elec       q    Type
REMARK                         _______ _______ _______ _____ _____    ______ ____
ROOT
ATOM      1  C   LIG    1       26.787 -16.266   3.692  0.00  0.00    +0.234 C 
ATOM      2  N   LIG    1       26.329 -17.555   3.497  0.00  0.00    -0.283 N 
ATOM      3  H   LIG    1       25.768 -17.693   2.659  0.00  0.00    +0.155 HD
ATOM      4  O   LIG    1       27.642 -15.905   4.498  0.00  0.00    -0.274 OA
ENDROOT
BRANCH   2   5
ATOM      5  C   LIG    1       26.580 -18.691   4.292  0.00  0.00    +0.058 A 
ATOM      6  C   LIG    1       25.598 -19.674   4.485  0.00  0.00    +0.118 A 
ATOM      7  S   LIG    1       26.137 -20.948   5.502  0.00  0.00    -0.088 S 
ATOM      8  C   LIG    1       27.659 -20.246   5.687  0.00  0.00    +0.051 A 
ATOM      9  C   LIG    1       27.781 -19.028   5.045  0.00  0.00    -0.021 A 
ATOM     10  C   LIG    1       29.043 -18.241   5.194  0.00  0.00    +0.046 C 
BRANCH   6  11
ATOM     11  C   LIG    1       24.266 -19.844   3.937  0.00  0.00    +0.347 C 
ATOM     12  O   LIG    1       23.780 -20.900   3.518  0.00  0.00    -0.244 OA
BRANCH  11  13
ATOM     13  O   LIG    1       23.652 -18.633   3.823  0.00  0.00    -0.464 OA
ATOM     14  C   LIG    1       22.346 -18.586   4.402  0.00  0.00    +0.280 C 
ENDBRANCH  11  13
ENDBRANCH   6  11
ENDBRANCH   2   5
BRANCH   1  15
ATOM     15  C   LIG    1       26.246 -15.207   2.717  0.00  0.00    +0.138 C 
ATOM     16  C   LIG    1       25.134 -14.426   3.418  0.00  0.00    +0.034 C 
BRANCH  15  17
ATOM     17  N   LIG    1       27.293 -14.300   2.175  0.00  0.00    -0.306 NA
ATOM     18  H   LIG    1       28.193 -14.774   2.292  0.00  0.00    +0.123 HD
BRANCH  17  19
ATOM     19  C   LIG    1       27.354 -13.038   2.936  0.00  0.00    +0.081 C 
BRANCH  19  21
ATOM     20  C   LIG    1       28.474 -12.489   5.128  0.00  0.00    +0.005 C 
ATOM     21  C   LIG    1       28.691 -12.894   3.673  0.00  0.00    +0.012 C 
ENDBRANCH  19  21
ENDBRANCH  17  19
ENDBRANCH  15  17
ENDBRANCH   1  15
TORSDOF 7
ENDMDL
MODEL 5
REMARK VINA RESULT:      -3.0      2.847      4.324
REMARK  Name = *****
REMARK                            x       y       z     vdW  Elec       q    Type
REMARK                         _______ _______ _______ _____ _____    ______ ____
ROOT
ATOM      1  C   LIG    1       25.036 -18.048   3.597  0.00  0.00    +0.234 C 
ATOM      2  N   LIG    1       24.883 -16.677   3.680  0.00  0.00    -0.283 N 
ATOM      3  H   LIG    1       23.923 -16.354   3.790  0.00  0.00    +0.155 HD
ATOM      4  O   LIG    1       26.089 -18.675   3.675  0.00  0.00    -0.274 OA
ENDROOT
BRANCH   2   5
ATOM      5  C   LIG    1       25.891 -15.692   3.671  0.00  0.00    +0.058 A 
ATOM      6  C   LIG    1       25.614 -14.374   3.279  0.00  0.00    +0.118 A 
ATOM      7  S   LIG    1       27.005 -13.368   3.337  0.00  0.00    -0.088 S 
ATOM      8  C   LIG    1       27.977 -14.631   3.890  0.00  0.00    +0.051 A 
ATOM      9  C   LIG    1       27.305 -15.835   3.990  0.00  0.00    -0.021 A 
ATOM     10  C   LIG    1       28.057 -17.067   4.379  0.00  0.00    +0.046 C 
BRANCH   6  11
ATOM     11  C   LIG    1       24.382 -13.702   2.912  0.00  0.00    +0.347 C 
ATOM     12  O   LIG    1       23.271 -13.891   3.419  0.00  0.00    -0.244 OA
BRANCH  11  13
ATOM     13  O   LIG    1       24.592 -12.910   1.824  0.00  0.00    -0.464 OA
ATOM     14  C   LIG    1       24.214 -11.545   2.017  0.00  0.00    +0.280 C 
ENDBRANCH  11  13
ENDBRANCH   6  11
ENDBRANCH   2   5
BRANCH   1  15
ATOM     15  C   LIG    1       23.735 -18.865   3.513  0.00  0.00    +0.138 C 
ATOM     16  C   LIG    1       24.081 -20.280   3.048  0.00  0.00    +0.034 C 
BRANCH  15  17
ATOM     17  N   LIG    1       22.953 -18.879   4.777  0.00  0.00    -0.306 NA
ATOM     18  H   LIG    1       23.543 -18.463   5.502  0.00  0.00    +0.123 HD
BRANCH  17  19
ATOM     19  C   LIG    1       22.643 -20.260   5.198  0.00  0.00    +0.081 C 
BRANCH  19  21
ATOM     20  C   LIG    1       24.658 -20.777   6.622  0.00  0.00    +0.005 C 
ATOM     21  C   LIG    1       23.152 -20.539   6.617  0.00  0.00    +0.012 C 
ENDBRANCH  19  21
ENDBRANCH  17  19
ENDBRANCH  15  17
ENDBRANCH   1  15
TORSDOF 7
ENDMDL
MODEL 6
REMARK VINA RESULT:      -2.9      2.348      5.257
REMARK  Name = *****
REMARK                            x       y       z     vdW  Elec       q    Type
REMARK                         _______ _______ _______ _____ _____    ______ ____
ROOT
ATOM      1  C   LIG    1       27.062 -16.988   4.001  0.00  0.00    +0.234 C 
ATOM      2  N   LIG    1       26.580 -18.281   4.093  0.00  0.00    -0.283 N 
ATOM      3  H   LIG    1       25.861 -18.524   3.413  0.00  0.00    +0.155 HD
ATOM      4  O   LIG    1       28.060 -16.536   4.556  0.00  0.00    -0.274 OA
ENDROOT
BRANCH   2   5
ATOM      5  C   LIG    1       26.992 -19.296   4.978  0.00  0.00    +0.058 A 
ATOM      6  C   LIG    1       26.119 -20.326   5.358  0.00  0.00    +0.118 A 
ATOM      7  S   LIG    1       26.847 -21.431   6.452  0.00  0.00    -0.088 S 
ATOM      8  C   LIG    1       28.311 -20.592   6.430  0.00  0.00    +0.051 A 
ATOM      9  C   LIG    1       28.273 -19.448   5.655  0.00  0.00    -0.021 A 
ATOM     10  C   LIG    1       29.468 -18.551   5.610  0.00  0.00    +0.046 C 
BRANCH   6  11
ATOM     11  C   LIG    1       24.770 -20.664   4.948  0.00  0.00    +0.347 C 
ATOM     12  O   LIG    1       24.206 -20.285   3.916  0.00  0.00    -0.244 OA
BRANCH  11  13
ATOM     13  O   LIG    1       24.146 -21.364   5.937  0.00  0.00    -0.464 OA
ATOM     14  C   LIG    1       23.080 -20.651   6.569  0.00  0.00    +0.280 C 
ENDBRANCH  11  13
ENDBRANCH   6  11
ENDBRANCH   2   5
BRANCH   1  15
ATOM     15  C   LIG    1       26.329 -16.067   3.010  0.00  0.00    +0.138 C 
ATOM     16  C   LIG    1       24.951 -15.735   3.585  0.00  0.00    +0.034 C 
BRANCH  15  17
ATOM     17  N   LIG    1       27.087 -14.837   2.661  0.00  0.00    -0.306 NA
ATOM     18  H   LIG    1       28.042 -14.963   3.008  0.00  0.00    +0.123 HD
BRANCH  17  19
ATOM     19  C   LIG    1       26.524 -13.652   3.337  0.00  0.00    +0.081 C 
BRANCH  19  21
ATOM     20  C   LIG    1       28.821 -12.833   3.977  0.00  0.00    +0.005 C 
ATOM     21  C   LIG    1       27.425 -13.180   4.484  0.00  0.00    +0.012 C 
ENDBRANCH  19  21
ENDBRANCH  17  19
ENDBRANCH  15  17
ENDBRANCH   1  15
TORSDOF 7
ENDMDL
MODEL 7
REMARK VINA RESULT:      -2.8      3.482      6.189
REMARK  Name = *****
REMARK                            x       y       z     vdW  Elec       q    Type
REMARK                         _______ _______ _______ _____ _____    ______ ____
ROOT
ATOM      1  C   LIG    1       23.405 -16.040   4.442  0.00  0.00    +0.234 C 
ATOM      2  N   LIG    1       23.916 -17.266   4.058  0.00  0.00    -0.283 N 
ATOM      3  H   LIG    1       24.834 -17.232   3.617  0.00  0.00    +0.155 HD
ATOM      4  O   LIG    1       22.434 -15.846   5.170  0.00  0.00    -0.274 OA
ENDROOT
BRANCH   2   5
ATOM      5  C   LIG    1       23.340 -18.538   4.240  0.00  0.00    +0.058 A 
ATOM      6  C   LIG    1       24.125 -19.648   4.585  0.00  0.00    +0.118 A 
ATOM      7  S   LIG    1       23.198 -21.085   4.734  0.00  0.00    -0.088 S 
ATOM      8  C   LIG    1       21.763 -20.277   4.370  0.00  0.00    +0.051 A 
ATOM      9  C   LIG    1       21.949 -18.939   4.077  0.00  0.00    -0.021 A 
ATOM     10  C   LIG    1       20.781 -18.112   3.645  0.00  0.00    +0.046 C 
BRANCH   6  11
ATOM     11  C   LIG    1       25.533 -19.786   4.904  0.00  0.00    +0.347 C 
ATOM     12  O   LIG    1       26.472 -19.244   4.310  0.00  0.00    -0.244 OA
BRANCH  11  13
ATOM     13  O   LIG    1       25.697 -20.716   5.887  0.00  0.00    -0.464 OA
ATOM     14  C   LIG    1       26.902 -20.558   6.641  0.00  0.00    +0.280 C 
ENDBRANCH  11  13
ENDBRANCH   6  11
ENDBRANCH   2   5
BRANCH   1  15
ATOM     15  C   LIG    1       24.211 -14.808   4.000  0.00  0.00    +0.138 C 
ATOM     16  C   LIG    1       25.534 -15.284   3.397  0.00  0.00    +0.034 C 
BRANCH  15  17
ATOM     17  N   LIG    1       23.476 -13.912   3.068  0.00  0.00    -0.306 NA
ATOM     18  H   LIG    1       23.237 -14.467   2.242  0.00  0.00    +0.123 HD
BRANCH  17  19
ATOM     19  C   LIG    1       24.327 -12.793   2.618  0.00  0.00    +0.081 C 
BRANCH  19  21
ATOM     20  C   LIG    1       23.682 -11.447   4.650  0.00  0.00    +0.005 C 
ATOM     21  C   LIG    1       23.798 -11.448   3.130  0.00  0.00    +0.012 C 
ENDBRANCH  19  21
ENDBRANCH  17  19
ENDBRANCH  15  17
ENDBRANCH   1  15
TORSDOF 7
ENDMDL
MODEL 8
REMARK VINA RESULT:      -2.6      3.006      4.669
REMARK  Name = *****
REMARK                            x       y       z     vdW  Elec       q    Type
REMARK                         _______ _______ _______ _____ _____    ______ ____
ROOT
ATOM      1  C   LIG    1       24.868 -17.422   3.652  0.00  0.00    +0.234 C 
ATOM      2  N   LIG    1       24.958 -16.117   4.100  0.00  0.00    -0.283 N 
ATOM      3  H   LIG    1       24.248 -15.842   4.776  0.00  0.00    +0.155 HD
ATOM      4  O   LIG    1       25.717 -18.038   3.012  0.00  0.00    -0.274 OA
ENDROOT
BRANCH   2   5
ATOM      5  C   LIG    1       25.929 -15.153   3.764  0.00  0.00    +0.058 A 
ATOM      6  C   LIG    1       25.563 -13.922   3.200  0.00  0.00    +0.118 A 
ATOM      7  S   LIG    1       26.922 -12.926   2.866  0.00  0.00    -0.088 S 
ATOM      8  C   LIG    1       27.998 -14.077   3.468  0.00  0.00    +0.051 A 
ATOM      9  C   LIG    1       27.378 -15.243   3.878  0.00  0.00    -0.021 A 
ATOM     10  C   LIG    1       28.211 -16.391   4.351  0.00  0.00    +0.046 C 
BRANCH   6  11
ATOM     11  C   LIG    1       24.274 -13.319   2.920  0.00  0.00    +0.347 C 
ATOM     12  O   LIG    1       23.865 -12.955   1.812  0.00  0.00    -0.244 OA
BRANCH  11  13
ATOM     13  O   LIG    1       23.609 -13.085   4.086  0.00  0.00    -0.464 OA
ATOM     14  C   LIG    1       23.887 -11.809   4.668  0.00  0.00    +0.280 C 
ENDBRANCH  11  13
ENDBRANCH   6  11
ENDBRANCH   2   5
BRANCH   1  15
ATOM     15  C   LIG    1       23.624 -18.203   4.106  0.00  0.00    +0.138 C 
ATOM     16  C   LIG    1       22.401 -17.296   3.959  0.00  0.00    +0.034 C 
BRANCH  15  17
ATOM     17  N   LIG    1       23.434 -19.496   3.395  0.00  0.00    -0.306 NA
ATOM     18  H   LIG    1       22.447 -19.552   3.130  0.00  0.00    +0.123 HD
BRANCH  17  19
ATOM     19  C   LIG    1       23.720 -20.640   4.281  0.00  0.00    +0.081 C 
BRANCH  19  21
ATOM     20  C   LIG    1       23.489 -20.767   6.789  0.00  0.00    +0.005 C 
ATOM     21  C   LIG    1       22.743 -20.692   5.461  0.00  0.00    +0.012 C 
ENDBRANCH  19  21
ENDBRANCH  17  19
ENDBRANCH  15  17
ENDBRANCH   1  15
TORSDOF 7
ENDMDL
MODEL 9
REMARK VINA RESULT:      -2.5      2.466      4.957
REMARK  Name = *****
REMARK                            x       y       z     vdW  Elec       q    Type
REMARK                         _______ _______ _______ _____ _____    ______ ____
ROOT
ATOM      1  C   LIG    1       23.995 -18.639   3.945  0.00  0.00    +0.234 C 
ATOM      2  N   LIG    1       24.836 -17.545   4.042  0.00  0.00    -0.283 N 
ATOM      3  H   LIG    1       25.828 -17.767   4.103  0.00  0.00    +0.155 HD
ATOM      4  O   LIG    1       22.802 -18.623   3.650  0.00  0.00    -0.274 OA
ENDROOT
BRANCH   2   5
ATOM      5  C   LIG    1       24.484 -16.181   4.026  0.00  0.00    +0.058 A 
ATOM      6  C   LIG    1       25.422 -15.194   3.689  0.00  0.00    +0.118 A 
ATOM      7  S   LIG    1       24.761 -13.611   3.756  0.00  0.00    -0.088 S 
ATOM      8  C   LIG    1       23.243 -14.193   4.207  0.00  0.00    +0.051 A 
ATOM      9  C   LIG    1       23.209 -15.565   4.369  0.00  0.00    -0.021 A 
ATOM     10  C   LIG    1       21.956 -16.218   4.857  0.00  0.00    +0.046 C 
BRANCH   6  11
ATOM     11  C   LIG    1       26.797 -15.269   3.232  0.00  0.00    +0.347 C 
ATOM     12  O   LIG    1       27.527 -16.265   3.279  0.00  0.00    -0.244 OA
BRANCH  11  13
ATOM     13  O   LIG    1       27.228 -14.033   2.855  0.00  0.00    -0.464 OA
ATOM     14  C   LIG    1       28.322 -13.537   3.632  0.00  0.00    +0.280 C 
ENDBRANCH  11  13
ENDBRANCH   6  11
ENDBRANCH   2   5
BRANCH   1  15
ATOM     15  C   LIG    1       24.661 -20.014   4.112  0.00  0.00    +0.138 C 
ATOM     16  C   LIG    1       24.176 -20.929   2.986  0.00  0.00    +0.034 C 
BRANCH  15  17
ATOM     17  N   LIG    1       26.146 -19.960   4.170  0.00  0.00    -0.306 NA
ATOM     18  H   LIG    1       26.499 -20.717   3.580  0.00  0.00    +0.123 HD
BRANCH  17  19
ATOM     19  C   LIG    1       26.636 -20.201   5.541  0.00  0.00    +0.081 C 
BRANCH  19  21
ATOM     20  C   LIG    1       28.864 -20.699   6.612  0.00  0.00    +0.005 C 
ATOM     21  C   LIG    1       28.093 -19.749   5.702  0.00  0.00    +0.012 C 
ENDBRANCH  19  21
ENDBRANCH  17  19
ENDBRANCH  15  17
ENDBRANCH   1  15
TORSDOF 7
ENDMDL
