MODEL 1
REMARK VINA RESULT:      -2.1      0.000      0.000
REMARK  Name = *****
REMARK                            x       y       z     vdW  Elec       q    Type
REMARK                         _______ _______ _______ _____ _____    ______ ____
ROOT
ATOM      1  O   LIG    1       22.822 -16.707   4.478  0.00  0.00    -0.273 OA
ATOM      2  C   LIG    1       23.831 -17.364   4.263  0.00  0.00    +0.249 C 
ATOM      3  N   LIG    1       24.187 -18.624   4.771  0.00  0.00    -0.180 N 
ATOM      4  N   LIG    1       25.502 -18.958   4.349  0.00  0.00    -0.180 N 
ATOM      5  C   LIG    1       25.933 -18.065   3.360  0.00  0.00    +0.249 C 
ATOM      6  O   LIG    1       26.970 -18.059   2.708  0.00  0.00    -0.273 OA
ATOM      7  C   LIG    1       24.898 -16.976   3.274  0.00  0.00    +0.166 C 
ENDROOT
BRANCH   3   8
ATOM      8  C   LIG    1       23.166 -19.615   4.869  0.00  0.00    +0.057 A 
ATOM      9  C   LIG    1       22.088 -19.636   3.972  0.00  0.00    +0.025 A 
ATOM     10  C   LIG    1       21.085 -20.600   4.092  0.00  0.00    +0.002 A 
ATOM     11  C   LIG    1       21.165 -21.571   5.088  0.00  0.00    +0.000 A 
ATOM     12  C   LIG    1       22.241 -21.572   5.973  0.00  0.00    +0.002 A 
ATOM     13  C   LIG    1       23.230 -20.590   5.873  0.00  0.00    +0.025 A 
ENDBRANCH   3   8
BRANCH   4  14
ATOM     14  C   LIG    1       26.397 -19.696   5.197  0.00  0.00    +0.057 A 
ATOM     15  C   LIG    1       25.935 -20.761   5.992  0.00  0.00    +0.025 A 
ATOM     16  C   LIG    1       26.792 -21.456   6.854  0.00  0.00    +0.002 A 
ATOM     17  C   LIG    1       28.132 -21.097   6.947  0.00  0.00    +0.000 A 
ATOM     18  C   LIG    1       28.613 -20.051   6.169  0.00  0.00    +0.002 A 
ATOM     19  C   LIG    1       27.756 -19.364   5.301  0.00  0.00    +0.025 A 
ENDBRANCH   4  14
BRANCH   7  20
ATOM     20  C   LIG    1       25.476 -15.584   3.537  0.00  0.00    +0.036 C 
BRANCH  20  21
ATOM     21  C   LIG    1       27.007 -15.567   3.553  0.00  0.00    +0.110 C 
BRANCH  21  22
ATOM     22  S   LIG    1       27.648 -13.871   3.364  0.00  0.00    +0.054 S 
ATOM     23  O   LIG    1       28.324 -13.507   4.654  0.00  0.00    -0.252 OA
BRANCH  22  24
ATOM     24  C   LIG    1       26.049 -13.018   3.383  0.00  0.00    +0.039 A 
ATOM     25  C   LIG    1       25.472 -12.582   2.183  0.00  0.00    +0.017 A 
ATOM     26  C   LIG    1       24.249 -11.906   2.195  0.00  0.00    +0.001 A 
ATOM     27  C   LIG    1       23.598 -11.660   3.403  0.00  0.00    +0.000 A 
ATOM     28  C   LIG    1       24.170 -12.085   4.601  0.00  0.00    +0.001 A 
ATOM     29  C   LIG    1       25.393 -12.758   4.591  0.00  0.00    +0.017 A 
ENDBRANCH  22  24
ENDBRANCH  21  22
ENDBRANCH  20  21
ENDBRANCH   7  20
TORSDOF 6
ENDMDL
MODEL 2
REMARK VINA RESULT:      -0.9      1.551      2.249
REMARK  Name = *****
REMARK                            x       y       z     vdW  Elec       q    Type
REMARK                         _______ _______ _______ _____ _____    ______ ____
ROOT
ATOM      1  O   LIG    1       22.379 -16.629   4.574  0.00  0.00    -0.273 OA
ATOM      2  C   LIG    1       23.406 -17.238   4.307  0.00  0.00    +0.249 C 
ATOM      3  N   LIG    1       23.823 -18.501   4.756  0.00  0.00    -0.180 N 
ATOM      4  N   LIG    1       25.137 -18.768   4.287  0.00  0.00    -0.180 N 
ATOM      5  C   LIG    1       25.507 -17.823   3.322  0.00  0.00    +0.249 C 
ATOM      6  O   LIG    1       26.524 -17.752   2.644  0.00  0.00    -0.273 OA
ATOM      7  C   LIG    1       24.429 -16.772   3.306  0.00  0.00    +0.166 C 
ENDROOT
BRANCH   3   8
ATOM      8  C   LIG    1       22.843 -19.534   4.842  0.00  0.00    +0.057 A 
ATOM      9  C   LIG    1       22.947 -20.554   5.800  0.00  0.00    +0.025 A 
ATOM     10  C   LIG    1       21.990 -21.570   5.860  0.00  0.00    +0.002 A 
ATOM     11  C   LIG    1       20.905 -21.559   4.987  0.00  0.00    +0.000 A 
ATOM     12  C   LIG    1       20.781 -20.542   4.044  0.00  0.00    +0.002 A 
ATOM     13  C   LIG    1       21.753 -19.541   3.962  0.00  0.00    +0.025 A 
ENDBRANCH   3   8
BRANCH   4  14
ATOM     14  C   LIG    1       26.083 -19.503   5.081  0.00  0.00    +0.057 A 
ATOM     15  C   LIG    1       25.662 -20.513   5.966  0.00  0.00    +0.025 A 
ATOM     16  C   LIG    1       26.573 -21.202   6.776  0.00  0.00    +0.002 A 
ATOM     17  C   LIG    1       27.927 -20.892   6.725  0.00  0.00    +0.000 A 
ATOM     18  C   LIG    1       28.367 -19.902   5.857  0.00  0.00    +0.002 A 
ATOM     19  C   LIG    1       27.456 -19.220   5.042  0.00  0.00    +0.025 A 
ENDBRANCH   4  14
BRANCH   7  20
ATOM     20  C   LIG    1       24.962 -15.370   3.608  0.00  0.00    +0.036 C 
BRANCH  20  21
ATOM     21  C   LIG    1       23.970 -14.511   4.398  0.00  0.00    +0.110 C 
BRANCH  21  22
ATOM     22  S   LIG    1       24.305 -12.734   4.162  0.00  0.00    +0.054 S 
ATOM     23  O   LIG    1       23.895 -12.390   2.760  0.00  0.00    -0.252 OA
BRANCH  22  24
ATOM     24  C   LIG    1       26.115 -12.843   4.139  0.00  0.00    +0.039 A 
ATOM     25  C   LIG    1       26.797 -12.930   2.919  0.00  0.00    +0.017 A 
ATOM     26  C   LIG    1       28.190 -13.034   2.897  0.00  0.00    +0.001 A 
ATOM     27  C   LIG    1       28.908 -13.055   4.092  0.00  0.00    +0.000 A 
ATOM     28  C   LIG    1       28.235 -12.975   5.310  0.00  0.00    +0.001 A 
ATOM     29  C   LIG    1       26.842 -12.874   5.333  0.00  0.00    +0.017 A 
ENDBRANCH  22  24
ENDBRANCH  21  22
ENDBRANCH  20  21
ENDBRANCH   7  20
TORSDOF 6
ENDMDL
MODEL 3
REMARK VINA RESULT:      -0.2      1.531      2.220
REMARK  Name = *****
REMARK                            x       y       z     vdW  Elec       q    Type
REMARK                         _______ _______ _______ _____ _____    ______ ____
ROOT
ATOM      1  O   LIG    1       22.958 -16.781   4.362  0.00  0.00    -0.273 OA
ATOM      2  C   LIG    1       23.956 -17.467   4.189  0.00  0.00    +0.249 C 
ATOM      3  N   LIG    1       24.292 -18.697   4.776  0.00  0.00    -0.180 N 
ATOM      4  N   LIG    1       25.602 -19.078   4.377  0.00  0.00    -0.180 N 
ATOM      5  C   LIG    1       26.047 -18.257   3.334  0.00  0.00    +0.249 C 
ATOM      6  O   LIG    1       27.084 -18.308   2.684  0.00  0.00    -0.273 OA
ATOM      7  C   LIG    1       25.029 -17.158   3.179  0.00  0.00    +0.166 C 
ENDROOT
BRANCH   3   8
ATOM      8  C   LIG    1       23.255 -19.664   4.935  0.00  0.00    +0.057 A 
ATOM      9  C   LIG    1       22.186 -19.735   4.030  0.00  0.00    +0.025 A 
ATOM     10  C   LIG    1       21.168 -20.674   4.209  0.00  0.00    +0.002 A 
ATOM     11  C   LIG    1       21.223 -21.570   5.274  0.00  0.00    +0.000 A 
ATOM     12  C   LIG    1       22.289 -21.520   6.169  0.00  0.00    +0.002 A 
ATOM     13  C   LIG    1       23.294 -20.563   6.009  0.00  0.00    +0.025 A 
ENDBRANCH   3   8
BRANCH   4  14
ATOM     14  C   LIG    1       26.485 -19.776   5.270  0.00  0.00    +0.057 A 
ATOM     15  C   LIG    1       27.844 -19.426   5.372  0.00  0.00    +0.025 A 
ATOM     16  C   LIG    1       28.720 -20.130   6.206  0.00  0.00    +0.002 A 
ATOM     17  C   LIG    1       28.260 -21.208   6.953  0.00  0.00    +0.000 A 
ATOM     18  C   LIG    1       26.921 -21.572   6.872  0.00  0.00    +0.002 A 
ATOM     19  C   LIG    1       26.045 -20.860   6.044  0.00  0.00    +0.025 A 
ENDBRANCH   4  14
BRANCH   7  20
ATOM     20  C   LIG    1       25.630 -15.762   3.355  0.00  0.00    +0.036 C 
BRANCH  20  21
ATOM     21  C   LIG    1       24.666 -14.643   2.952  0.00  0.00    +0.110 C 
BRANCH  21  22
ATOM     22  S   LIG    1       24.583 -13.353   4.238  0.00  0.00    +0.054 S 
ATOM     23  O   LIG    1       23.986 -12.132   3.601  0.00  0.00    -0.252 OA
BRANCH  22  24
ATOM     24  C   LIG    1       26.363 -13.032   4.357  0.00  0.00    +0.039 A 
ATOM     25  C   LIG    1       27.120 -12.839   3.195  0.00  0.00    +0.017 A 
ATOM     26  C   LIG    1       28.497 -12.611   3.280  0.00  0.00    +0.001 A 
ATOM     27  C   LIG    1       29.123 -12.579   4.525  0.00  0.00    +0.000 A 
ATOM     28  C   LIG    1       28.377 -12.777   5.686  0.00  0.00    +0.001 A 
ATOM     29  C   LIG    1       27.002 -13.007   5.601  0.00  0.00    +0.017 A 
ENDBRANCH  22  24
ENDBRANCH  21  22
ENDBRANCH  20  21
ENDBRANCH   7  20
TORSDOF 6
ENDMDL
MODEL 4
REMARK VINA RESULT:      -0.1      0.862      1.623
REMARK  Name = *****
REMARK                            x       y       z     vdW  Elec       q    Type
REMARK                         _______ _______ _______ _____ _____    ______ ____
ROOT
ATOM      1  O   LIG    1       23.392 -16.622   4.055  0.00  0.00    -0.273 OA
ATOM      2  C   LIG    1       24.455 -17.226   4.007  0.00  0.00    +0.249 C 
ATOM      3  N   LIG    1       24.753 -18.521   4.461  0.00  0.00    -0.180 N 
ATOM      4  N   LIG    1       26.143 -18.774   4.311  0.00  0.00    -0.180 N 
ATOM      5  C   LIG    1       26.734 -17.775   3.528  0.00  0.00    +0.249 C 
ATOM      6  O   LIG    1       27.886 -17.674   3.125  0.00  0.00    -0.273 OA
ATOM      7  C   LIG    1       25.690 -16.710   3.319  0.00  0.00    +0.166 C 
ENDROOT
BRANCH   3   8
ATOM      8  C   LIG    1       23.785 -19.544   4.239  0.00  0.00    +0.057 A 
ATOM      9  C   LIG    1       22.624 -19.625   5.021  0.00  0.00    +0.025 A 
ATOM     10  C   LIG    1       21.693 -20.644   4.805  0.00  0.00    +0.002 A 
ATOM     11  C   LIG    1       21.897 -21.571   3.785  0.00  0.00    +0.000 A 
ATOM     12  C   LIG    1       23.038 -21.490   2.990  0.00  0.00    +0.002 A 
ATOM     13  C   LIG    1       23.985 -20.489   3.224  0.00  0.00    +0.025 A 
ENDBRANCH   3   8
BRANCH   4  14
ATOM     14  C   LIG    1       26.868 -19.571   5.262  0.00  0.00    +0.057 A 
ATOM     15  C   LIG    1       28.213 -19.295   5.569  0.00  0.00    +0.025 A 
ATOM     16  C   LIG    1       28.940 -20.094   6.460  0.00  0.00    +0.002 A 
ATOM     17  C   LIG    1       28.339 -21.194   7.061  0.00  0.00    +0.000 A 
ATOM     18  C   LIG    1       27.011 -21.485   6.777  0.00  0.00    +0.002 A 
ATOM     19  C   LIG    1       26.284 -20.680   5.892  0.00  0.00    +0.025 A 
ENDBRANCH   4  14
BRANCH   7  20
ATOM     20  C   LIG    1       26.130 -15.338   3.832  0.00  0.00    +0.036 C 
BRANCH  20  21
ATOM     21  C   LIG    1       27.605 -15.040   3.552  0.00  0.00    +0.110 C 
BRANCH  21  22
ATOM     22  S   LIG    1       27.945 -13.251   3.648  0.00  0.00    +0.054 S 
ATOM     23  O   LIG    1       28.305 -12.946   5.073  0.00  0.00    -0.252 OA
BRANCH  22  24
ATOM     24  C   LIG    1       26.237 -12.681   3.435  0.00  0.00    +0.039 A 
ATOM     25  C   LIG    1       25.474 -12.319   4.552  0.00  0.00    +0.017 A 
ATOM     26  C   LIG    1       24.150 -11.898   4.394  0.00  0.00    +0.001 A 
ATOM     27  C   LIG    1       23.582 -11.841   3.123  0.00  0.00    +0.000 A 
ATOM     28  C   LIG    1       24.334 -12.207   2.007  0.00  0.00    +0.001 A 
ATOM     29  C   LIG    1       25.655 -12.630   2.164  0.00  0.00    +0.017 A 
ENDBRANCH  22  24
ENDBRANCH  21  22
ENDBRANCH  20  21
ENDBRANCH   7  20
TORSDOF 6
ENDMDL
MODEL 5
REMARK VINA RESULT:      -0.1      1.933      4.509
REMARK  Name = *****
REMARK                            x       y       z     vdW  Elec       q    Type
REMARK                         _______ _______ _______ _____ _____    ______ ____
ROOT
ATOM      1  O   LIG    1       26.939 -15.767   2.741  0.00  0.00    -0.273 OA
ATOM      2  C   LIG    1       25.967 -16.270   3.288  0.00  0.00    +0.249 C 
ATOM      3  N   LIG    1       25.807 -17.578   3.772  0.00  0.00    -0.180 N 
ATOM      4  N   LIG    1       24.473 -17.764   4.224  0.00  0.00    -0.180 N 
ATOM      5  C   LIG    1       23.810 -16.532   4.290  0.00  0.00    +0.249 C 
ATOM      6  O   LIG    1       22.682 -16.270   4.689  0.00  0.00    -0.273 OA
ATOM      7  C   LIG    1       24.721 -15.512   3.662  0.00  0.00    +0.166 C 
ENDROOT
BRANCH   3   8
ATOM      8  C   LIG    1       26.909 -18.175   4.452  0.00  0.00    +0.057 A 
ATOM      9  C   LIG    1       28.126 -17.494   4.598  0.00  0.00    +0.025 A 
ATOM     10  C   LIG    1       29.204 -18.098   5.249  0.00  0.00    +0.002 A 
ATOM     11  C   LIG    1       29.067 -19.375   5.788  0.00  0.00    +0.000 A 
ATOM     12  C   LIG    1       27.857 -20.056   5.665  0.00  0.00    +0.002 A 
ATOM     13  C   LIG    1       26.787 -19.464   4.988  0.00  0.00    +0.025 A 
ENDBRANCH   3   8
BRANCH   4  14
ATOM     14  C   LIG    1       23.796 -19.022   4.070  0.00  0.00    +0.057 A 
ATOM     15  C   LIG    1       22.699 -19.363   4.882  0.00  0.00    +0.025 A 
ATOM     16  C   LIG    1       22.063 -20.606   4.769  0.00  0.00    +0.002 A 
ATOM     17  C   LIG    1       22.515 -21.540   3.844  0.00  0.00    +0.000 A 
ATOM     18  C   LIG    1       23.595 -21.226   3.029  0.00  0.00    +0.002 A 
ATOM     19  C   LIG    1       24.223 -19.979   3.138  0.00  0.00    +0.025 A 
ENDBRANCH   4  14
BRANCH   7  20
ATOM     20  C   LIG    1       24.080 -14.793   2.473  0.00  0.00    +0.036 C 
BRANCH  20  21
ATOM     21  C   LIG    1       23.829 -13.307   2.739  0.00  0.00    +0.110 C 
BRANCH  21  22
ATOM     22  S   LIG    1       24.188 -12.879   4.475  0.00  0.00    +0.054 S 
ATOM     23  O   LIG    1       23.781 -11.447   4.670  0.00  0.00    -0.252 OA
BRANCH  22  24
ATOM     24  C   LIG    1       25.996 -12.868   4.339  0.00  0.00    +0.039 A 
ATOM     25  C   LIG    1       26.606 -12.536   3.123  0.00  0.00    +0.017 A 
ATOM     26  C   LIG    1       27.998 -12.546   3.008  0.00  0.00    +0.001 A 
ATOM     27  C   LIG    1       28.788 -12.890   4.104  0.00  0.00    +0.000 A 
ATOM     28  C   LIG    1       28.186 -13.228   5.316  0.00  0.00    +0.001 A 
ATOM     29  C   LIG    1       26.795 -13.221   5.431  0.00  0.00    +0.017 A 
ENDBRANCH  22  24
ENDBRANCH  21  22
ENDBRANCH  20  21
ENDBRANCH   7  20
TORSDOF 6
ENDMDL
MODEL 6
REMARK VINA RESULT:       0.2      1.881      4.587
REMARK  Name = *****
REMARK                            x       y       z     vdW  Elec       q    Type
REMARK                         _______ _______ _______ _____ _____    ______ ____
ROOT
ATOM      1  O   LIG    1       26.269 -17.196   3.075  0.00  0.00    -0.273 OA
ATOM      2  C   LIG    1       25.151 -17.163   3.570  0.00  0.00    +0.249 C 
ATOM      3  N   LIG    1       24.316 -18.232   3.934  0.00  0.00    -0.180 N 
ATOM      4  N   LIG    1       23.056 -17.733   4.362  0.00  0.00    -0.180 N 
ATOM      5  C   LIG    1       23.120 -16.345   4.536  0.00  0.00    +0.249 C 
ATOM      6  O   LIG    1       22.270 -15.568   4.952  0.00  0.00    -0.273 OA
ATOM      7  C   LIG    1       24.457 -15.900   4.007  0.00  0.00    +0.166 C 
ENDROOT
BRANCH   3   8
ATOM      8  C   LIG    1       24.918 -19.362   4.562  0.00  0.00    +0.057 A 
ATOM      9  C   LIG    1       24.153 -20.479   4.930  0.00  0.00    +0.025 A 
ATOM     10  C   LIG    1       24.752 -21.571   5.562  0.00  0.00    +0.002 A 
ATOM     11  C   LIG    1       26.124 -21.572   5.803  0.00  0.00    +0.000 A 
ATOM     12  C   LIG    1       26.897 -20.476   5.425  0.00  0.00    +0.002 A 
ATOM     13  C   LIG    1       26.295 -19.370   4.820  0.00  0.00    +0.025 A 
ENDBRANCH   3   8
BRANCH   4  14
ATOM     14  C   LIG    1       21.837 -18.445   4.092  0.00  0.00    +0.057 A 
ATOM     15  C   LIG    1       21.661 -19.776   4.514  0.00  0.00    +0.025 A 
ATOM     16  C   LIG    1       20.494 -20.490   4.215  0.00  0.00    +0.002 A 
ATOM     17  C   LIG    1       19.477 -19.891   3.481  0.00  0.00    +0.000 A 
ATOM     18  C   LIG    1       19.626 -18.577   3.056  0.00  0.00    +0.002 A 
ATOM     19  C   LIG    1       20.789 -17.862   3.363  0.00  0.00    +0.025 A 
ENDBRANCH   4  14
BRANCH   7  20
ATOM     20  C   LIG    1       24.338 -14.867   2.885  0.00  0.00    +0.036 C 
BRANCH  20  21
ATOM     21  C   LIG    1       23.376 -13.726   3.224  0.00  0.00    +0.110 C 
BRANCH  21  22
ATOM     22  S   LIG    1       24.239 -12.120   3.241  0.00  0.00    +0.054 S 
ATOM     23  O   LIG    1       24.387 -11.683   1.812  0.00  0.00    -0.252 OA
BRANCH  22  24
ATOM     24  C   LIG    1       25.868 -12.741   3.741  0.00  0.00    +0.039 A 
ATOM     25  C   LIG    1       26.864 -12.953   2.780  0.00  0.00    +0.017 A 
ATOM     26  C   LIG    1       28.113 -13.450   3.159  0.00  0.00    +0.001 A 
ATOM     27  C   LIG    1       28.373 -13.741   4.497  0.00  0.00    +0.000 A 
ATOM     28  C   LIG    1       27.384 -13.539   5.458  0.00  0.00    +0.001 A 
ATOM     29  C   LIG    1       26.134 -13.044   5.081  0.00  0.00    +0.017 A 
ENDBRANCH  22  24
ENDBRANCH  21  22
ENDBRANCH  20  21
ENDBRANCH   7  20
TORSDOF 6
ENDMDL
MODEL 7
REMARK VINA RESULT:       0.9      1.043      4.116
REMARK  Name = *****
REMARK                            x       y       z     vdW  Elec       q    Type
REMARK                         _______ _______ _______ _____ _____    ______ ____
ROOT
ATOM      1  O   LIG    1       27.044 -17.622   3.229  0.00  0.00    -0.273 OA
ATOM      2  C   LIG    1       25.899 -17.474   3.633  0.00  0.00    +0.249 C 
ATOM      3  N   LIG    1       24.987 -18.446   4.075  0.00  0.00    -0.180 N 
ATOM      4  N   LIG    1       23.730 -17.841   4.340  0.00  0.00    -0.180 N 
ATOM      5  C   LIG    1       23.854 -16.446   4.331  0.00  0.00    +0.249 C 
ATOM      6  O   LIG    1       23.019 -15.584   4.576  0.00  0.00    -0.273 OA
ATOM      7  C   LIG    1       25.244 -16.135   3.845  0.00  0.00    +0.166 C 
ENDROOT
BRANCH   3   8
ATOM      8  C   LIG    1       25.487 -19.504   4.891  0.00  0.00    +0.057 A 
ATOM      9  C   LIG    1       24.636 -20.506   5.380  0.00  0.00    +0.025 A 
ATOM     10  C   LIG    1       25.136 -21.526   6.194  0.00  0.00    +0.002 A 
ATOM     11  C   LIG    1       26.494 -21.572   6.500  0.00  0.00    +0.000 A 
ATOM     12  C   LIG    1       27.352 -20.592   6.006  0.00  0.00    +0.002 A 
ATOM     13  C   LIG    1       26.849 -19.555   5.216  0.00  0.00    +0.025 A 
ENDBRANCH   3   8
BRANCH   4  14
ATOM     14  C   LIG    1       22.496 -18.530   4.081  0.00  0.00    +0.057 A 
ATOM     15  C   LIG    1       21.423 -17.886   3.436  0.00  0.00    +0.025 A 
ATOM     16  C   LIG    1       20.202 -18.537   3.221  0.00  0.00    +0.002 A 
ATOM     17  C   LIG    1       20.022 -19.846   3.652  0.00  0.00    +0.000 A 
ATOM     18  C   LIG    1       21.067 -20.504   4.287  0.00  0.00    +0.002 A 
ATOM     19  C   LIG    1       22.290 -19.855   4.494  0.00  0.00    +0.025 A 
ENDBRANCH   4  14
BRANCH   7  20
ATOM     20  C   LIG    1       25.253 -15.262   2.589  0.00  0.00    +0.036 C 
BRANCH  20  21
ATOM     21  C   LIG    1       26.663 -14.851   2.157  0.00  0.00    +0.110 C 
BRANCH  21  22
ATOM     22  S   LIG    1       27.342 -13.569   3.262  0.00  0.00    +0.054 S 
ATOM     23  O   LIG    1       27.737 -14.251   4.540  0.00  0.00    -0.252 OA
BRANCH  22  24
ATOM     24  C   LIG    1       25.780 -12.719   3.614  0.00  0.00    +0.039 A 
ATOM     25  C   LIG    1       25.288 -12.670   4.924  0.00  0.00    +0.017 A 
ATOM     26  C   LIG    1       24.074 -12.033   5.198  0.00  0.00    +0.001 A 
ATOM     27  C   LIG    1       23.345 -11.447   4.164  0.00  0.00    +0.000 A 
ATOM     28  C   LIG    1       23.826 -11.498   2.857  0.00  0.00    +0.001 A 
ATOM     29  C   LIG    1       25.037 -12.136   2.582  0.00  0.00    +0.017 A 
ENDBRANCH  22  24
ENDBRANCH  21  22
ENDBRANCH  20  21
ENDBRANCH   7  20
TORSDOF 6
ENDMDL
