MODEL 1
REMARK VINA RESULT:      -7.9      0.000      0.000
REMARK  Name = *****
REMARK                            x       y       z     vdW  Elec       q    Type
REMARK                         _______ _______ _______ _____ _____    ______ ____
ROOT
ATOM      1  C   LIG    1       26.892 -21.965   8.043  0.00  0.00    +0.265 C 
ATOM      2  N   LIG    1       26.494 -22.592   6.880  0.00  0.00    -0.307 N 
ATOM      3  H   LIG    1       27.221 -22.667   6.173  0.00  0.00    +0.149 HD
ATOM      4  O   LIG    1       26.194 -21.898   9.052  0.00  0.00    -0.268 OA
ENDROOT
BRANCH   1  12
ATOM      5  C   LIG    1       31.582 -21.251   9.000  0.00  0.00    +0.173 C 
ATOM      6  N   LIG    1       30.301 -21.057   8.362  0.00  0.00    -0.266 N 
ATOM      7  C   LIG    1       30.025 -20.179   7.344  0.00  0.00    +0.069 A 
ATOM      8  C   LIG    1       28.677 -20.372   7.055  0.00  0.00    +0.032 A 
ATOM      9  C   LIG    1       28.076 -19.601   6.041  0.00  0.00    +0.012 A 
ATOM     10  C   LIG    1       28.847 -18.656   5.356  0.00  0.00    +0.001 A 
ATOM     11  C   LIG    1       30.195 -18.487   5.658  0.00  0.00    +0.002 A 
ATOM     12  C   LIG    1       28.241 -21.385   7.957  0.00  0.00    +0.155 A 
ATOM     13  C   LIG    1       30.815 -19.248   6.656  0.00  0.00    +0.028 A 
ATOM     14  N   LIG    1       29.244 -21.787   8.770  0.00  0.00    -0.166 NA
ENDBRANCH   1  12
BRANCH   2  15
ATOM     15  C   LIG    1       25.205 -23.242   6.713  0.00  0.00    +0.076 C 
ATOM     16  C   LIG    1       24.082 -22.572   7.521  0.00  0.00    +0.041 C 
ATOM     17  C   LIG    1       23.301 -21.481   6.777  0.00  0.00    +0.058 C 
ATOM     18  N   LIG    1       22.821 -22.061   5.516  0.00  0.00    -0.299 NA
ATOM     19  C   LIG    1       21.747 -21.281   4.908  0.00  0.00    +0.105 C 
ATOM     20  C   LIG    1       23.956 -22.305   4.620  0.00  0.00    +0.058 C 
ATOM     21  C   LIG    1       24.723 -21.021   4.267  0.00  0.00    +0.019 C 
ATOM     22  C   LIG    1       25.101 -20.150   5.460  0.00  0.00    +0.003 C 
ATOM     23  C   LIG    1       24.074 -20.161   6.585  0.00  0.00    +0.019 C 
ATOM     24  C   LIG    1       24.835 -23.417   5.231  0.00  0.00    +0.041 C 
ENDBRANCH   2  15
TORSDOF 2
ENDMDL
MODEL 2
REMARK VINA RESULT:      -7.0      1.906      3.043
REMARK  Name = *****
REMARK                            x       y       z     vdW  Elec       q    Type
REMARK                         _______ _______ _______ _____ _____    ______ ____
ROOT
ATOM      1  C   LIG    1       28.079 -19.911   6.390  0.00  0.00    +0.265 C 
ATOM      2  N   LIG    1       26.888 -20.428   6.857  0.00  0.00    -0.307 N 
ATOM      3  H   LIG    1       26.918 -20.749   7.822  0.00  0.00    +0.149 HD
ATOM      4  O   LIG    1       28.198 -19.360   5.299  0.00  0.00    -0.268 OA
ENDROOT
BRANCH   1  12
ATOM      5  C   LIG    1       31.498 -22.127   9.001  0.00  0.00    +0.173 C 
ATOM      6  N   LIG    1       30.702 -21.038   8.486  0.00  0.00    -0.266 N 
ATOM      7  C   LIG    1       30.865 -19.706   8.775  0.00  0.00    +0.069 A 
ATOM      8  C   LIG    1       29.887 -19.052   8.031  0.00  0.00    +0.032 A 
ATOM      9  C   LIG    1       29.785 -17.650   8.115  0.00  0.00    +0.012 A 
ATOM     10  C   LIG    1       30.663 -16.951   8.951  0.00  0.00    +0.001 A 
ATOM     11  C   LIG    1       31.636 -17.627   9.680  0.00  0.00    +0.002 A 
ATOM     12  C   LIG    1       29.195 -20.083   7.332  0.00  0.00    +0.155 A 
ATOM     13  C   LIG    1       31.762 -19.019   9.605  0.00  0.00    +0.028 A 
ATOM     14  N   LIG    1       29.693 -21.303   7.634  0.00  0.00    -0.166 NA
ENDBRANCH   1  12
BRANCH   2  15
ATOM     15  C   LIG    1       25.641 -20.382   6.113  0.00  0.00    +0.076 C 
ATOM     16  C   LIG    1       25.510 -21.515   5.083  0.00  0.00    +0.041 C 
ATOM     17  C   LIG    1       24.823 -22.789   5.592  0.00  0.00    +0.058 C 
ATOM     18  N   LIG    1       23.529 -22.395   6.164  0.00  0.00    -0.299 NA
ATOM     19  C   LIG    1       22.612 -23.521   6.317  0.00  0.00    +0.105 C 
ATOM     20  C   LIG    1       23.745 -21.636   7.400  0.00  0.00    +0.058 C 
ATOM     21  C   LIG    1       24.489 -22.445   8.473  0.00  0.00    +0.019 C 
ATOM     22  C   LIG    1       25.757 -23.140   7.990  0.00  0.00    +0.003 C 
ATOM     23  C   LIG    1       25.680 -23.637   6.552  0.00  0.00    +0.019 C 
ATOM     24  C   LIG    1       24.418 -20.294   7.042  0.00  0.00    +0.041 C 
ENDBRANCH   2  15
TORSDOF 2
ENDMDL
MODEL 3
REMARK VINA RESULT:      -6.7      7.673     10.124
REMARK  Name = *****
REMARK                            x       y       z     vdW  Elec       q    Type
REMARK                         _______ _______ _______ _____ _____    ______ ____
ROOT
ATOM      1  C   LIG    1       26.275 -29.172   9.850  0.00  0.00    +0.265 C 
ATOM      2  N   LIG    1       25.353 -29.229  10.874  0.00  0.00    -0.307 N 
ATOM      3  H   LIG    1       24.417 -29.500  10.583  0.00  0.00    +0.149 HD
ATOM      4  O   LIG    1       27.477 -28.990  10.028  0.00  0.00    -0.268 OA
ENDROOT
BRANCH   1  12
ATOM      5  C   LIG    1       23.954 -31.322   6.189  0.00  0.00    +0.173 C 
ATOM      6  N   LIG    1       24.659 -30.282   6.900  0.00  0.00    -0.266 N 
ATOM      7  C   LIG    1       24.932 -29.021   6.434  0.00  0.00    +0.069 A 
ATOM      8  C   LIG    1       25.601 -28.387   7.477  0.00  0.00    +0.032 A 
ATOM      9  C   LIG    1       26.030 -27.056   7.308  0.00  0.00    +0.012 A 
ATOM     10  C   LIG    1       25.781 -26.409   6.093  0.00  0.00    +0.001 A 
ATOM     11  C   LIG    1       25.104 -27.062   5.067  0.00  0.00    +0.002 A 
ATOM     12  C   LIG    1       25.676 -29.356   8.519  0.00  0.00    +0.155 A 
ATOM     13  C   LIG    1       24.660 -28.381   5.217  0.00  0.00    +0.028 A 
ATOM     14  N   LIG    1       25.110 -30.525   8.147  0.00  0.00    -0.166 NA
ENDBRANCH   1  12
BRANCH   2  15
ATOM     15  C   LIG    1       25.694 -29.076  12.278  0.00  0.00    +0.076 C 
ATOM     16  C   LIG    1       25.040 -27.847  12.930  0.00  0.00    +0.041 C 
ATOM     17  C   LIG    1       23.678 -28.101  13.588  0.00  0.00    +0.058 C 
ATOM     18  N   LIG    1       23.842 -29.217  14.528  0.00  0.00    -0.299 NA
ATOM     19  C   LIG    1       22.755 -29.303  15.500  0.00  0.00    +0.105 C 
ATOM     20  C   LIG    1       24.071 -30.460  13.785  0.00  0.00    +0.058 C 
ATOM     21  C   LIG    1       22.904 -30.820  12.852  0.00  0.00    +0.019 C 
ATOM     22  C   LIG    1       22.429 -29.685  11.952  0.00  0.00    +0.003 C 
ATOM     23  C   LIG    1       22.517 -28.306  12.595  0.00  0.00    +0.019 C 
ATOM     24  C   LIG    1       25.439 -30.365  13.077  0.00  0.00    +0.041 C 
ENDBRANCH   2  15
TORSDOF 2
ENDMDL
MODEL 4
REMARK VINA RESULT:      -6.7      1.571      2.513
REMARK  Name = *****
REMARK                            x       y       z     vdW  Elec       q    Type
REMARK                         _______ _______ _______ _____ _____    ______ ____
ROOT
ATOM      1  C   LIG    1       26.827 -21.485   6.979  0.00  0.00    +0.265 C 
ATOM      2  N   LIG    1       25.643 -20.781   6.908  0.00  0.00    -0.307 N 
ATOM      3  H   LIG    1       25.744 -19.815   6.606  0.00  0.00    +0.149 HD
ATOM      4  O   LIG    1       26.888 -22.691   7.198  0.00  0.00    -0.268 OA
ENDROOT
BRANCH   1  12
ATOM      5  C   LIG    1       29.645 -18.032   5.094  0.00  0.00    +0.173 C 
ATOM      6  N   LIG    1       29.268 -19.133   5.947  0.00  0.00    -0.266 N 
ATOM      7  C   LIG    1       30.039 -19.702   6.929  0.00  0.00    +0.069 A 
ATOM      8  C   LIG    1       29.242 -20.699   7.483  0.00  0.00    +0.032 A 
ATOM      9  C   LIG    1       29.758 -21.485   8.532  0.00  0.00    +0.012 A 
ATOM     10  C   LIG    1       31.061 -21.250   8.983  0.00  0.00    +0.001 A 
ATOM     11  C   LIG    1       31.836 -20.242   8.417  0.00  0.00    +0.002 A 
ATOM     12  C   LIG    1       28.015 -20.644   6.761  0.00  0.00    +0.155 A 
ATOM     13  C   LIG    1       31.340 -19.442   7.381  0.00  0.00    +0.028 A 
ATOM     14  N   LIG    1       28.047 -19.688   5.806  0.00  0.00    -0.166 NA
ENDBRANCH   1  12
BRANCH   2  15
ATOM     15  C   LIG    1       24.333 -21.384   7.087  0.00  0.00    +0.076 C 
ATOM     16  C   LIG    1       23.198 -20.351   7.172  0.00  0.00    +0.041 C 
ATOM     17  C   LIG    1       22.532 -19.998   5.836  0.00  0.00    +0.058 C 
ATOM     18  N   LIG    1       22.104 -21.255   5.209  0.00  0.00    -0.299 NA
ATOM     19  C   LIG    1       21.118 -21.053   4.151  0.00  0.00    +0.105 C 
ATOM     20  C   LIG    1       23.280 -22.021   4.784  0.00  0.00    +0.058 C 
ATOM     21  C   LIG    1       24.140 -21.270   3.756  0.00  0.00    +0.019 C 
ATOM     22  C   LIG    1       24.488 -19.835   4.135  0.00  0.00    +0.003 C 
ATOM     23  C   LIG    1       23.389 -19.115   4.907  0.00  0.00    +0.019 C 
ATOM     24  C   LIG    1       24.052 -22.475   6.041  0.00  0.00    +0.041 C 
ENDBRANCH   2  15
TORSDOF 2
ENDMDL
MODEL 5
REMARK VINA RESULT:      -6.6      8.016     10.684
REMARK  Name = *****
REMARK                            x       y       z     vdW  Elec       q    Type
REMARK                         _______ _______ _______ _____ _____    ______ ____
ROOT
ATOM      1  C   LIG    1       23.551 -30.326   9.974  0.00  0.00    +0.265 C 
ATOM      2  N   LIG    1       24.691 -30.286  10.750  0.00  0.00    -0.307 N 
ATOM      3  H   LIG    1       25.561 -30.292  10.223  0.00  0.00    +0.149 HD
ATOM      4  O   LIG    1       22.417 -30.196  10.425  0.00  0.00    -0.268 OA
ENDROOT
BRANCH   1  12
ATOM      5  C   LIG    1       23.676 -32.521   5.663  0.00  0.00    +0.173 C 
ATOM      6  N   LIG    1       23.895 -31.485   6.644  0.00  0.00    -0.266 N 
ATOM      7  C   LIG    1       24.464 -30.257   6.416  0.00  0.00    +0.069 A 
ATOM      8  C   LIG    1       24.436 -29.611   7.649  0.00  0.00    +0.032 A 
ATOM      9  C   LIG    1       24.963 -28.308   7.752  0.00  0.00    +0.012 A 
ATOM     10  C   LIG    1       25.509 -27.702   6.616  0.00  0.00    +0.001 A 
ATOM     11  C   LIG    1       25.519 -28.367   5.393  0.00  0.00    +0.002 A 
ATOM     12  C   LIG    1       23.831 -30.538   8.545  0.00  0.00    +0.155 A 
ATOM     13  C   LIG    1       24.993 -29.657   5.265  0.00  0.00    +0.028 A 
ATOM     14  N   LIG    1       23.518 -31.696   7.921  0.00  0.00    -0.166 NA
ENDBRANCH   1  12
BRANCH   2  15
ATOM     15  C   LIG    1       24.680 -30.088  12.190  0.00  0.00    +0.076 C 
ATOM     16  C   LIG    1       25.880 -30.737  12.898  0.00  0.00    +0.041 C 
ATOM     17  C   LIG    1       27.106 -29.831  13.074  0.00  0.00    +0.058 C 
ATOM     18  N   LIG    1       26.656 -28.602  13.741  0.00  0.00    -0.299 NA
ATOM     19  C   LIG    1       27.755 -27.840  14.324  0.00  0.00    +0.105 C 
ATOM     20  C   LIG    1       25.815 -27.823  12.826  0.00  0.00    +0.058 C 
ATOM     21  C   LIG    1       26.558 -27.402  11.548  0.00  0.00    +0.019 C 
ATOM     22  C   LIG    1       27.302 -28.527  10.837  0.00  0.00    +0.003 C 
ATOM     23  C   LIG    1       27.897 -29.567  11.779  0.00  0.00    +0.019 C 
ATOM     24  C   LIG    1       24.511 -28.607  12.568  0.00  0.00    +0.041 C 
ENDBRANCH   2  15
TORSDOF 2
ENDMDL
MODEL 6
REMARK VINA RESULT:      -6.6      2.501      3.793
REMARK  Name = *****
REMARK                            x       y       z     vdW  Elec       q    Type
REMARK                         _______ _______ _______ _____ _____    ______ ____
ROOT
ATOM      1  C   LIG    1       25.765 -22.080   6.413  0.00  0.00    +0.265 C 
ATOM      2  N   LIG    1       25.788 -23.397   6.004  0.00  0.00    -0.307 N 
ATOM      3  H   LIG    1       26.669 -23.876   6.174  0.00  0.00    +0.149 HD
ATOM      4  O   LIG    1       24.753 -21.384   6.408  0.00  0.00    -0.268 OA
ENDROOT
BRANCH   1  12
ATOM      5  C   LIG    1       29.903 -21.861   8.913  0.00  0.00    +0.173 C 
ATOM      6  N   LIG    1       28.901 -21.476   7.948  0.00  0.00    -0.266 N 
ATOM      7  C   LIG    1       28.981 -20.428   7.066  0.00  0.00    +0.069 A 
ATOM      8  C   LIG    1       27.796 -20.476   6.337  0.00  0.00    +0.032 A 
ATOM      9  C   LIG    1       27.566 -19.511   5.338  0.00  0.00    +0.012 A 
ATOM     10  C   LIG    1       28.530 -18.523   5.109  0.00  0.00    +0.001 A 
ATOM     11  C   LIG    1       29.710 -18.500   5.847  0.00  0.00    +0.002 A 
ATOM     12  C   LIG    1       27.078 -21.589   6.861  0.00  0.00    +0.155 A 
ATOM     13  C   LIG    1       29.964 -19.455   6.839  0.00  0.00    +0.028 A 
ATOM     14  N   LIG    1       27.758 -22.187   7.865  0.00  0.00    -0.166 NA
ENDBRANCH   1  12
BRANCH   2  15
ATOM     15  C   LIG    1       24.620 -24.112   5.518  0.00  0.00    +0.076 C 
ATOM     16  C   LIG    1       24.899 -24.934   4.249  0.00  0.00    +0.041 C 
ATOM     17  C   LIG    1       25.328 -26.387   4.492  0.00  0.00    +0.058 C 
ATOM     18  N   LIG    1       24.316 -27.009   5.355  0.00  0.00    -0.299 NA
ATOM     19  C   LIG    1       24.377 -28.468   5.338  0.00  0.00    +0.105 C 
ATOM     20  C   LIG    1       24.390 -26.430   6.700  0.00  0.00    +0.058 C 
ATOM     21  C   LIG    1       25.755 -26.649   7.369  0.00  0.00    +0.019 C 
ATOM     22  C   LIG    1       26.958 -26.277   6.510  0.00  0.00    +0.003 C 
ATOM     23  C   LIG    1       26.766 -26.549   5.023  0.00  0.00    +0.019 C 
ATOM     24  C   LIG    1       23.955 -24.950   6.622  0.00  0.00    +0.041 C 
ENDBRANCH   2  15
TORSDOF 2
ENDMDL
MODEL 7
REMARK VINA RESULT:      -6.6      9.002     10.554
REMARK  Name = *****
REMARK                            x       y       z     vdW  Elec       q    Type
REMARK                         _______ _______ _______ _____ _____    ______ ____
ROOT
ATOM      1  C   LIG    1       26.256 -29.976  12.296  0.00  0.00    +0.265 C 
ATOM      2  N   LIG    1       25.998 -30.181  10.956  0.00  0.00    -0.307 N 
ATOM      3  H   LIG    1       25.636 -29.366  10.467  0.00  0.00    +0.149 HD
ATOM      4  O   LIG    1       26.815 -30.800  13.015  0.00  0.00    -0.268 OA
ENDROOT
BRANCH   1  12
ATOM      5  C   LIG    1       26.465 -25.448  13.990  0.00  0.00    +0.173 C 
ATOM      6  N   LIG    1       25.866 -26.675  13.524  0.00  0.00    -0.266 N 
ATOM      7  C   LIG    1       24.525 -26.916  13.362  0.00  0.00    +0.069 A 
ATOM      8  C   LIG    1       24.446 -28.217  12.874  0.00  0.00    +0.032 A 
ATOM      9  C   LIG    1       23.180 -28.773  12.606  0.00  0.00    +0.012 A 
ATOM     10  C   LIG    1       22.034 -28.007  12.846  0.00  0.00    +0.001 A 
ATOM     11  C   LIG    1       22.140 -26.706  13.329  0.00  0.00    +0.002 A 
ATOM     12  C   LIG    1       25.795 -28.665  12.780  0.00  0.00    +0.155 A 
ATOM     13  C   LIG    1       23.387 -26.130  13.593  0.00  0.00    +0.028 A 
ATOM     14  N   LIG    1       26.661 -27.715  13.200  0.00  0.00    -0.166 NA
ENDBRANCH   1  12
BRANCH   2  15
ATOM     15  C   LIG    1       26.356 -31.395  10.242  0.00  0.00    +0.076 C 
ATOM     16  C   LIG    1       25.345 -32.535  10.445  0.00  0.00    +0.041 C 
ATOM     17  C   LIG    1       24.217 -32.603   9.407  0.00  0.00    +0.058 C 
ATOM     18  N   LIG    1       24.839 -32.632   8.078  0.00  0.00    -0.299 NA
ATOM     19  C   LIG    1       23.927 -33.094   7.035  0.00  0.00    +0.105 C 
ATOM     20  C   LIG    1       25.454 -31.332   7.792  0.00  0.00    +0.058 C 
ATOM     21  C   LIG    1       24.438 -30.179   7.793  0.00  0.00    +0.019 C 
ATOM     22  C   LIG    1       23.522 -30.132   9.011  0.00  0.00    +0.003 C 
ATOM     23  C   LIG    1       23.146 -31.505   9.555  0.00  0.00    +0.019 C 
ATOM     24  C   LIG    1       26.643 -31.127   8.756  0.00  0.00    +0.041 C 
ENDBRANCH   2  15
TORSDOF 2
ENDMDL
MODEL 8
REMARK VINA RESULT:      -6.4      9.584     11.013
REMARK  Name = *****
REMARK                            x       y       z     vdW  Elec       q    Type
REMARK                         _______ _______ _______ _____ _____    ______ ____
ROOT
ATOM      1  C   LIG    1       22.765 -30.620  11.954  0.00  0.00    +0.265 C 
ATOM      2  N   LIG    1       23.390 -30.681  10.726  0.00  0.00    -0.307 N 
ATOM      3  H   LIG    1       23.675 -29.778  10.353  0.00  0.00    +0.149 HD
ATOM      4  O   LIG    1       22.469 -31.611  12.616  0.00  0.00    -0.268 OA
ENDROOT
BRANCH   1  12
ATOM      5  C   LIG    1       20.236 -26.681  13.182  0.00  0.00    +0.173 C 
ATOM      6  N   LIG    1       21.397 -27.504  12.940  0.00  0.00    -0.266 N 
ATOM      7  C   LIG    1       22.705 -27.144  13.140  0.00  0.00    +0.069 A 
ATOM      8  C   LIG    1       23.449 -28.268  12.792  0.00  0.00    +0.032 A 
ATOM      9  C   LIG    1       24.853 -28.216  12.883  0.00  0.00    +0.012 A 
ATOM     10  C   LIG    1       25.466 -27.034  13.314  0.00  0.00    +0.001 A 
ATOM     11  C   LIG    1       24.700 -25.926  13.663  0.00  0.00    +0.002 A 
ATOM     12  C   LIG    1       22.489 -29.244  12.396  0.00  0.00    +0.155 A 
ATOM     13  C   LIG    1       23.303 -25.957  13.589  0.00  0.00    +0.028 A 
ATOM     14  N   LIG    1       21.230 -28.758  12.474  0.00  0.00    -0.166 NA
ENDBRANCH   1  12
BRANCH   2  15
ATOM     15  C   LIG    1       23.768 -31.923  10.073  0.00  0.00    +0.076 C 
ATOM     16  C   LIG    1       23.432 -31.944   8.573  0.00  0.00    +0.041 C 
ATOM     17  C   LIG    1       24.551 -31.454   7.644  0.00  0.00    +0.058 C 
ATOM     18  N   LIG    1       25.759 -32.225   7.962  0.00  0.00    -0.299 NA
ATOM     19  C   LIG    1       26.769 -32.153   6.910  0.00  0.00    +0.105 C 
ATOM     20  C   LIG    1       26.257 -31.841   9.286  0.00  0.00    +0.058 C 
ATOM     21  C   LIG    1       26.631 -30.352   9.374  0.00  0.00    +0.019 C 
ATOM     22  C   LIG    1       25.568 -29.392   8.852  0.00  0.00    +0.003 C 
ATOM     23  C   LIG    1       24.777 -29.929   7.666  0.00  0.00    +0.019 C 
ATOM     24  C   LIG    1       25.233 -32.297  10.348  0.00  0.00    +0.041 C 
ENDBRANCH   2  15
TORSDOF 2
ENDMDL
MODEL 9
REMARK VINA RESULT:      -6.4      8.379     11.043
REMARK  Name = *****
REMARK                            x       y       z     vdW  Elec       q    Type
REMARK                         _______ _______ _______ _____ _____    ______ ____
ROOT
ATOM      1  C   LIG    1       23.754 -30.271   9.450  0.00  0.00    +0.265 C 
ATOM      2  N   LIG    1       24.743 -30.048  10.387  0.00  0.00    -0.307 N 
ATOM      3  H   LIG    1       25.636 -29.760   9.996  0.00  0.00    +0.149 HD
ATOM      4  O   LIG    1       22.583 -30.498   9.740  0.00  0.00    -0.268 OA
ENDROOT
BRANCH   1  12
ATOM      5  C   LIG    1       24.601 -28.500   5.027  0.00  0.00    +0.173 C 
ATOM      6  N   LIG    1       24.627 -29.445   6.117  0.00  0.00    -0.266 N 
ATOM      7  C   LIG    1       25.249 -30.668   6.118  0.00  0.00    +0.069 A 
ATOM      8  C   LIG    1       25.015 -31.193   7.386  0.00  0.00    +0.032 A 
ATOM      9  C   LIG    1       25.528 -32.465   7.707  0.00  0.00    +0.012 A 
ATOM     10  C   LIG    1       26.250 -33.173   6.740  0.00  0.00    +0.001 A 
ATOM     11  C   LIG    1       26.476 -32.624   5.481  0.00  0.00    +0.002 A 
ATOM     12  C   LIG    1       24.244 -30.206   8.065  0.00  0.00    +0.155 A 
ATOM     13  C   LIG    1       25.985 -31.357   5.144  0.00  0.00    +0.028 A 
ATOM     14  N   LIG    1       23.995 -29.141   7.269  0.00  0.00    -0.166 NA
ENDBRANCH   1  12
BRANCH   2  15
ATOM     15  C   LIG    1       24.512 -30.060  11.822  0.00  0.00    +0.076 C 
ATOM     16  C   LIG    1       25.580 -30.846  12.599  0.00  0.00    +0.041 C 
ATOM     17  C   LIG    1       26.775 -30.019  13.090  0.00  0.00    +0.058 C 
ATOM     18  N   LIG    1       26.243 -28.884  13.855  0.00  0.00    -0.299 NA
ATOM     19  C   LIG    1       27.249 -28.253  14.705  0.00  0.00    +0.105 C 
ATOM     20  C   LIG    1       25.565 -27.952  12.949  0.00  0.00    +0.058 C 
ATOM     21  C   LIG    1       26.501 -27.378  11.875  0.00  0.00    +0.019 C 
ATOM     22  C   LIG    1       27.331 -28.414  11.126  0.00  0.00    +0.003 C 
ATOM     23  C   LIG    1       27.760 -29.599  11.982  0.00  0.00    +0.019 C 
ATOM     24  C   LIG    1       24.306 -28.644  12.384  0.00  0.00    +0.041 C 
ENDBRANCH   2  15
TORSDOF 2
ENDMDL
