MODEL 1
REMARK VINA RESULT:       0.9      0.000      0.000
REMARK  Name = *****
REMARK                            x       y       z     vdW  Elec       q    Type
REMARK                         _______ _______ _______ _____ _____    ______ ____
ROOT
ATOM      1  C   LIG    1       24.215 -19.508   3.693  0.00  0.00    -0.021 C 
ATOM      2  C   LIG    1       25.138 -18.638   2.863  0.00  0.00    +0.104 C 
ATOM      3  S   LIG    1       25.121 -16.894   3.348  0.00  0.00    -0.131 S 
ATOM      4  C   LIG    1       23.314 -16.760   3.290  0.00  0.00    +0.169 C 
ATOM      5  N   LIG    1       22.716 -17.733   4.212  0.00  0.00    -0.249 N 
ATOM      6  C   LIG    1       22.469 -16.827   5.185  0.00  0.00    +0.244 C 
ATOM      7  O   LIG    1       22.227 -16.983   6.361  0.00  0.00    -0.273 OA
ATOM      8  CA  LIG    1       22.685 -15.652   4.191  0.00  0.00    +0.191 C 
ATOM      9  CA  LIG    1       23.103 -19.048   4.339  0.00  0.00    +0.123 C 
ENDROOT
BRANCH   8  10
ATOM     10  N   LIG    1       23.559 -14.529   4.653  0.00  0.00    -0.300 N 
ATOM     11  H   LIG    1       23.920 -14.533   5.605  0.00  0.00    +0.150 HD
ATOM     12  C   LIG    1       23.931 -13.523   3.786  0.00  0.00    +0.235 C 
ATOM     13  O   LIG    1       23.581 -13.519   2.607  0.00  0.00    -0.274 OA
BRANCH  12  14
ATOM     14  C   LIG    1       24.825 -12.448   4.350  0.00  0.00    +0.242 C 
BRANCH  14  15
ATOM     15  N   LIG    1       26.201 -12.869   4.423  0.00  0.00    -0.223 N 
ATOM     16  N   LIG    1       26.940 -12.943   3.303  0.00  0.00    -0.044 NA
ATOM     17  N   LIG    1       28.139 -13.337   3.709  0.00  0.00    -0.023 NA
ATOM     18  N   LIG    1       28.162 -13.522   5.070  0.00  0.00    -0.117 NA
ATOM     19  C   LIG    1       26.949 -13.245   5.491  0.00  0.00    +0.245 A 
ENDBRANCH  14  15
ENDBRANCH  12  14
ENDBRANCH   8  10
BRANCH   9  20
ATOM     20  C   LIG    1       22.212 -19.990   5.124  0.00  0.00    +0.351 C 
ATOM     21  O   LIG    1       21.274 -20.596   4.636  0.00  0.00    -0.244 OA
BRANCH  20  22
ATOM     22  OXT LIG    1       22.444 -20.054   6.450  0.00  0.00    -0.476 OA
ATOM     23  HXT LIG    1       21.667 -20.262   7.015  0.00  0.00    +0.295 HD
ENDBRANCH  20  22
ENDBRANCH   9  20
BRANCH   1  24
ATOM     24  C   LIG    1       24.682 -20.955   3.725  0.00  0.00    +0.110 C 
BRANCH  24  25
ATOM     25  S   LIG    1       24.718 -21.572   5.430  0.00  0.00    -0.092 S 
BRANCH  25  29
ATOM     26  C   LIG    1       29.475 -18.904   6.257  0.00  0.00    +0.075 C 
ATOM     27  C   LIG    1       28.340 -19.860   6.263  0.00  0.00    +0.100 A 
ATOM     28  S   LIG    1       27.025 -19.643   5.183  0.00  0.00    -0.044 S 
ATOM     29  C   LIG    1       26.293 -21.001   5.922  0.00  0.00    +0.159 A 
ATOM     30  N   LIG    1       27.024 -21.570   6.856  0.00  0.00    -0.135 NA
ATOM     31  N   LIG    1       28.219 -20.899   7.062  0.00  0.00    -0.146 NA
ENDBRANCH  25  29
ENDBRANCH  24  25
ENDBRANCH   1  24
TORSDOF 8
ENDMDL
MODEL 2
REMARK VINA RESULT:       2.2      3.035      7.143
REMARK  Name = *****
REMARK                            x       y       z     vdW  Elec       q    Type
REMARK                         _______ _______ _______ _____ _____    ______ ____
ROOT
ATOM      1  C   LIG    1       27.667 -17.783   4.289  0.00  0.00    -0.021 C 
ATOM      2  C   LIG    1       26.520 -17.522   3.333  0.00  0.00    +0.104 C 
ATOM      3  S   LIG    1       25.007 -18.423   3.752  0.00  0.00    -0.131 S 
ATOM      4  C   LIG    1       25.843 -20.026   3.885  0.00  0.00    +0.169 C 
ATOM      5  N   LIG    1       26.899 -19.951   4.901  0.00  0.00    -0.249 N 
ATOM      6  C   LIG    1       26.174 -20.569   5.862  0.00  0.00    +0.244 C 
ATOM      7  O   LIG    1       26.328 -20.606   7.062  0.00  0.00    -0.273 OA
ATOM      8  CA  LIG    1       25.153 -21.079   4.808  0.00  0.00    +0.191 C 
ATOM      9  CA  LIG    1       27.800 -18.920   5.034  0.00  0.00    +0.123 C 
ENDROOT
BRANCH   8  10
ATOM     10  N   LIG    1       23.702 -20.900   5.130  0.00  0.00    -0.300 N 
ATOM     11  H   LIG    1       23.428 -20.639   6.075  0.00  0.00    +0.150 HD
ATOM     12  C   LIG    1       22.741 -21.024   4.149  0.00  0.00    +0.235 C 
ATOM     13  O   LIG    1       23.035 -21.262   2.979  0.00  0.00    -0.274 OA
BRANCH  12  14
ATOM     14  C   LIG    1       21.312 -20.810   4.579  0.00  0.00    +0.242 C 
BRANCH  14  15
ATOM     15  N   LIG    1       20.713 -19.674   3.926  0.00  0.00    -0.223 N 
ATOM     16  N   LIG    1       21.452 -18.581   3.671  0.00  0.00    -0.044 NA
ATOM     17  N   LIG    1       20.625 -17.743   3.060  0.00  0.00    -0.023 NA
ATOM     18  N   LIG    1       19.372 -18.292   2.935  0.00  0.00    -0.117 NA
ATOM     19  C   LIG    1       19.442 -19.479   3.492  0.00  0.00    +0.245 A 
ENDBRANCH  14  15
ENDBRANCH  12  14
ENDBRANCH   8  10
BRANCH   9  20
ATOM     20  C   LIG    1       28.996 -19.118   5.946  0.00  0.00    +0.351 C 
ATOM     21  O   LIG    1       29.475 -20.209   6.203  0.00  0.00    -0.244 OA
BRANCH  20  22
ATOM     22  OXT LIG    1       29.460 -18.013   6.561  0.00  0.00    -0.476 OA
ATOM     23  HXT LIG    1       30.125 -17.489   6.063  0.00  0.00    +0.295 HD
ENDBRANCH  20  22
ENDBRANCH   9  20
BRANCH   1  24
ATOM     24  C   LIG    1       28.647 -16.620   4.324  0.00  0.00    +0.110 C 
BRANCH  24  25
ATOM     25  S   LIG    1       27.930 -15.213   5.214  0.00  0.00    -0.092 S 
BRANCH  25  29
ATOM     26  C   LIG    1       24.592 -12.246   1.977  0.00  0.00    +0.075 C 
ATOM     27  C   LIG    1       25.575 -13.205   2.537  0.00  0.00    +0.100 A 
ATOM     28  S   LIG    1       25.778 -13.339   4.235  0.00  0.00    -0.044 S 
ATOM     29  C   LIG    1       27.020 -14.472   3.921  0.00  0.00    +0.159 A 
ATOM     30  N   LIG    1       27.202 -14.738   2.645  0.00  0.00    -0.135 NA
ATOM     31  N   LIG    1       26.362 -13.993   1.834  0.00  0.00    -0.146 NA
ENDBRANCH  25  29
ENDBRANCH  24  25
ENDBRANCH   1  24
TORSDOF 8
ENDMDL
