MODEL 1
REMARK VINA RESULT:      -1.0      0.000      0.000
REMARK  Name = *****
REMARK                            x       y       z     vdW  Elec       q    Type
REMARK                         _______ _______ _______ _____ _____    ______ ____
ROOT
ATOM      1  C   LIG    1       23.192 -20.474   4.681  0.00  0.00    +0.159 C 
ENDROOT
BRANCH   1   2
ATOM      2  C   LIG    1       24.549 -19.820   4.462  0.00  0.00    -0.009 A 
ATOM      3  C   LIG    1       25.707 -20.188   5.189  0.00  0.00    +0.008 A 
ATOM      4  C   LIG    1       26.929 -19.541   4.909  0.00  0.00    +0.091 A 
ATOM      5  N   LIG    1       28.102 -19.930   5.578  0.00  0.00    -0.319 N 
ATOM      6  H   LIG    1       28.966 -19.455   5.332  0.00  0.00    +0.169 HD
ATOM      7  C   LIG    1       28.159 -20.933   6.496  0.00  0.00    +0.249 C 
ATOM      8  C   LIG    1       26.875 -21.572   6.842  0.00  0.00    +0.071 C 
ATOM      9  O   LIG    1       29.210 -21.300   7.032  0.00  0.00    -0.268 OA
ATOM     10  C   LIG    1       27.014 -18.524   3.957  0.00  0.00    +0.141 A 
ATOM     11  C   LIG    1       25.889 -18.146   3.246  0.00  0.00    +0.048 A 
ATOM     12  C   LIG    1       25.724 -21.215   6.243  0.00  0.00    +0.015 C 
ATOM     13  C   LIG    1       24.675 -18.799   3.488  0.00  0.00    +0.010 A 
BRANCH  10  14
ATOM     14  O   LIG    1       28.226 -17.924   3.738  0.00  0.00    -0.505 OA
ATOM     15  H   LIG    1       28.321 -17.753   2.786  0.00  0.00    +0.292 HD
ENDBRANCH  10  14
ENDBRANCH   1   2
BRANCH   1  16
ATOM     16  O   LIG    1       22.916 -20.581   6.087  0.00  0.00    -0.386 OA
ATOM     17  H   LIG    1       23.046 -19.675   6.435  0.00  0.00    +0.210 HD
ENDBRANCH   1  16
BRANCH   1  18
ATOM     18  C   LIG    1       22.009 -19.721   4.005  0.00  0.00    +0.117 C 
BRANCH  18  19
ATOM     19  N   LIG    1       21.500 -18.645   4.897  0.00  0.00    -0.310 NA
ATOM     20  H   LIG    1       20.478 -18.652   4.874  0.00  0.00    +0.122 HD
BRANCH  19  26
ATOM     21  C   LIG    1       24.145 -13.168   4.758  0.00  0.00    -0.044 A 
ATOM     22  C   LIG    1       24.866 -13.738   3.671  0.00  0.00    -0.044 A 
ATOM     23  C   LIG    1       24.653 -15.086   3.321  0.00  0.00    +0.007 A 
ATOM     24  C   LIG    1       23.720 -15.832   4.015  0.00  0.00    -0.042 A 
ATOM     25  C   LIG    1       23.345 -17.265   3.797  0.00  0.00    +0.054 C 
ATOM     26  C   LIG    1       21.953 -17.307   4.471  0.00  0.00    +0.062 C 
ATOM     27  C   LIG    1       22.059 -16.295   5.648  0.00  0.00    +0.054 C 
ATOM     28  C   LIG    1       22.996 -15.276   5.068  0.00  0.00    -0.042 A 
ATOM     29  C   LIG    1       23.208 -13.963   5.457  0.00  0.00    +0.007 A 
BRANCH  21  31
ATOM     30  C   LIG    1       23.745 -11.450   6.605  0.00  0.00    +0.009 C 
ATOM     31  C   LIG    1       24.336 -11.739   5.231  0.00  0.00    +0.032 C 
ENDBRANCH  21  31
BRANCH  22  32
ATOM     32  C   LIG    1       25.842 -12.966   2.812  0.00  0.00    +0.032 C 
ATOM     33  C   LIG    1       27.130 -13.745   2.589  0.00  0.00    +0.009 C 
ENDBRANCH  22  32
ENDBRANCH  19  26
ENDBRANCH  18  19
ENDBRANCH   1  18
TORSDOF 8
ENDMDL
MODEL 2
REMARK VINA RESULT:      -0.8      1.006      3.116
REMARK  Name = *****
REMARK                            x       y       z     vdW  Elec       q    Type
REMARK                         _______ _______ _______ _____ _____    ______ ____
ROOT
ATOM      1  C   LIG    1       22.821 -20.253   3.968  0.00  0.00    +0.159 C 
ENDROOT
BRANCH   1   2
ATOM      2  C   LIG    1       24.108 -20.423   4.765  0.00  0.00    -0.009 A 
ATOM      3  C   LIG    1       25.285 -19.686   4.491  0.00  0.00    +0.008 A 
ATOM      4  C   LIG    1       26.427 -19.893   5.293  0.00  0.00    +0.091 A 
ATOM      5  N   LIG    1       27.588 -19.132   5.076  0.00  0.00    -0.319 N 
ATOM      6  H   LIG    1       28.383 -19.296   5.688  0.00  0.00    +0.169 HD
ATOM      7  C   LIG    1       27.696 -18.159   4.131  0.00  0.00    +0.249 C 
ATOM      8  C   LIG    1       26.528 -17.978   3.248  0.00  0.00    +0.071 C 
ATOM      9  O   LIG    1       28.704 -17.459   3.993  0.00  0.00    -0.268 OA
ATOM     10  C   LIG    1       26.434 -20.833   6.324  0.00  0.00    +0.141 A 
ATOM     11  C   LIG    1       25.294 -21.570   6.596  0.00  0.00    +0.048 A 
ATOM     12  C   LIG    1       25.404 -18.701   3.404  0.00  0.00    +0.015 C 
ATOM     13  C   LIG    1       24.141 -21.354   5.833  0.00  0.00    +0.010 A 
BRANCH  10  14
ATOM     14  O   LIG    1       27.578 -21.000   7.059  0.00  0.00    -0.505 OA
ATOM     15  H   LIG    1       27.456 -21.755   7.658  0.00  0.00    +0.292 HD
ENDBRANCH  10  14
ENDBRANCH   1   2
BRANCH   1  16
ATOM     16  O   LIG    1       22.317 -21.537   3.565  0.00  0.00    -0.386 OA
ATOM     17  H   LIG    1       23.112 -22.099   3.476  0.00  0.00    +0.210 HD
ENDBRANCH   1  16
BRANCH   1  18
ATOM     18  C   LIG    1       21.695 -19.503   4.737  0.00  0.00    +0.117 C 
BRANCH  18  19
ATOM     19  N   LIG    1       21.411 -18.191   4.094  0.00  0.00    -0.310 NA
ATOM     20  H   LIG    1       21.450 -18.304   3.079  0.00  0.00    +0.122 HD
BRANCH  19  26
ATOM     21  C   LIG    1       25.532 -13.720   3.870  0.00  0.00    -0.044 A 
ATOM     22  C   LIG    1       24.536 -13.005   4.594  0.00  0.00    -0.044 A 
ATOM     23  C   LIG    1       23.294 -13.613   4.864  0.00  0.00    +0.007 A 
ATOM     24  C   LIG    1       23.068 -14.912   4.452  0.00  0.00    -0.042 A 
ATOM     25  C   LIG    1       21.830 -15.733   4.643  0.00  0.00    +0.054 C 
ATOM     26  C   LIG    1       22.399 -17.162   4.472  0.00  0.00    +0.062 C 
ATOM     27  C   LIG    1       23.544 -17.003   3.430  0.00  0.00    +0.054 C 
ATOM     28  C   LIG    1       24.043 -15.627   3.760  0.00  0.00    -0.042 A 
ATOM     29  C   LIG    1       25.262 -15.043   3.451  0.00  0.00    +0.007 A 
BRANCH  21  31
ATOM     30  C   LIG    1       28.034 -14.127   3.566  0.00  0.00    +0.009 C 
ATOM     31  C   LIG    1       26.881 -13.134   3.501  0.00  0.00    +0.032 C 
ENDBRANCH  21  31
BRANCH  22  32
ATOM     32  C   LIG    1       24.737 -11.612   5.148  0.00  0.00    +0.032 C 
ATOM     33  C   LIG    1       24.133 -11.469   6.538  0.00  0.00    +0.009 C 
ENDBRANCH  22  32
ENDBRANCH  19  26
ENDBRANCH  18  19
ENDBRANCH   1  18
TORSDOF 8
ENDMDL
MODEL 3
REMARK VINA RESULT:       1.9      1.735      3.464
REMARK  Name = *****
REMARK                            x       y       z     vdW  Elec       q    Type
REMARK                         _______ _______ _______ _____ _____    ______ ____
ROOT
ATOM      1  C   LIG    1       21.962 -18.812   4.048  0.00  0.00    +0.159 C 
ENDROOT
BRANCH   1   2
ATOM      2  C   LIG    1       23.066 -19.525   4.818  0.00  0.00    -0.009 A 
ATOM      3  C   LIG    1       24.442 -19.275   4.599  0.00  0.00    +0.008 A 
ATOM      4  C   LIG    1       25.397 -19.969   5.370  0.00  0.00    +0.091 A 
ATOM      5  N   LIG    1       26.767 -19.694   5.210  0.00  0.00    -0.319 N 
ATOM      6  H   LIG    1       27.422 -20.199   5.799  0.00  0.00    +0.169 HD
ATOM      7  C   LIG    1       27.261 -18.762   4.350  0.00  0.00    +0.249 C 
ATOM      8  C   LIG    1       26.274 -18.077   3.495  0.00  0.00    +0.071 C 
ATOM      9  O   LIG    1       28.464 -18.494   4.264  0.00  0.00    -0.268 OA
ATOM     10  C   LIG    1       25.019 -20.920   6.317  0.00  0.00    +0.141 A 
ATOM     11  C   LIG    1       23.677 -21.184   6.535  0.00  0.00    +0.048 A 
ATOM     12  C   LIG    1       24.955 -18.326   3.598  0.00  0.00    +0.015 C 
ATOM     13  C   LIG    1       22.714 -20.482   5.802  0.00  0.00    +0.010 A 
BRANCH  10  14
ATOM     14  O   LIG    1       25.993 -21.572   7.027  0.00  0.00    -0.505 OA
ATOM     15  H   LIG    1       26.478 -20.920   7.560  0.00  0.00    +0.292 HD
ENDBRANCH  10  14
ENDBRANCH   1   2
BRANCH   1  16
ATOM     16  O   LIG    1       20.928 -19.743   3.690  0.00  0.00    -0.386 OA
ATOM     17  H   LIG    1       21.353 -20.353   3.055  0.00  0.00    +0.210 HD
ENDBRANCH   1  16
BRANCH   1  18
ATOM     18  C   LIG    1       21.311 -17.630   4.825  0.00  0.00    +0.117 C 
BRANCH  18  19
ATOM     19  N   LIG    1       21.610 -16.338   4.152  0.00  0.00    -0.310 NA
ATOM     20  H   LIG    1       21.440 -16.439   3.150  0.00  0.00    +0.122 HD
BRANCH  19  26
ATOM     21  C   LIG    1       26.933 -13.431   3.667  0.00  0.00    -0.044 A 
ATOM     22  C   LIG    1       26.686 -13.118   5.034  0.00  0.00    -0.044 A 
ATOM     23  C   LIG    1       25.484 -13.532   5.641  0.00  0.00    +0.007 A 
ATOM     24  C   LIG    1       24.571 -14.269   4.911  0.00  0.00    -0.042 A 
ATOM     25  C   LIG    1       23.250 -14.805   5.369  0.00  0.00    +0.054 C 
ATOM     26  C   LIG    1       23.017 -15.929   4.332  0.00  0.00    +0.062 C 
ATOM     27  C   LIG    1       23.669 -15.394   3.024  0.00  0.00    +0.054 C 
ATOM     28  C   LIG    1       24.813 -14.597   3.579  0.00  0.00    -0.042 A 
ATOM     29  C   LIG    1       25.972 -14.175   2.946  0.00  0.00    +0.007 A 
BRANCH  21  31
ATOM     30  C   LIG    1       29.473 -13.597   3.455  0.00  0.00    +0.009 C 
ATOM     31  C   LIG    1       28.180 -12.995   2.920  0.00  0.00    +0.032 C 
ENDBRANCH  21  31
BRANCH  22  32
ATOM     32  C   LIG    1       27.670 -12.386   5.920  0.00  0.00    +0.032 C 
ATOM     33  C   LIG    1       28.829 -11.814   5.116  0.00  0.00    +0.009 C 
ENDBRANCH  22  32
ENDBRANCH  19  26
ENDBRANCH  18  19
ENDBRANCH   1  18
TORSDOF 8
ENDMDL
