MODEL 1
REMARK VINA RESULT:      -3.9      0.000      0.000
REMARK  Name = *****
REMARK                            x       y       z     vdW  Elec       q    Type
REMARK                         _______ _______ _______ _____ _____    ______ ____
ROOT
ATOM      1  C   LIG    1       24.454 -16.622   3.953  0.00  0.00    +0.061 C 
ATOM      2  C   LIG    1       23.115 -17.411   4.066  0.00  0.00    +0.054 C 
ATOM      3  C   LIG    1       23.221 -18.871   4.465  0.00  0.00    -0.039 A 
ATOM      4  C   LIG    1       24.457 -19.537   4.529  0.00  0.00    -0.003 A 
ATOM      5  C   LIG    1       24.479 -20.872   4.964  0.00  0.00    +0.120 A 
ATOM      6  C   LIG    1       23.302 -21.568   5.231  0.00  0.00    +0.045 A 
ATOM      7  C   LIG    1       22.076 -20.927   5.100  0.00  0.00    +0.004 A 
ATOM      8  C   LIG    1       25.709 -18.808   4.120  0.00  0.00    +0.041 C 
ATOM      9  C   LIG    1       22.037 -19.582   4.735  0.00  0.00    +0.004 A 
ATOM     10  C   LIG    1       25.430 -17.584   3.232  0.00  0.00    +0.024 C 
ENDROOT
BRANCH   5  11
ATOM     11  O   LIG    1       25.639 -21.572   5.148  0.00  0.00    -0.506 OA
ATOM     12  H   LIG    1       26.250 -21.028   5.671  0.00  0.00    +0.292 HD
ENDBRANCH   5  11
BRANCH   1  13
ATOM     13  N   LIG    1       24.314 -15.249   3.310  0.00  0.00    -0.299 NA
BRANCH  13  14
ATOM     14  C   LIG    1       23.925 -14.228   4.324  0.00  0.00    +0.084 C 
BRANCH  14  16
ATOM     15  C   LIG    1       23.951 -11.875   5.165  0.00  0.00    +0.005 C 
ATOM     16  C   LIG    1       24.048 -12.754   3.920  0.00  0.00    +0.012 C 
ENDBRANCH  14  16
ENDBRANCH  13  14
BRANCH  13  17
ATOM     17  C   LIG    1       25.636 -14.817   2.739  0.00  0.00    +0.090 C 
BRANCH  17  18
ATOM     18  C   LIG    1       26.925 -15.242   3.500  0.00  0.00    +0.058 C 
BRANCH  18  19
ATOM     19  C   LIG    1       27.674 -14.031   3.997  0.00  0.00    -0.009 A 
ATOM     20  S   LIG    1       27.424 -13.457   5.597  0.00  0.00    -0.102 S 
ATOM     21  C   LIG    1       28.562 -12.199   5.400  0.00  0.00    +0.045 A 
ATOM     22  C   LIG    1       29.114 -12.200   4.129  0.00  0.00    +0.008 A 
ATOM     23  C   LIG    1       28.590 -13.253   3.327  0.00  0.00    +0.011 A 
ENDBRANCH  18  19
ENDBRANCH  17  18
ENDBRANCH  13  17
ENDBRANCH   1  13
TORSDOF 7
ENDMDL
MODEL 2
REMARK VINA RESULT:      -3.7      3.394      7.391
REMARK  Name = *****
REMARK                            x       y       z     vdW  Elec       q    Type
REMARK                         _______ _______ _______ _____ _____    ______ ____
ROOT
ATOM      1  C   LIG    1       27.121 -17.534   4.501  0.00  0.00    +0.061 C 
ATOM      2  C   LIG    1       28.064 -16.314   4.277  0.00  0.00    +0.054 C 
ATOM      3  C   LIG    1       27.408 -15.029   3.806  0.00  0.00    -0.039 A 
ATOM      4  C   LIG    1       26.066 -14.988   3.393  0.00  0.00    -0.003 A 
ATOM      5  C   LIG    1       25.515 -13.749   3.026  0.00  0.00    +0.120 A 
ATOM      6  C   LIG    1       26.293 -12.596   2.968  0.00  0.00    +0.045 A 
ATOM      7  C   LIG    1       27.639 -12.654   3.311  0.00  0.00    +0.004 A 
ATOM      8  C   LIG    1       25.269 -16.264   3.344  0.00  0.00    +0.041 C 
ATOM      9  C   LIG    1       28.189 -13.861   3.742  0.00  0.00    +0.004 A 
ATOM     10  C   LIG    1       26.152 -17.522   3.294  0.00  0.00    +0.024 C 
ENDROOT
BRANCH   5  11
ATOM     11  O   LIG    1       24.195 -13.593   2.701  0.00  0.00    -0.506 OA
ATOM     12  H   LIG    1       23.654 -13.973   3.411  0.00  0.00    +0.292 HD
ENDBRANCH   5  11
BRANCH   1  13
ATOM     13  N   LIG    1       27.851 -18.851   4.725  0.00  0.00    -0.299 NA
BRANCH  13  14
ATOM     14  C   LIG    1       29.111 -18.633   5.493  0.00  0.00    +0.084 C 
BRANCH  14  16
ATOM     15  C   LIG    1       29.474 -20.605   6.983  0.00  0.00    +0.005 C 
ATOM     16  C   LIG    1       29.139 -19.116   6.948  0.00  0.00    +0.012 C 
ENDBRANCH  14  16
ENDBRANCH  13  14
BRANCH  13  17
ATOM     17  C   LIG    1       26.995 -19.776   5.544  0.00  0.00    +0.090 C 
BRANCH  17  18
ATOM     18  C   LIG    1       26.061 -20.760   4.783  0.00  0.00    +0.058 C 
BRANCH  18  19
ATOM     19  C   LIG    1       24.617 -20.359   4.947  0.00  0.00    -0.009 A 
ATOM     20  S   LIG    1       23.751 -20.803   6.363  0.00  0.00    -0.102 S 
ATOM     21  C   LIG    1       22.333 -20.011   5.831  0.00  0.00    +0.045 A 
ATOM     22  C   LIG    1       22.506 -19.432   4.585  0.00  0.00    +0.008 A 
ATOM     23  C   LIG    1       23.821 -19.644   4.081  0.00  0.00    +0.011 A 
ENDBRANCH  18  19
ENDBRANCH  17  18
ENDBRANCH  13  17
ENDBRANCH   1  13
TORSDOF 7
ENDMDL
MODEL 3
REMARK VINA RESULT:      -3.6      2.988      6.896
REMARK  Name = *****
REMARK                            x       y       z     vdW  Elec       q    Type
REMARK                         _______ _______ _______ _____ _____    ______ ____
ROOT
ATOM      1  C   LIG    1       23.918 -17.298   4.521  0.00  0.00    +0.061 C 
ATOM      2  C   LIG    1       25.123 -16.872   3.630  0.00  0.00    +0.054 C 
ATOM      3  C   LIG    1       25.353 -15.381   3.469  0.00  0.00    -0.039 A 
ATOM      4  C   LIG    1       24.419 -14.432   3.920  0.00  0.00    -0.003 A 
ATOM      5  C   LIG    1       24.731 -13.069   3.788  0.00  0.00    +0.120 A 
ATOM      6  C   LIG    1       25.886 -12.648   3.134  0.00  0.00    +0.045 A 
ATOM      7  C   LIG    1       26.774 -13.589   2.627  0.00  0.00    +0.004 A 
ATOM      8  C   LIG    1       23.119 -14.902   4.515  0.00  0.00    +0.041 C 
ATOM      9  C   LIG    1       26.516 -14.948   2.807  0.00  0.00    +0.004 A 
ATOM     10  C   LIG    1       22.765 -16.346   4.122  0.00  0.00    +0.024 C 
ENDROOT
BRANCH   5  11
ATOM     11  O   LIG    1       23.930 -12.076   4.281  0.00  0.00    -0.506 OA
ATOM     12  H   LIG    1       24.488 -11.424   4.734  0.00  0.00    +0.292 HD
ENDBRANCH   5  11
BRANCH   1  13
ATOM     13  N   LIG    1       23.581 -18.781   4.443  0.00  0.00    -0.299 NA
BRANCH  13  14
ATOM     14  C   LIG    1       22.121 -18.981   4.219  0.00  0.00    +0.084 C 
BRANCH  14  16
ATOM     15  C   LIG    1       22.277 -20.971   5.722  0.00  0.00    +0.005 C 
ATOM     16  C   LIG    1       21.547 -20.370   4.522  0.00  0.00    +0.012 C 
ENDBRANCH  14  16
ENDBRANCH  13  14
BRANCH  13  17
ATOM     17  C   LIG    1       24.292 -19.405   3.275  0.00  0.00    +0.090 C 
BRANCH  17  18
ATOM     18  C   LIG    1       25.012 -20.765   3.509  0.00  0.00    +0.058 C 
BRANCH  18  19
ATOM     19  C   LIG    1       25.712 -20.774   4.844  0.00  0.00    -0.009 A 
ATOM     20  S   LIG    1       27.088 -19.779   5.107  0.00  0.00    -0.102 S 
ATOM     21  C   LIG    1       27.246 -20.302   6.725  0.00  0.00    +0.045 A 
ATOM     22  C   LIG    1       26.279 -21.235   7.061  0.00  0.00    +0.008 A 
ATOM     23  C   LIG    1       25.406 -21.506   5.968  0.00  0.00    +0.011 A 
ENDBRANCH  18  19
ENDBRANCH  17  18
ENDBRANCH  13  17
ENDBRANCH   1  13
TORSDOF 7
ENDMDL
MODEL 4
REMARK VINA RESULT:      -3.2      3.473      7.352
REMARK  Name = *****
REMARK                            x       y       z     vdW  Elec       q    Type
REMARK                         _______ _______ _______ _____ _____    ______ ____
ROOT
ATOM      1  C   LIG    1       27.041 -16.945   3.545  0.00  0.00    +0.061 C 
ATOM      2  C   LIG    1       25.567 -16.529   3.831  0.00  0.00    +0.054 C 
ATOM      3  C   LIG    1       25.199 -15.089   3.526  0.00  0.00    -0.039 A 
ATOM      4  C   LIG    1       26.169 -14.126   3.203  0.00  0.00    -0.003 A 
ATOM      5  C   LIG    1       25.744 -12.828   2.876  0.00  0.00    +0.120 A 
ATOM      6  C   LIG    1       24.404 -12.458   2.965  0.00  0.00    +0.045 A 
ATOM      7  C   LIG    1       23.455 -13.396   3.353  0.00  0.00    +0.004 A 
ATOM      8  C   LIG    1       27.625 -14.508   3.228  0.00  0.00    +0.041 C 
ATOM      9  C   LIG    1       23.848 -14.707   3.617  0.00  0.00    +0.004 A 
ATOM     10  C   LIG    1       27.901 -15.768   4.065  0.00  0.00    +0.024 C 
ENDROOT
BRANCH   5  11
ATOM     11  O   LIG    1       26.604 -11.851   2.457  0.00  0.00    -0.506 OA
ATOM     12  H   LIG    1       27.488 -12.238   2.354  0.00  0.00    +0.292 HD
ENDBRANCH   5  11
BRANCH   1  13
ATOM     13  N   LIG    1       27.420 -18.312   4.100  0.00  0.00    -0.299 NA
BRANCH  13  14
ATOM     14  C   LIG    1       28.065 -18.179   5.438  0.00  0.00    +0.084 C 
BRANCH  14  16
ATOM     15  C   LIG    1       29.458 -19.809   6.719  0.00  0.00    +0.005 C 
ATOM     16  C   LIG    1       29.471 -18.768   5.602  0.00  0.00    +0.012 C 
ENDBRANCH  14  16
ENDBRANCH  13  14
BRANCH  13  17
ATOM     17  C   LIG    1       26.183 -19.144   4.292  0.00  0.00    +0.090 C 
BRANCH  17  18
ATOM     18  C   LIG    1       26.265 -20.341   5.284  0.00  0.00    +0.058 C 
BRANCH  18  19
ATOM     19  C   LIG    1       24.887 -20.743   5.748  0.00  0.00    -0.009 A 
ATOM     20  S   LIG    1       23.566 -20.726   4.650  0.00  0.00    -0.102 S 
ATOM     21  C   LIG    1       22.478 -21.293   5.839  0.00  0.00    +0.045 A 
ATOM     22  C   LIG    1       23.103 -21.477   7.061  0.00  0.00    +0.008 A 
ATOM     23  C   LIG    1       24.488 -21.149   7.000  0.00  0.00    +0.011 A 
ENDBRANCH  18  19
ENDBRANCH  17  18
ENDBRANCH  13  17
ENDBRANCH   1  13
TORSDOF 7
ENDMDL
MODEL 5
REMARK VINA RESULT:      -2.4      3.262      7.378
REMARK  Name = *****
REMARK                            x       y       z     vdW  Elec       q    Type
REMARK                         _______ _______ _______ _____ _____    ______ ____
ROOT
ATOM      1  C   LIG    1       27.018 -17.411   3.662  0.00  0.00    +0.061 C 
ATOM      2  C   LIG    1       25.567 -16.865   3.819  0.00  0.00    +0.054 C 
ATOM      3  C   LIG    1       25.378 -15.375   3.604  0.00  0.00    -0.039 A 
ATOM      4  C   LIG    1       26.467 -14.498   3.478  0.00  0.00    -0.003 A 
ATOM      5  C   LIG    1       26.211 -13.141   3.222  0.00  0.00    +0.120 A 
ATOM      6  C   LIG    1       24.911 -12.640   3.195  0.00  0.00    +0.045 A 
ATOM      7  C   LIG    1       23.837 -13.499   3.390  0.00  0.00    +0.004 A 
ATOM      8  C   LIG    1       27.866 -15.032   3.630  0.00  0.00    +0.041 C 
ATOM      9  C   LIG    1       24.068 -14.861   3.578  0.00  0.00    +0.004 A 
ATOM     10  C   LIG    1       27.919 -16.375   4.377  0.00  0.00    +0.024 C 
ENDROOT
BRANCH   5  11
ATOM     11  O   LIG    1       27.204 -12.230   2.990  0.00  0.00    -0.506 OA
ATOM     12  H   LIG    1       27.920 -12.669   2.504  0.00  0.00    +0.292 HD
ENDBRANCH   5  11
BRANCH   1  13
ATOM     13  N   LIG    1       27.196 -18.849   4.132  0.00  0.00    -0.299 NA
BRANCH  13  14
ATOM     14  C   LIG    1       27.642 -18.889   5.554  0.00  0.00    +0.084 C 
BRANCH  14  16
ATOM     15  C   LIG    1       28.778 -20.760   6.759  0.00  0.00    +0.005 C 
ATOM     16  C   LIG    1       28.993 -19.553   5.848  0.00  0.00    +0.012 C 
ENDBRANCH  14  16
ENDBRANCH  13  14
BRANCH  13  17
ATOM     17  C   LIG    1       25.879 -19.572   4.067  0.00  0.00    +0.090 C 
BRANCH  17  18
ATOM     18  C   LIG    1       25.319 -20.171   5.390  0.00  0.00    +0.058 C 
BRANCH  18  19
ATOM     19  C   LIG    1       23.845 -20.466   5.259  0.00  0.00    -0.009 A 
ATOM     20  S   LIG    1       22.804 -19.342   4.480  0.00  0.00    -0.102 S 
ATOM     21  C   LIG    1       21.440 -20.346   4.699  0.00  0.00    +0.045 A 
ATOM     22  C   LIG    1       21.763 -21.513   5.371  0.00  0.00    +0.008 A 
ATOM     23  C   LIG    1       23.149 -21.568   5.696  0.00  0.00    +0.011 A 
ENDBRANCH  18  19
ENDBRANCH  17  18
ENDBRANCH  13  17
ENDBRANCH   1  13
TORSDOF 7
ENDMDL
MODEL 6
REMARK VINA RESULT:      -1.6      1.520      3.412
REMARK  Name = *****
REMARK                            x       y       z     vdW  Elec       q    Type
REMARK                         _______ _______ _______ _____ _____    ______ ____
ROOT
ATOM      1  C   LIG    1       24.757 -16.118   3.371  0.00  0.00    +0.061 C 
ATOM      2  C   LIG    1       25.513 -17.455   3.632  0.00  0.00    +0.054 C 
ATOM      3  C   LIG    1       24.655 -18.672   3.922  0.00  0.00    -0.039 A 
ATOM      4  C   LIG    1       23.273 -18.570   4.150  0.00  0.00    -0.003 A 
ATOM      5  C   LIG    1       22.537 -19.749   4.353  0.00  0.00    +0.120 A 
ATOM      6  C   LIG    1       23.162 -20.991   4.434  0.00  0.00    +0.045 A 
ATOM      7  C   LIG    1       24.540 -21.081   4.278  0.00  0.00    +0.004 A 
ATOM      8  C   LIG    1       22.628 -17.211   4.180  0.00  0.00    +0.041 C 
ATOM      9  C   LIG    1       25.280 -19.930   4.008  0.00  0.00    +0.004 A 
ATOM     10  C   LIG    1       23.634 -16.075   4.434  0.00  0.00    +0.024 C 
ENDROOT
BRANCH   5  11
ATOM     11  O   LIG    1       21.176 -19.759   4.488  0.00  0.00    -0.506 OA
ATOM     12  H   LIG    1       20.912 -20.590   4.913  0.00  0.00    +0.292 HD
ENDBRANCH   5  11
BRANCH   1  13
ATOM     13  N   LIG    1       25.658 -14.891   3.338  0.00  0.00    -0.299 NA
BRANCH  13  14
ATOM     14  C   LIG    1       27.095 -15.290   3.322  0.00  0.00    +0.084 C 
BRANCH  14  16
ATOM     15  C   LIG    1       28.524 -13.271   3.670  0.00  0.00    +0.005 C 
ATOM     16  C   LIG    1       28.034 -14.573   4.300  0.00  0.00    +0.012 C 
ENDBRANCH  14  16
ENDBRANCH  13  14
BRANCH  13  17
ATOM     17  C   LIG    1       25.409 -14.109   2.078  0.00  0.00    +0.090 C 
BRANCH  17  18
ATOM     18  C   LIG    1       25.299 -12.561   2.198  0.00  0.00    +0.058 C 
BRANCH  18  19
ATOM     19  C   LIG    1       24.629 -12.174   3.492  0.00  0.00    -0.009 A 
ATOM     20  S   LIG    1       25.502 -12.230   4.970  0.00  0.00    -0.102 S 
ATOM     21  C   LIG    1       24.164 -11.662   5.866  0.00  0.00    +0.045 A 
ATOM     22  C   LIG    1       23.059 -11.448   5.058  0.00  0.00    +0.008 A 
ATOM     23  C   LIG    1       23.334 -11.753   3.695  0.00  0.00    +0.011 A 
ENDBRANCH  18  19
ENDBRANCH  17  18
ENDBRANCH  13  17
ENDBRANCH   1  13
TORSDOF 7
ENDMDL
MODEL 7
REMARK VINA RESULT:      -1.6      1.729      3.251
REMARK  Name = *****
REMARK                            x       y       z     vdW  Elec       q    Type
REMARK                         _______ _______ _______ _____ _____    ______ ____
ROOT
ATOM      1  C   LIG    1       26.593 -16.038   4.141  0.00  0.00    +0.061 C 
ATOM      2  C   LIG    1       25.394 -16.743   3.439  0.00  0.00    +0.054 C 
ATOM      3  C   LIG    1       25.215 -18.222   3.726  0.00  0.00    -0.039 A 
ATOM      4  C   LIG    1       26.187 -18.968   4.414  0.00  0.00    -0.003 A 
ATOM      5  C   LIG    1       25.923 -20.319   4.693  0.00  0.00    +0.120 A 
ATOM      6  C   LIG    1       24.775 -20.949   4.215  0.00  0.00    +0.045 A 
ATOM      7  C   LIG    1       23.849 -20.224   3.474  0.00  0.00    +0.004 A 
ATOM      8  C   LIG    1       27.476 -18.306   4.818  0.00  0.00    +0.041 C 
ATOM      9  C   LIG    1       24.061 -18.866   3.244  0.00  0.00    +0.004 A 
ATOM     10  C   LIG    1       27.775 -17.030   4.013  0.00  0.00    +0.024 C 
ENDROOT
BRANCH   5  11
ATOM     11  O   LIG    1       26.763 -21.100   5.438  0.00  0.00    -0.506 OA
ATOM     12  H   LIG    1       27.653 -20.715   5.407  0.00  0.00    +0.292 HD
ENDBRANCH   5  11
BRANCH   1  13
ATOM     13  N   LIG    1       26.876 -14.633   3.627  0.00  0.00    -0.299 NA
BRANCH  13  14
ATOM     14  C   LIG    1       28.335 -14.332   3.687  0.00  0.00    +0.084 C 
BRANCH  14  16
ATOM     15  C   LIG    1       28.585 -12.277   5.086  0.00  0.00    +0.005 C 
ATOM     16  C   LIG    1       28.748 -12.855   3.682  0.00  0.00    +0.012 C 
ENDBRANCH  14  16
ENDBRANCH  13  14
BRANCH  13  17
ATOM     17  C   LIG    1       26.467 -14.526   2.184  0.00  0.00    +0.090 C 
BRANCH  17  18
ATOM     18  C   LIG    1       25.377 -13.478   1.818  0.00  0.00    +0.058 C 
BRANCH  18  19
ATOM     19  C   LIG    1       24.775 -12.878   3.063  0.00  0.00    -0.009 A 
ATOM     20  S   LIG    1       23.829 -11.447   2.964  0.00  0.00    -0.102 S 
ATOM     21  C   LIG    1       23.522 -11.447   4.644  0.00  0.00    +0.045 A 
ATOM     22  C   LIG    1       24.144 -12.509   5.279  0.00  0.00    +0.008 A 
ATOM     23  C   LIG    1       24.869 -13.322   4.362  0.00  0.00    +0.011 A 
ENDBRANCH  18  19
ENDBRANCH  17  18
ENDBRANCH  13  17
ENDBRANCH   1  13
TORSDOF 7
ENDMDL
MODEL 8
REMARK VINA RESULT:      -1.2      2.178      3.923
REMARK  Name = *****
REMARK                            x       y       z     vdW  Elec       q    Type
REMARK                         _______ _______ _______ _____ _____    ______ ____
ROOT
ATOM      1  C   LIG    1       25.143 -17.573   3.738  0.00  0.00    +0.061 C 
ATOM      2  C   LIG    1       25.030 -18.962   4.435  0.00  0.00    +0.054 C 
ATOM      3  C   LIG    1       23.651 -19.594   4.465  0.00  0.00    -0.039 A 
ATOM      4  C   LIG    1       22.500 -18.888   4.077  0.00  0.00    -0.003 A 
ATOM      5  C   LIG    1       21.268 -19.561   4.076  0.00  0.00    +0.120 A 
ATOM      6  C   LIG    1       21.153 -20.868   4.545  0.00  0.00    +0.045 A 
ATOM      7  C   LIG    1       22.283 -21.541   4.994  0.00  0.00    +0.004 A 
ATOM      8  C   LIG    1       22.620 -17.439   3.687  0.00  0.00    +0.041 C 
ATOM      9  C   LIG    1       23.527 -20.913   4.940  0.00  0.00    +0.004 A 
ATOM     10  C   LIG    1       23.904 -16.778   4.218  0.00  0.00    +0.024 C 
ENDROOT
BRANCH   5  11
ATOM     11  O   LIG    1       20.111 -18.987   3.625  0.00  0.00    -0.506 OA
ATOM     12  H   LIG    1       19.359 -19.495   3.967  0.00  0.00    +0.292 HD
ENDBRANCH   5  11
BRANCH   1  13
ATOM     13  N   LIG    1       26.478 -16.874   3.957  0.00  0.00    -0.299 NA
BRANCH  13  14
ATOM     14  C   LIG    1       27.604 -17.847   3.866  0.00  0.00    +0.084 C 
BRANCH  14  16
ATOM     15  C   LIG    1       28.642 -19.244   5.658  0.00  0.00    +0.005 C 
ATOM     16  C   LIG    1       28.617 -17.858   5.017  0.00  0.00    +0.012 C 
ENDBRANCH  14  16
ENDBRANCH  13  14
BRANCH  13  17
ATOM     17  C   LIG    1       26.699 -15.849   2.879  0.00  0.00    +0.090 C 
BRANCH  17  18
ATOM     18  C   LIG    1       27.111 -14.415   3.321  0.00  0.00    +0.058 C 
BRANCH  18  19
ATOM     19  C   LIG    1       25.893 -13.552   3.532  0.00  0.00    -0.009 A 
ATOM     20  S   LIG    1       25.120 -12.803   2.193  0.00  0.00    -0.102 S 
ATOM     21  C   LIG    1       23.921 -12.100   3.186  0.00  0.00    +0.045 A 
ATOM     22  C   LIG    1       24.112 -12.413   4.522  0.00  0.00    +0.008 A 
ATOM     23  C   LIG    1       25.254 -13.242   4.711  0.00  0.00    +0.011 A 
ENDBRANCH  18  19
ENDBRANCH  17  18
ENDBRANCH  13  17
ENDBRANCH   1  13
TORSDOF 7
ENDMDL
