MODEL 1
REMARK VINA RESULT:      -6.3      0.000      0.000
REMARK  Name = *****
REMARK                            x       y       z     vdW  Elec       q    Type
REMARK                         _______ _______ _______ _____ _____    ______ ____
ROOT
ATOM      1  C   LIG    1       25.427 -29.859  11.769  0.00  0.00    +0.136 C 
ENDROOT
BRANCH   1   2
ATOM      2  N   LIG    1       25.174 -30.143  10.343  0.00  0.00    -0.225 N 
ATOM      3  C   LIG    1       25.576 -29.359   9.299  0.00  0.00    +0.256 C 
ATOM      4  O   LIG    1       26.209 -28.335   9.297  0.00  0.00    -0.269 OA
ATOM      5  C   LIG    1       25.095 -30.000   8.065  0.00  0.00    +0.071 A 
ATOM      6  C   LIG    1       24.441 -31.158   8.447  0.00  0.00    +0.051 A 
ATOM      7  C   LIG    1       23.879 -32.031   7.541  0.00  0.00    +0.014 A 
ATOM      8  C   LIG    1       24.019 -31.703   6.197  0.00  0.00    +0.003 A 
ATOM      9  C   LIG    1       24.680 -30.517   5.798  0.00  0.00    +0.024 A 
ATOM     10  C   LIG    1       25.222 -29.622   6.736  0.00  0.00    +0.046 A 
ATOM     11  C   LIG    1       24.470 -31.234   9.892  0.00  0.00    +0.255 C 
ATOM     12  O   LIG    1       23.919 -32.123  10.534  0.00  0.00    -0.270 OA
BRANCH  10  13
ATOM     13  N   LIG    1       25.855 -28.398   6.398  0.00  0.00    -0.285 N 
ATOM     14  H   LIG    1       26.874 -28.434   6.333  0.00  0.00    +0.155 HD
ATOM     15  C   LIG    1       25.239 -27.182   6.159  0.00  0.00    +0.214 C 
ATOM     16  O   LIG    1       24.030 -26.965   6.188  0.00  0.00    -0.276 OA
ATOM     17  C   LIG    1       26.202 -26.062   5.844  0.00  0.00    +0.109 C 
ENDBRANCH  10  13
ENDBRANCH   1   2
BRANCH   1  22
ATOM     18  C   LIG    1       23.621 -26.830  13.377  0.00  0.00    +0.162 A 
ATOM     19  C   LIG    1       22.271 -27.214  13.302  0.00  0.00    +0.162 A 
ATOM     20  C   LIG    1       21.964 -28.467  12.753  0.00  0.00    +0.050 A 
ATOM     21  C   LIG    1       22.969 -29.344  12.315  0.00  0.00    +0.009 A 
ATOM     22  C   LIG    1       24.315 -28.984  12.389  0.00  0.00    -0.021 A 
ATOM     23  C   LIG    1       24.608 -27.741  12.964  0.00  0.00    +0.055 A 
BRANCH  19  24
ATOM     24  O   LIG    1       21.302 -26.340  13.739  0.00  0.00    -0.491 OA
ATOM     25  C   LIG    1       19.962 -26.846  13.730  0.00  0.00    +0.277 C 
ENDBRANCH  19  24
BRANCH  18  26
ATOM     26  O   LIG    1       23.926 -25.566  13.830  0.00  0.00    -0.489 OA
BRANCH  26  28
ATOM     27  C   LIG    1       25.538 -23.867  14.602  0.00  0.00    +0.048 C 
ATOM     28  C   LIG    1       25.306 -25.167  13.841  0.00  0.00    +0.226 C 
ENDBRANCH  26  28
ENDBRANCH  18  26
ENDBRANCH   1  22
BRANCH   1  29
ATOM     29  C   LIG    1       25.626 -31.128  12.640  0.00  0.00    +0.193 C 
BRANCH  29  30
ATOM     30  S   LIG    1       26.689 -30.799  14.049  0.00  0.00    -0.032 S 
ATOM     31  O   LIG    1       27.410 -32.012  14.346  0.00  0.00    -0.174 OA
ATOM     32  O   LIG    1       25.934 -30.123  15.089  0.00  0.00    -0.174 OA
ATOM     33  C   LIG    1       27.874 -29.609  13.448  0.00  0.00    +0.194 C 
ENDBRANCH  29  30
ENDBRANCH   1  29
TORSDOF 8
ENDMDL
MODEL 2
REMARK VINA RESULT:      -6.3      1.904      3.134
REMARK  Name = *****
REMARK                            x       y       z     vdW  Elec       q    Type
REMARK                         _______ _______ _______ _____ _____    ______ ____
ROOT
ATOM      1  C   LIG    1       25.775 -29.537  11.950  0.00  0.00    +0.136 C 
ENDROOT
BRANCH   1   2
ATOM      2  N   LIG    1       25.749 -30.401  10.753  0.00  0.00    -0.225 N 
ATOM      3  C   LIG    1       25.797 -29.962   9.461  0.00  0.00    +0.256 C 
ATOM      4  O   LIG    1       25.891 -28.844   9.025  0.00  0.00    -0.269 OA
ATOM      5  C   LIG    1       25.724 -31.151   8.597  0.00  0.00    +0.071 A 
ATOM      6  C   LIG    1       25.654 -32.249   9.435  0.00  0.00    +0.051 A 
ATOM      7  C   LIG    1       25.599 -33.543   8.965  0.00  0.00    +0.014 A 
ATOM      8  C   LIG    1       25.638 -33.704   7.585  0.00  0.00    +0.003 A 
ATOM      9  C   LIG    1       25.702 -32.585   6.720  0.00  0.00    +0.024 A 
ATOM     10  C   LIG    1       25.728 -31.270   7.214  0.00  0.00    +0.046 A 
ATOM     11  C   LIG    1       25.645 -31.771  10.801  0.00  0.00    +0.255 C 
ATOM     12  O   LIG    1       25.532 -32.509  11.775  0.00  0.00    -0.270 OA
BRANCH  10  13
ATOM     13  N   LIG    1       25.746 -30.110   6.397  0.00  0.00    -0.285 N 
ATOM     14  H   LIG    1       26.674 -29.749   6.167  0.00  0.00    +0.155 HD
ATOM     15  C   LIG    1       24.650 -29.430   5.894  0.00  0.00    +0.214 C 
ATOM     16  O   LIG    1       23.471 -29.731   6.065  0.00  0.00    -0.276 OA
ATOM     17  C   LIG    1       25.010 -28.215   5.073  0.00  0.00    +0.109 C 
ENDBRANCH  10  13
ENDBRANCH   1   2
BRANCH   1  22
ATOM     18  C   LIG    1       21.934 -29.083  12.216  0.00  0.00    +0.162 A 
ATOM     19  C   LIG    1       21.826 -27.888  12.950  0.00  0.00    +0.162 A 
ATOM     20  C   LIG    1       23.004 -27.228  13.327  0.00  0.00    +0.050 A 
ATOM     21  C   LIG    1       24.269 -27.716  12.961  0.00  0.00    +0.009 A 
ATOM     22  C   LIG    1       24.397 -28.895  12.227  0.00  0.00    -0.021 A 
ATOM     23  C   LIG    1       23.211 -29.529  11.834  0.00  0.00    +0.055 A 
BRANCH  19  24
ATOM     24  O   LIG    1       20.577 -27.427  13.295  0.00  0.00    -0.491 OA
ATOM     25  C   LIG    1       20.418 -27.033  14.663  0.00  0.00    +0.277 C 
ENDBRANCH  19  24
BRANCH  18  26
ATOM     26  O   LIG    1       20.788 -29.785  11.921  0.00  0.00    -0.489 OA
BRANCH  26  28
ATOM     27  C   LIG    1       19.441 -31.145  10.365  0.00  0.00    +0.048 C 
ATOM     28  C   LIG    1       20.829 -30.717  10.829  0.00  0.00    +0.226 C 
ENDBRANCH  26  28
ENDBRANCH  18  26
ENDBRANCH   1  22
BRANCH   1  29
ATOM     29  C   LIG    1       26.276 -30.249  13.234  0.00  0.00    +0.193 C 
BRANCH  29  30
ATOM     30  S   LIG    1       28.002 -29.880  13.559  0.00  0.00    -0.032 S 
ATOM     31  O   LIG    1       28.664 -29.721  12.286  0.00  0.00    -0.174 OA
ATOM     32  O   LIG    1       28.527 -30.809  14.546  0.00  0.00    -0.174 OA
ATOM     33  C   LIG    1       27.978 -28.283  14.350  0.00  0.00    +0.194 C 
ENDBRANCH  29  30
ENDBRANCH   1  29
TORSDOF 8
ENDMDL
MODEL 3
REMARK VINA RESULT:      -6.3      0.954      2.457
REMARK  Name = *****
REMARK                            x       y       z     vdW  Elec       q    Type
REMARK                         _______ _______ _______ _____ _____    ______ ____
ROOT
ATOM      1  C   LIG    1       26.106 -29.910  11.833  0.00  0.00    +0.136 C 
ENDROOT
BRANCH   1   2
ATOM      2  N   LIG    1       25.644 -30.060  10.439  0.00  0.00    -0.225 N 
ATOM      3  C   LIG    1       25.911 -29.190   9.421  0.00  0.00    +0.256 C 
ATOM      4  O   LIG    1       26.563 -28.177   9.417  0.00  0.00    -0.269 OA
ATOM      5  C   LIG    1       25.242 -29.711   8.218  0.00  0.00    +0.071 A 
ATOM      6  C   LIG    1       24.621 -30.891   8.588  0.00  0.00    +0.051 A 
ATOM      7  C   LIG    1       23.914 -31.672   7.700  0.00  0.00    +0.014 A 
ATOM      8  C   LIG    1       23.867 -31.226   6.385  0.00  0.00    +0.003 A 
ATOM      9  C   LIG    1       24.494 -30.016   5.999  0.00  0.00    +0.024 A 
ATOM     10  C   LIG    1       25.187 -29.216   6.923  0.00  0.00    +0.046 A 
ATOM     11  C   LIG    1       24.856 -31.098  10.001  0.00  0.00    +0.255 C 
ATOM     12  O   LIG    1       24.380 -32.035  10.636  0.00  0.00    -0.270 OA
BRANCH  10  13
ATOM     13  N   LIG    1       25.795 -27.974   6.606  0.00  0.00    -0.285 N 
ATOM     14  H   LIG    1       26.817 -27.974   6.602  0.00  0.00    +0.155 HD
ATOM     15  C   LIG    1       25.151 -26.784   6.312  0.00  0.00    +0.214 C 
ATOM     16  O   LIG    1       23.936 -26.611   6.266  0.00  0.00    -0.276 OA
ATOM     17  C   LIG    1       26.091 -25.634   6.039  0.00  0.00    +0.109 C 
ENDBRANCH  10  13
ENDBRANCH   1   2
BRANCH   1  22
ATOM     18  C   LIG    1       23.937 -27.132  13.447  0.00  0.00    +0.162 A 
ATOM     19  C   LIG    1       24.899 -26.167  13.793  0.00  0.00    +0.162 A 
ATOM     20  C   LIG    1       26.241 -26.418  13.473  0.00  0.00    +0.050 A 
ATOM     21  C   LIG    1       26.628 -27.584  12.794  0.00  0.00    +0.009 A 
ATOM     22  C   LIG    1       25.688 -28.550  12.435  0.00  0.00    -0.021 A 
ATOM     23  C   LIG    1       24.348 -28.273  12.737  0.00  0.00    +0.055 A 
BRANCH  19  24
ATOM     24  O   LIG    1       24.497 -25.030  14.456  0.00  0.00    -0.491 OA
ATOM     25  C   LIG    1       25.479 -23.993  14.559  0.00  0.00    +0.277 C 
ENDBRANCH  19  24
BRANCH  18  26
ATOM     26  O   LIG    1       22.632 -26.936  13.838  0.00  0.00    -0.489 OA
BRANCH  26  28
ATOM     27  C   LIG    1       20.362 -26.683  12.909  0.00  0.00    +0.048 C 
ATOM     28  C   LIG    1       21.595 -27.565  13.069  0.00  0.00    +0.226 C 
ENDBRANCH  26  28
ENDBRANCH  18  26
ENDBRANCH   1  22
BRANCH   1  29
ATOM     29  C   LIG    1       25.646 -31.051  12.778  0.00  0.00    +0.193 C 
BRANCH  29  30
ATOM     30  S   LIG    1       26.616 -31.086  14.288  0.00  0.00    -0.032 S 
ATOM     31  O   LIG    1       25.932 -30.277  15.267  0.00  0.00    -0.174 OA
ATOM     32  O   LIG    1       28.014 -30.837  13.981  0.00  0.00    -0.174 OA
ATOM     33  C   LIG    1       26.527 -32.779  14.840  0.00  0.00    +0.194 C 
ENDBRANCH  29  30
ENDBRANCH   1  29
TORSDOF 8
ENDMDL
MODEL 4
REMARK VINA RESULT:      -6.0      2.319      6.867
REMARK  Name = *****
REMARK                            x       y       z     vdW  Elec       q    Type
REMARK                         _______ _______ _______ _____ _____    ______ ____
ROOT
ATOM      1  C   LIG    1       25.830 -29.870  11.723  0.00  0.00    +0.136 C 
ENDROOT
BRANCH   1   2
ATOM      2  N   LIG    1       24.590 -29.193  12.153  0.00  0.00    -0.225 N 
ATOM      3  C   LIG    1       23.333 -29.716  12.062  0.00  0.00    +0.256 C 
ATOM      4  O   LIG    1       22.966 -30.791  11.659  0.00  0.00    -0.269 OA
ATOM      5  C   LIG    1       22.402 -28.701  12.580  0.00  0.00    +0.071 A 
ATOM      6  C   LIG    1       23.171 -27.621  12.975  0.00  0.00    +0.051 A 
ATOM      7  C   LIG    1       22.629 -26.485  13.537  0.00  0.00    +0.014 A 
ATOM      8  C   LIG    1       21.250 -26.479  13.714  0.00  0.00    +0.003 A 
ATOM      9  C   LIG    1       20.455 -27.577  13.306  0.00  0.00    +0.024 A 
ATOM     10  C   LIG    1       21.020 -28.716  12.707  0.00  0.00    +0.046 A 
ATOM     11  C   LIG    1       24.555 -27.924  12.681  0.00  0.00    +0.255 C 
ATOM     12  O   LIG    1       25.475 -27.133  12.866  0.00  0.00    -0.270 OA
BRANCH  10  13
ATOM     13  N   LIG    1       20.271 -29.826  12.237  0.00  0.00    -0.285 N 
ATOM     14  H   LIG    1       20.135 -29.868  11.226  0.00  0.00    +0.155 HD
ATOM     15  C   LIG    1       19.712 -30.835  13.003  0.00  0.00    +0.214 C 
ATOM     16  O   LIG    1       19.784 -30.941  14.224  0.00  0.00    -0.276 OA
ATOM     17  C   LIG    1       18.953 -31.862  12.197  0.00  0.00    +0.109 C 
ENDBRANCH  10  13
ENDBRANCH   1   2
BRANCH   1  22
ATOM     18  C   LIG    1       25.152 -29.843   7.907  0.00  0.00    +0.162 A 
ATOM     19  C   LIG    1       25.812 -31.008   7.479  0.00  0.00    +0.162 A 
ATOM     20  C   LIG    1       26.447 -31.806   8.441  0.00  0.00    +0.050 A 
ATOM     21  C   LIG    1       26.408 -31.482   9.807  0.00  0.00    +0.009 A 
ATOM     22  C   LIG    1       25.752 -30.334  10.252  0.00  0.00    -0.021 A 
ATOM     23  C   LIG    1       25.099 -29.561   9.283  0.00  0.00    +0.055 A 
BRANCH  19  24
ATOM     24  O   LIG    1       25.835 -31.308   6.137  0.00  0.00    -0.491 OA
ATOM     25  C   LIG    1       26.588 -32.472   5.775  0.00  0.00    +0.277 C 
ENDBRANCH  19  24
BRANCH  18  26
ATOM     26  O   LIG    1       24.604 -29.007   6.961  0.00  0.00    -0.489 OA
BRANCH  26  28
ATOM     27  C   LIG    1       24.382 -26.775   5.934  0.00  0.00    +0.048 C 
ATOM     28  C   LIG    1       25.261 -27.755   6.704  0.00  0.00    +0.226 C 
ENDBRANCH  26  28
ENDBRANCH  18  26
ENDBRANCH   1  22
BRANCH   1  29
ATOM     29  C   LIG    1       27.115 -29.025  11.928  0.00  0.00    +0.193 C 
BRANCH  29  30
ATOM     30  S   LIG    1       28.150 -29.707  13.227  0.00  0.00    -0.032 S 
ATOM     31  O   LIG    1       29.481 -29.859  12.692  0.00  0.00    -0.174 OA
ATOM     32  O   LIG    1       27.479 -30.835  13.850  0.00  0.00    -0.174 OA
ATOM     33  C   LIG    1       28.217 -28.427  14.465  0.00  0.00    +0.194 C 
ENDBRANCH  29  30
ENDBRANCH   1  29
TORSDOF 8
ENDMDL
MODEL 5
REMARK VINA RESULT:      -6.0      2.082      6.386
REMARK  Name = *****
REMARK                            x       y       z     vdW  Elec       q    Type
REMARK                         _______ _______ _______ _____ _____    ______ ____
ROOT
ATOM      1  C   LIG    1       24.200 -31.413  11.024  0.00  0.00    +0.136 C 
ENDROOT
BRANCH   1   2
ATOM      2  N   LIG    1       23.743 -30.161  11.658  0.00  0.00    -0.225 N 
ATOM      3  C   LIG    1       24.557 -29.167  12.119  0.00  0.00    +0.256 C 
ATOM      4  O   LIG    1       25.758 -29.073  12.096  0.00  0.00    -0.269 OA
ATOM      5  C   LIG    1       23.689 -28.125  12.690  0.00  0.00    +0.071 A 
ATOM      6  C   LIG    1       22.385 -28.554  12.518  0.00  0.00    +0.051 A 
ATOM      7  C   LIG    1       21.296 -27.810  12.915  0.00  0.00    +0.014 A 
ATOM      8  C   LIG    1       21.567 -26.574  13.491  0.00  0.00    +0.003 A 
ATOM      9  C   LIG    1       22.898 -26.130  13.677  0.00  0.00    +0.024 A 
ATOM     10  C   LIG    1       23.999 -26.913  13.293  0.00  0.00    +0.046 A 
ATOM     11  C   LIG    1       22.422 -29.856  11.886  0.00  0.00    +0.255 C 
ATOM     12  O   LIG    1       21.418 -30.523  11.654  0.00  0.00    -0.270 OA
BRANCH  10  13
ATOM     13  N   LIG    1       25.353 -26.542  13.496  0.00  0.00    -0.285 N 
ATOM     14  H   LIG    1       26.013 -27.317  13.581  0.00  0.00    +0.155 HD
ATOM     15  C   LIG    1       25.857 -25.256  13.594  0.00  0.00    +0.214 C 
ATOM     16  O   LIG    1       25.208 -24.216  13.508  0.00  0.00    -0.276 OA
ATOM     17  C   LIG    1       27.347 -25.201  13.833  0.00  0.00    +0.109 C 
ENDBRANCH  10  13
ENDBRANCH   1   2
BRANCH   1  22
ATOM     18  C   LIG    1       24.560 -29.796   7.520  0.00  0.00    +0.162 A 
ATOM     19  C   LIG    1       24.863 -30.906   6.710  0.00  0.00    +0.162 A 
ATOM     20  C   LIG    1       24.920 -32.172   7.309  0.00  0.00    +0.050 A 
ATOM     21  C   LIG    1       24.651 -32.352   8.675  0.00  0.00    +0.009 A 
ATOM     22  C   LIG    1       24.342 -31.266   9.494  0.00  0.00    -0.021 A 
ATOM     23  C   LIG    1       24.261 -30.010   8.877  0.00  0.00    +0.055 A 
BRANCH  19  24
ATOM     24  O   LIG    1       25.120 -30.706   5.373  0.00  0.00    -0.491 OA
ATOM     25  C   LIG    1       25.854 -31.749   4.722  0.00  0.00    +0.277 C 
ENDBRANCH  19  24
BRANCH  18  26
ATOM     26  O   LIG    1       24.591 -28.540   6.960  0.00  0.00    -0.489 OA
BRANCH  26  28
ATOM     27  C   LIG    1       25.840 -26.512   6.318  0.00  0.00    +0.048 C 
ATOM     28  C   LIG    1       25.697 -27.682   7.285  0.00  0.00    +0.226 C 
ENDBRANCH  26  28
ENDBRANCH  18  26
ENDBRANCH   1  22
BRANCH   1  29
ATOM     29  C   LIG    1       25.524 -31.971  11.610  0.00  0.00    +0.193 C 
BRANCH  29  30
ATOM     30  S   LIG    1       25.247 -32.826  13.164  0.00  0.00    -0.032 S 
ATOM     31  O   LIG    1       26.280 -33.823  13.306  0.00  0.00    -0.174 OA
ATOM     32  O   LIG    1       23.848 -33.202  13.277  0.00  0.00    -0.174 OA
ATOM     33  C   LIG    1       25.527 -31.588  14.415  0.00  0.00    +0.194 C 
ENDBRANCH  29  30
ENDBRANCH   1  29
TORSDOF 8
ENDMDL
MODEL 6
REMARK VINA RESULT:      -5.8      1.910      3.149
REMARK  Name = *****
REMARK                            x       y       z     vdW  Elec       q    Type
REMARK                         _______ _______ _______ _____ _____    ______ ____
ROOT
ATOM      1  C   LIG    1       25.574 -30.879  11.127  0.00  0.00    +0.136 C 
ENDROOT
BRANCH   1   2
ATOM      2  N   LIG    1       25.685 -31.025   9.662  0.00  0.00    -0.225 N 
ATOM      3  C   LIG    1       25.237 -30.119   8.744  0.00  0.00    +0.256 C 
ATOM      4  O   LIG    1       24.705 -29.051   8.902  0.00  0.00    -0.269 OA
ATOM      5  C   LIG    1       25.530 -30.673   7.412  0.00  0.00    +0.071 A 
ATOM      6  C   LIG    1       26.162 -31.887   7.615  0.00  0.00    +0.051 A 
ATOM      7  C   LIG    1       26.607 -32.679   6.579  0.00  0.00    +0.014 A 
ATOM      8  C   LIG    1       26.408 -32.187   5.294  0.00  0.00    +0.003 A 
ATOM      9  C   LIG    1       25.755 -30.950   5.077  0.00  0.00    +0.024 A 
ATOM     10  C   LIG    1       25.281 -30.167   6.143  0.00  0.00    +0.046 A 
ATOM     11  C   LIG    1       26.237 -32.119   9.041  0.00  0.00    +0.255 C 
ATOM     12  O   LIG    1       26.696 -33.145   9.536  0.00  0.00    -0.270 OA
BRANCH  10  13
ATOM     13  N   LIG    1       24.581 -28.944   5.986  0.00  0.00    -0.285 N 
ATOM     14  H   LIG    1       23.567 -29.001   6.092  0.00  0.00    +0.155 HD
ATOM     15  C   LIG    1       25.128 -27.703   5.703  0.00  0.00    +0.214 C 
ATOM     16  O   LIG    1       26.322 -27.456   5.552  0.00  0.00    -0.276 OA
ATOM     17  C   LIG    1       24.104 -26.600   5.576  0.00  0.00    +0.109 C 
ENDBRANCH  10  13
ENDBRANCH   1   2
BRANCH   1  22
ATOM     18  C   LIG    1       25.091 -27.480  12.926  0.00  0.00    +0.162 A 
ATOM     19  C   LIG    1       26.313 -26.832  12.671  0.00  0.00    +0.162 A 
ATOM     20  C   LIG    1       27.270 -27.498  11.893  0.00  0.00    +0.050 A 
ATOM     21  C   LIG    1       27.020 -28.767  11.346  0.00  0.00    +0.009 A 
ATOM     22  C   LIG    1       25.811 -29.422  11.581  0.00  0.00    -0.021 A 
ATOM     23  C   LIG    1       24.854 -28.734  12.337  0.00  0.00    +0.055 A 
BRANCH  19  24
ATOM     24  O   LIG    1       26.535 -25.588  13.215  0.00  0.00    -0.491 OA
ATOM     25  C   LIG    1       27.541 -25.528  14.232  0.00  0.00    +0.277 C 
ENDBRANCH  19  24
BRANCH  18  26
ATOM     26  O   LIG    1       24.182 -26.874  13.763  0.00  0.00    -0.489 OA
BRANCH  26  28
ATOM     27  C   LIG    1       21.777 -26.694  13.244  0.00  0.00    +0.048 C 
ATOM     28  C   LIG    1       22.892 -27.486  13.917  0.00  0.00    +0.226 C 
ENDBRANCH  26  28
ENDBRANCH  18  26
ENDBRANCH   1  22
BRANCH   1  29
ATOM     29  C   LIG    1       24.228 -31.385  11.712  0.00  0.00    +0.193 C 
BRANCH  29  30
ATOM     30  S   LIG    1       24.483 -32.721  12.884  0.00  0.00    -0.032 S 
ATOM     31  O   LIG    1       25.863 -33.131  12.789  0.00  0.00    -0.174 OA
ATOM     32  O   LIG    1       23.419 -33.702  12.752  0.00  0.00    -0.174 OA
ATOM     33  C   LIG    1       24.260 -31.965  14.483  0.00  0.00    +0.194 C 
ENDBRANCH  29  30
ENDBRANCH   1  29
TORSDOF 8
ENDMDL
MODEL 7
REMARK VINA RESULT:      -5.7      2.765      4.050
REMARK  Name = *****
REMARK                            x       y       z     vdW  Elec       q    Type
REMARK                         _______ _______ _______ _____ _____    ______ ____
ROOT
ATOM      1  C   LIG    1       22.327 -31.017  11.449  0.00  0.00    +0.136 C 
ENDROOT
BRANCH   1   2
ATOM      2  N   LIG    1       23.438 -31.434  10.570  0.00  0.00    -0.225 N 
ATOM      3  C   LIG    1       23.858 -30.764   9.457  0.00  0.00    +0.256 C 
ATOM      4  O   LIG    1       23.464 -29.732   8.978  0.00  0.00    -0.269 OA
ATOM      5  C   LIG    1       24.966 -31.539   8.877  0.00  0.00    +0.071 A 
ATOM      6  C   LIG    1       25.160 -32.634   9.700  0.00  0.00    +0.051 A 
ATOM      7  C   LIG    1       26.143 -33.573   9.474  0.00  0.00    +0.014 A 
ATOM      8  C   LIG    1       26.962 -33.358   8.373  0.00  0.00    +0.003 A 
ATOM      9  C   LIG    1       26.767 -32.244   7.521  0.00  0.00    +0.024 A 
ATOM     10  C   LIG    1       25.741 -31.311   7.749  0.00  0.00    +0.046 A 
ATOM     11  C   LIG    1       24.174 -32.579  10.759  0.00  0.00    +0.255 C 
ATOM     12  O   LIG    1       24.055 -33.449  11.617  0.00  0.00    -0.270 OA
BRANCH  10  13
ATOM     13  N   LIG    1       25.469 -30.203   6.907  0.00  0.00    -0.285 N 
ATOM     14  H   LIG    1       26.149 -29.441   6.949  0.00  0.00    +0.155 HD
ATOM     15  C   LIG    1       24.388 -30.052   6.054  0.00  0.00    +0.214 C 
ATOM     16  O   LIG    1       23.487 -30.868   5.877  0.00  0.00    -0.276 OA
ATOM     17  C   LIG    1       24.378 -28.739   5.308  0.00  0.00    +0.109 C 
ENDBRANCH  10  13
ENDBRANCH   1   2
BRANCH   1  22
ATOM     18  C   LIG    1       24.319 -28.066  12.981  0.00  0.00    +0.162 A 
ATOM     19  C   LIG    1       23.297 -27.162  13.321  0.00  0.00    +0.162 A 
ATOM     20  C   LIG    1       21.968 -27.534  13.073  0.00  0.00    +0.050 A 
ATOM     21  C   LIG    1       21.645 -28.788  12.530  0.00  0.00    +0.009 A 
ATOM     22  C   LIG    1       22.644 -29.702  12.193  0.00  0.00    -0.021 A 
ATOM     23  C   LIG    1       23.965 -29.327  12.471  0.00  0.00    +0.055 A 
BRANCH  19  24
ATOM     24  O   LIG    1       23.636 -25.940  13.855  0.00  0.00    -0.491 OA
ATOM     25  C   LIG    1       23.554 -25.843  15.282  0.00  0.00    +0.277 C 
ENDBRANCH  19  24
BRANCH  18  26
ATOM     26  O   LIG    1       25.629 -27.674  13.136  0.00  0.00    -0.489 OA
BRANCH  26  28
ATOM     27  C   LIG    1       26.934 -27.993  11.068  0.00  0.00    +0.048 C 
ATOM     28  C   LIG    1       26.649 -28.455  12.493  0.00  0.00    +0.226 C 
ENDBRANCH  26  28
ENDBRANCH  18  26
ENDBRANCH   1  22
BRANCH   1  29
ATOM     29  C   LIG    1       20.964 -30.878  10.721  0.00  0.00    +0.193 C 
BRANCH  29  30
ATOM     30  S   LIG    1       19.740 -32.004  11.397  0.00  0.00    -0.032 S 
ATOM     31  O   LIG    1       18.674 -31.209  11.955  0.00  0.00    -0.174 OA
ATOM     32  O   LIG    1       20.396 -33.018  12.205  0.00  0.00    -0.174 OA
ATOM     33  C   LIG    1       19.081 -32.857   9.977  0.00  0.00    +0.194 C 
ENDBRANCH  29  30
ENDBRANCH   1  29
TORSDOF 8
ENDMDL
MODEL 8
REMARK VINA RESULT:      -5.7      2.379      6.950
REMARK  Name = *****
REMARK                            x       y       z     vdW  Elec       q    Type
REMARK                         _______ _______ _______ _____ _____    ______ ____
ROOT
ATOM      1  C   LIG    1       23.385 -30.837  11.382  0.00  0.00    +0.136 C 
ENDROOT
BRANCH   1   2
ATOM      2  N   LIG    1       23.952 -29.640  12.034  0.00  0.00    -0.225 N 
ATOM      3  C   LIG    1       25.275 -29.444  12.310  0.00  0.00    +0.256 C 
ATOM      4  O   LIG    1       26.228 -30.143  12.079  0.00  0.00    -0.269 OA
ATOM      5  C   LIG    1       25.390 -28.138  12.978  0.00  0.00    +0.071 A 
ATOM      6  C   LIG    1       24.111 -27.612  13.046  0.00  0.00    +0.051 A 
ATOM      7  C   LIG    1       23.841 -26.377  13.592  0.00  0.00    +0.014 A 
ATOM      8  C   LIG    1       24.932 -25.656  14.063  0.00  0.00    +0.003 A 
ATOM      9  C   LIG    1       26.243 -26.189  14.004  0.00  0.00    +0.024 A 
ATOM     10  C   LIG    1       26.498 -27.463  13.470  0.00  0.00    +0.046 A 
ATOM     11  C   LIG    1       23.199 -28.577  12.470  0.00  0.00    +0.255 C 
ATOM     12  O   LIG    1       21.981 -28.421  12.438  0.00  0.00    -0.270 OA
BRANCH  10  13
ATOM     13  N   LIG    1       27.781 -28.067  13.425  0.00  0.00    -0.285 N 
ATOM     14  H   LIG    1       28.330 -27.870  12.587  0.00  0.00    +0.155 HD
ATOM     15  C   LIG    1       28.347 -28.888  14.386  0.00  0.00    +0.214 C 
ATOM     16  O   LIG    1       27.831 -29.220  15.450  0.00  0.00    -0.276 OA
ATOM     17  C   LIG    1       29.725 -29.389  14.024  0.00  0.00    +0.109 C 
ENDBRANCH  10  13
ENDBRANCH   1   2
BRANCH   1  22
ATOM     18  C   LIG    1       24.373 -30.192   7.690  0.00  0.00    +0.162 A 
ATOM     19  C   LIG    1       25.240 -31.266   7.421  0.00  0.00    +0.162 A 
ATOM     20  C   LIG    1       25.472 -32.205   8.437  0.00  0.00    +0.050 A 
ATOM     21  C   LIG    1       24.838 -32.109   9.685  0.00  0.00    +0.009 A 
ATOM     22  C   LIG    1       23.969 -31.055   9.969  0.00  0.00    -0.021 A 
ATOM     23  C   LIG    1       23.726 -30.140   8.936  0.00  0.00    +0.055 A 
BRANCH  19  24
ATOM     24  O   LIG    1       25.848 -31.342   6.190  0.00  0.00    -0.491 OA
ATOM     25  C   LIG    1       25.262 -32.266   5.265  0.00  0.00    +0.277 C 
ENDBRANCH  19  24
BRANCH  18  26
ATOM     26  O   LIG    1       24.211 -29.217   6.732  0.00  0.00    -0.489 OA
BRANCH  26  28
ATOM     27  C   LIG    1       24.428 -26.849   6.076  0.00  0.00    +0.048 C 
ATOM     28  C   LIG    1       25.024 -28.036   6.824  0.00  0.00    +0.226 C 
ENDBRANCH  26  28
ENDBRANCH  18  26
ENDBRANCH   1  22
BRANCH   1  29
ATOM     29  C   LIG    1       23.544 -32.141  12.208  0.00  0.00    +0.193 C 
BRANCH  29  30
ATOM     30  S   LIG    1       22.143 -32.401  13.301  0.00  0.00    -0.032 S 
ATOM     31  O   LIG    1       22.324 -31.554  14.454  0.00  0.00    -0.174 OA
ATOM     32  O   LIG    1       21.907 -33.825  13.468  0.00  0.00    -0.174 OA
ATOM     33  C   LIG    1       20.743 -31.773  12.393  0.00  0.00    +0.194 C 
ENDBRANCH  29  30
ENDBRANCH   1  29
TORSDOF 8
ENDMDL
MODEL 9
REMARK VINA RESULT:      -5.7      6.371     10.019
REMARK  Name = *****
REMARK                            x       y       z     vdW  Elec       q    Type
REMARK                         _______ _______ _______ _____ _____    ______ ____
ROOT
ATOM      1  C   LIG    1       25.833 -22.597   6.772  0.00  0.00    +0.136 C 
ENDROOT
BRANCH   1   2
ATOM      2  N   LIG    1       24.950 -21.660   6.051  0.00  0.00    -0.225 N 
ATOM      3  C   LIG    1       25.370 -20.600   5.301  0.00  0.00    +0.256 C 
ATOM      4  O   LIG    1       26.485 -20.221   5.047  0.00  0.00    -0.269 OA
ATOM      5  C   LIG    1       24.165 -19.928   4.787  0.00  0.00    +0.071 A 
ATOM      6  C   LIG    1       23.079 -20.648   5.252  0.00  0.00    +0.051 A 
ATOM      7  C   LIG    1       21.778 -20.318   4.943  0.00  0.00    +0.014 A 
ATOM      8  C   LIG    1       21.599 -19.220   4.110  0.00  0.00    +0.003 A 
ATOM      9  C   LIG    1       22.704 -18.473   3.635  0.00  0.00    +0.024 A 
ATOM     10  C   LIG    1       24.024 -18.805   3.983  0.00  0.00    +0.046 A 
ATOM     11  C   LIG    1       23.578 -21.731   6.073  0.00  0.00    +0.255 C 
ATOM     12  O   LIG    1       22.848 -22.513   6.676  0.00  0.00    -0.270 OA
BRANCH  10  13
ATOM     13  N   LIG    1       25.166 -18.069   3.577  0.00  0.00    -0.285 N 
ATOM     14  H   LIG    1       25.957 -18.629   3.253  0.00  0.00    +0.155 HD
ATOM     15  C   LIG    1       25.313 -16.692   3.581  0.00  0.00    +0.214 C 
ATOM     16  O   LIG    1       24.465 -15.875   3.930  0.00  0.00    -0.276 OA
ATOM     17  C   LIG    1       26.667 -16.222   3.106  0.00  0.00    +0.109 C 
ENDBRANCH  10  13
ENDBRANCH   1   2
BRANCH   1  22
ATOM     18  C   LIG    1       26.111 -26.454   6.500  0.00  0.00    +0.162 A 
ATOM     19  C   LIG    1       25.368 -26.725   5.338  0.00  0.00    +0.162 A 
ATOM     20  C   LIG    1       24.807 -25.646   4.639  0.00  0.00    +0.050 A 
ATOM     21  C   LIG    1       25.000 -24.320   5.057  0.00  0.00    +0.009 A 
ATOM     22  C   LIG    1       25.741 -24.030   6.203  0.00  0.00    -0.021 A 
ATOM     23  C   LIG    1       26.317 -25.115   6.876  0.00  0.00    +0.055 A 
BRANCH  19  24
ATOM     24  O   LIG    1       25.194 -28.032   4.945  0.00  0.00    -0.491 OA
ATOM     25  C   LIG    1       23.976 -28.650   5.374  0.00  0.00    +0.277 C 
ENDBRANCH  19  24
BRANCH  18  26
ATOM     26  O   LIG    1       26.588 -27.511   7.242  0.00  0.00    -0.489 OA
BRANCH  26  28
ATOM     27  C   LIG    1       26.627 -28.538   9.484  0.00  0.00    +0.048 C 
ATOM     28  C   LIG    1       25.788 -27.982   8.339  0.00  0.00    +0.226 C 
ENDBRANCH  26  28
ENDBRANCH  18  26
ENDBRANCH   1  22
BRANCH   1  29
ATOM     29  C   LIG    1       27.321 -22.158   6.815  0.00  0.00    +0.193 C 
BRANCH  29  30
ATOM     30  S   LIG    1       27.688 -21.223   8.302  0.00  0.00    -0.032 S 
ATOM     31  O   LIG    1       28.743 -21.913   9.005  0.00  0.00    -0.174 OA
ATOM     32  O   LIG    1       26.453 -20.883   8.988  0.00  0.00    -0.174 OA
ATOM     33  C   LIG    1       28.363 -19.683   7.710  0.00  0.00    +0.194 C 
ENDBRANCH  29  30
ENDBRANCH   1  29
TORSDOF 8
ENDMDL
