MODEL 1
REMARK VINA RESULT:      -3.1      0.000      0.000
REMARK  Name = *****
REMARK                            x       y       z     vdW  Elec       q    Type
REMARK                         _______ _______ _______ _____ _____    ______ ____
ROOT
ATOM      1  S   LIG    1       22.657 -18.612   4.320  0.00  0.00    +0.074 S 
ATOM      2  O   LIG    1       21.508 -18.561   3.446  0.00  0.00    -0.150 OA
ATOM      3  O   LIG    1       22.522 -18.834   5.747  0.00  0.00    -0.150 OA
ENDROOT
BRANCH   1   7
ATOM      4  C   LIG    1       24.968 -14.711   3.755  0.00  0.00    +0.025 A 
ATOM      5  C   LIG    1       23.697 -14.707   4.340  0.00  0.00    +0.024 A 
ATOM      6  C   LIG    1       22.980 -15.893   4.499  0.00  0.00    +0.030 A 
ATOM      7  C   LIG    1       23.557 -17.099   4.099  0.00  0.00    +0.109 A 
ATOM      8  C   LIG    1       24.854 -17.133   3.583  0.00  0.00    +0.030 A 
ATOM      9  C   LIG    1       25.558 -15.938   3.428  0.00  0.00    +0.024 A 
BRANCH   4  10
ATOM     10  N   LIG    1       25.726 -13.537   3.717  0.00  0.00    -0.358 N 
ATOM     11  H   LIG    1       25.259 -12.733   4.125  0.00  0.00    +0.142 HD
ATOM     12  H   LIG    1       26.121 -13.329   2.805  0.00  0.00    +0.142 HD
ENDBRANCH   4  10
ENDBRANCH   1   7
BRANCH   1  13
ATOM     13  N   LIG    1       23.811 -19.727   3.761  0.00  0.00    -0.194 N 
ATOM     14  H   LIG    1       24.530 -19.154   3.315  0.00  0.00    +0.176 HD
BRANCH  13  15
ATOM     15  C   LIG    1       24.457 -20.334   4.863  0.00  0.00    +0.177 A 
ATOM     16  S   LIG    1       23.766 -21.554   5.836  0.00  0.00    -0.059 S 
ATOM     17  C   LIG    1       25.203 -21.571   6.776  0.00  0.00    +0.068 A 
ATOM     18  C   LIG    1       26.110 -20.676   6.248  0.00  0.00    +0.120 A 
ATOM     19  N   LIG    1       25.702 -20.017   5.105  0.00  0.00    -0.232 NA
ENDBRANCH  13  15
ENDBRANCH   1  13
TORSDOF 4
ENDMDL
MODEL 2
REMARK VINA RESULT:      -3.1      0.142      1.217
REMARK  Name = *****
REMARK                            x       y       z     vdW  Elec       q    Type
REMARK                         _______ _______ _______ _____ _____    ______ ____
ROOT
ATOM      1  S   LIG    1       22.690 -18.638   4.262  0.00  0.00    +0.074 S 
ATOM      2  O   LIG    1       21.578 -18.561   3.343  0.00  0.00    -0.150 OA
ATOM      3  O   LIG    1       22.492 -18.841   5.684  0.00  0.00    -0.150 OA
ENDROOT
BRANCH   1   7
ATOM      4  C   LIG    1       25.149 -14.821   3.748  0.00  0.00    +0.025 A 
ATOM      5  C   LIG    1       25.651 -16.054   3.317  0.00  0.00    +0.024 A 
ATOM      6  C   LIG    1       24.911 -17.226   3.488  0.00  0.00    +0.030 A 
ATOM      7  C   LIG    1       23.642 -17.154   4.063  0.00  0.00    +0.109 A 
ATOM      8  C   LIG    1       23.094 -15.924   4.431  0.00  0.00    +0.030 A 
ATOM      9  C   LIG    1       23.846 -14.761   4.256  0.00  0.00    +0.024 A 
BRANCH   4  10
ATOM     10  N   LIG    1       25.843 -13.642   3.458  0.00  0.00    -0.358 N 
ATOM     11  H   LIG    1       26.840 -13.696   3.642  0.00  0.00    +0.142 HD
ATOM     12  H   LIG    1       25.423 -12.808   3.856  0.00  0.00    +0.142 HD
ENDBRANCH   4  10
ENDBRANCH   1   7
BRANCH   1  13
ATOM     13  N   LIG    1       23.831 -19.791   3.759  0.00  0.00    -0.194 N 
ATOM     14  H   LIG    1       24.570 -19.247   3.310  0.00  0.00    +0.176 HD
BRANCH  13  15
ATOM     15  C   LIG    1       24.443 -20.378   4.891  0.00  0.00    +0.177 A 
ATOM     16  S   LIG    1       23.707 -21.551   5.888  0.00  0.00    -0.059 S 
ATOM     17  C   LIG    1       25.125 -21.572   6.855  0.00  0.00    +0.068 A 
ATOM     18  C   LIG    1       26.063 -20.715   6.316  0.00  0.00    +0.120 A 
ATOM     19  N   LIG    1       25.691 -20.082   5.146  0.00  0.00    -0.232 NA
ENDBRANCH  13  15
ENDBRANCH   1  13
TORSDOF 4
ENDMDL
MODEL 3
REMARK VINA RESULT:      -2.9      1.223      1.273
REMARK  Name = *****
REMARK                            x       y       z     vdW  Elec       q    Type
REMARK                         _______ _______ _______ _____ _____    ______ ____
ROOT
ATOM      1  S   LIG    1       24.116 -19.099   3.736  0.00  0.00    +0.074 S 
ATOM      2  O   LIG    1       23.350 -19.353   2.538  0.00  0.00    -0.150 OA
ATOM      3  O   LIG    1       23.579 -19.364   5.057  0.00  0.00    -0.150 OA
ENDROOT
BRANCH   1   7
ATOM      4  C   LIG    1       25.382 -14.710   3.634  0.00  0.00    +0.025 A 
ATOM      5  C   LIG    1       24.099 -15.070   4.059  0.00  0.00    +0.024 A 
ATOM      6  C   LIG    1       23.701 -16.408   4.075  0.00  0.00    +0.030 A 
ATOM      7  C   LIG    1       24.611 -17.395   3.695  0.00  0.00    +0.109 A 
ATOM      8  C   LIG    1       25.919 -17.062   3.340  0.00  0.00    +0.030 A 
ATOM      9  C   LIG    1       26.301 -15.719   3.326  0.00  0.00    +0.024 A 
BRANCH   4  10
ATOM     10  N   LIG    1       25.810 -13.383   3.741  0.00  0.00    -0.358 N 
ATOM     11  H   LIG    1       26.019 -12.945   2.849  0.00  0.00    +0.142 HD
ATOM     12  H   LIG    1       26.550 -13.241   4.421  0.00  0.00    +0.142 HD
ENDBRANCH   4  10
ENDBRANCH   1   7
BRANCH   1  13
ATOM     13  N   LIG    1       25.638 -19.850   3.670  0.00  0.00    -0.194 N 
ATOM     14  H   LIG    1       26.299 -19.086   3.522  0.00  0.00    +0.176 HD
BRANCH  13  15
ATOM     15  C   LIG    1       25.964 -20.376   4.942  0.00  0.00    +0.177 A 
ATOM     16  S   LIG    1       25.058 -21.572   5.754  0.00  0.00    -0.059 S 
ATOM     17  C   LIG    1       26.173 -21.485   7.056  0.00  0.00    +0.068 A 
ATOM     18  C   LIG    1       27.171 -20.583   6.750  0.00  0.00    +0.120 A 
ATOM     19  N   LIG    1       27.084 -19.998   5.502  0.00  0.00    -0.232 NA
ENDBRANCH  13  15
ENDBRANCH   1  13
TORSDOF 4
ENDMDL
MODEL 4
REMARK VINA RESULT:      -2.8      4.031      6.856
REMARK  Name = *****
REMARK                            x       y       z     vdW  Elec       q    Type
REMARK                         _______ _______ _______ _____ _____    ______ ____
ROOT
ATOM      1  S   LIG    1       26.985 -14.634   3.303  0.00  0.00    +0.074 S 
ATOM      2  O   LIG    1       26.482 -14.473   1.958  0.00  0.00    -0.150 OA
ATOM      3  O   LIG    1       28.297 -14.153   3.690  0.00  0.00    -0.150 OA
ENDROOT
BRANCH   1   7
ATOM      4  C   LIG    1       26.816 -19.089   4.302  0.00  0.00    +0.025 A 
ATOM      5  C   LIG    1       27.882 -18.300   4.747  0.00  0.00    +0.024 A 
ATOM      6  C   LIG    1       27.948 -16.943   4.429  0.00  0.00    +0.030 A 
ATOM      7  C   LIG    1       26.916 -16.364   3.689  0.00  0.00    +0.109 A 
ATOM      8  C   LIG    1       25.807 -17.118   3.301  0.00  0.00    +0.030 A 
ATOM      9  C   LIG    1       25.757 -18.474   3.624  0.00  0.00    +0.024 A 
BRANCH   4  10
ATOM     10  N   LIG    1       26.698 -20.414   4.732  0.00  0.00    -0.358 N 
ATOM     11  H   LIG    1       27.544 -20.788   5.151  0.00  0.00    +0.142 HD
ATOM     12  H   LIG    1       26.306 -21.041   4.035  0.00  0.00    +0.142 HD
ENDBRANCH   4  10
ENDBRANCH   1   7
BRANCH   1  13
ATOM     13  N   LIG    1       25.888 -14.030   4.451  0.00  0.00    -0.194 N 
ATOM     14  H   LIG    1       26.468 -13.528   5.126  0.00  0.00    +0.176 HD
BRANCH  13  15
ATOM     15  C   LIG    1       25.075 -13.038   3.856  0.00  0.00    +0.177 A 
ATOM     16  S   LIG    1       25.042 -12.690   2.186  0.00  0.00    -0.059 S 
ATOM     17  C   LIG    1       23.879 -11.466   2.497  0.00  0.00    +0.068 A 
ATOM     18  C   LIG    1       23.577 -11.450   3.843  0.00  0.00    +0.120 A 
ATOM     19  N   LIG    1       24.217 -12.403   4.611  0.00  0.00    -0.232 NA
ENDBRANCH  13  15
ENDBRANCH   1  13
TORSDOF 4
ENDMDL
MODEL 5
REMARK VINA RESULT:      -2.5      2.161      5.333
REMARK  Name = *****
REMARK                            x       y       z     vdW  Elec       q    Type
REMARK                         _______ _______ _______ _____ _____    ______ ____
ROOT
ATOM      1  S   LIG    1       23.866 -20.333   4.806  0.00  0.00    +0.074 S 
ATOM      2  O   LIG    1       23.007 -19.806   5.841  0.00  0.00    -0.150 OA
ATOM      3  O   LIG    1       23.560 -21.572   4.117  0.00  0.00    -0.150 OA
ENDROOT
BRANCH   1   7
ATOM      4  C   LIG    1       28.048 -20.760   6.597  0.00  0.00    +0.025 A 
ATOM      5  C   LIG    1       26.998 -21.572   7.040  0.00  0.00    +0.024 A 
ATOM      6  C   LIG    1       25.714 -21.433   6.509  0.00  0.00    +0.030 A 
ATOM      7  C   LIG    1       25.491 -20.496   5.499  0.00  0.00    +0.109 A 
ATOM      8  C   LIG    1       26.542 -19.730   4.991  0.00  0.00    +0.030 A 
ATOM      9  C   LIG    1       27.819 -19.878   5.534  0.00  0.00    +0.024 A 
BRANCH   4  10
ATOM     10  N   LIG    1       29.352 -20.994   7.045  0.00  0.00    -0.358 N 
ATOM     11  H   LIG    1       29.416 -21.700   7.772  0.00  0.00    +0.142 HD
ATOM     12  H   LIG    1       29.864 -20.150   7.284  0.00  0.00    +0.142 HD
ENDBRANCH   4  10
ENDBRANCH   1   7
BRANCH   1  13
ATOM     13  N   LIG    1       24.173 -19.171   3.604  0.00  0.00    -0.194 N 
ATOM     14  H   LIG    1       23.619 -19.476   2.802  0.00  0.00    +0.176 HD
BRANCH  13  15
ATOM     15  C   LIG    1       23.611 -17.932   3.988  0.00  0.00    +0.177 A 
ATOM     16  S   LIG    1       24.448 -16.444   3.969  0.00  0.00    -0.059 S 
ATOM     17  C   LIG    1       23.031 -15.677   4.562  0.00  0.00    +0.068 A 
ATOM     18  C   LIG    1       22.021 -16.608   4.687  0.00  0.00    +0.120 A 
ATOM     19  N   LIG    1       22.339 -17.892   4.290  0.00  0.00    -0.232 NA
ENDBRANCH  13  15
ENDBRANCH   1  13
TORSDOF 4
ENDMDL
MODEL 6
REMARK VINA RESULT:      -2.4      3.621      6.210
REMARK  Name = *****
REMARK                            x       y       z     vdW  Elec       q    Type
REMARK                         _______ _______ _______ _____ _____    ______ ____
ROOT
ATOM      1  S   LIG    1       25.550 -15.176   3.435  0.00  0.00    +0.074 S 
ATOM      2  O   LIG    1       24.825 -14.341   4.364  0.00  0.00    -0.150 OA
ATOM      3  O   LIG    1       25.617 -14.865   2.020  0.00  0.00    -0.150 OA
ENDROOT
BRANCH   1   7
ATOM      4  C   LIG    1       23.898 -19.418   3.828  0.00  0.00    +0.025 A 
ATOM      5  C   LIG    1       25.236 -19.206   3.479  0.00  0.00    +0.024 A 
ATOM      6  C   LIG    1       25.741 -17.912   3.340  0.00  0.00    +0.030 A 
ATOM      7  C   LIG    1       24.906 -16.822   3.589  0.00  0.00    +0.109 A 
ATOM      8  C   LIG    1       23.589 -17.014   4.011  0.00  0.00    +0.030 A 
ATOM      9  C   LIG    1       23.097 -18.314   4.143  0.00  0.00    +0.024 A 
BRANCH   4  10
ATOM     10  N   LIG    1       23.438 -20.713   4.086  0.00  0.00    -0.358 N 
ATOM     11  H   LIG    1       23.747 -21.402   3.408  0.00  0.00    +0.142 HD
ATOM     12  H   LIG    1       22.439 -20.769   4.262  0.00  0.00    +0.142 HD
ENDBRANCH   4  10
ENDBRANCH   1   7
BRANCH   1  13
ATOM     13  N   LIG    1       27.148 -15.435   3.952  0.00  0.00    -0.194 N 
ATOM     14  H   LIG    1       27.643 -15.750   3.116  0.00  0.00    +0.176 HD
BRANCH  13  15
ATOM     15  C   LIG    1       27.744 -14.198   4.288  0.00  0.00    +0.177 A 
ATOM     16  S   LIG    1       27.516 -13.386   5.772  0.00  0.00    -0.059 S 
ATOM     17  C   LIG    1       28.545 -12.133   5.207  0.00  0.00    +0.068 A 
ATOM     18  C   LIG    1       29.014 -12.454   3.949  0.00  0.00    +0.120 A 
ATOM     19  N   LIG    1       28.606 -13.676   3.453  0.00  0.00    -0.232 NA
ENDBRANCH  13  15
ENDBRANCH   1  13
TORSDOF 4
ENDMDL
MODEL 7
REMARK VINA RESULT:      -2.3      2.036      2.402
REMARK  Name = *****
REMARK                            x       y       z     vdW  Elec       q    Type
REMARK                         _______ _______ _______ _____ _____    ______ ____
ROOT
ATOM      1  S   LIG    1       25.394 -18.404   3.460  0.00  0.00    +0.074 S 
ATOM      2  O   LIG    1       26.252 -18.805   4.551  0.00  0.00    -0.150 OA
ATOM      3  O   LIG    1       25.752 -18.654   2.077  0.00  0.00    -0.150 OA
ENDROOT
BRANCH   1   7
ATOM      4  C   LIG    1       24.636 -13.920   3.897  0.00  0.00    +0.025 A 
ATOM      5  C   LIG    1       23.639 -14.845   4.224  0.00  0.00    +0.024 A 
ATOM      6  C   LIG    1       23.859 -16.215   4.075  0.00  0.00    +0.030 A 
ATOM      7  C   LIG    1       25.103 -16.663   3.629  0.00  0.00    +0.109 A 
ATOM      8  C   LIG    1       26.135 -15.759   3.370  0.00  0.00    +0.030 A 
ATOM      9  C   LIG    1       25.899 -14.392   3.521  0.00  0.00    +0.024 A 
BRANCH   4  10
ATOM     10  N   LIG    1       24.448 -12.561   4.169  0.00  0.00    -0.358 N 
ATOM     11  H   LIG    1       23.944 -12.381   5.032  0.00  0.00    +0.142 HD
ATOM     12  H   LIG    1       24.074 -12.032   3.388  0.00  0.00    +0.142 HD
ENDBRANCH   4  10
ENDBRANCH   1   7
BRANCH   1  13
ATOM     13  N   LIG    1       23.813 -18.990   3.667  0.00  0.00    -0.194 N 
ATOM     14  H   LIG    1       23.644 -19.576   2.847  0.00  0.00    +0.176 HD
BRANCH  13  15
ATOM     15  C   LIG    1       23.776 -19.878   4.766  0.00  0.00    +0.177 A 
ATOM     16  S   LIG    1       24.856 -21.180   4.995  0.00  0.00    -0.059 S 
ATOM     17  C   LIG    1       24.025 -21.571   6.445  0.00  0.00    +0.068 A 
ATOM     18  C   LIG    1       23.018 -20.653   6.662  0.00  0.00    +0.120 A 
ATOM     19  N   LIG    1       22.923 -19.640   5.729  0.00  0.00    -0.232 NA
ENDBRANCH  13  15
ENDBRANCH   1  13
TORSDOF 4
ENDMDL
MODEL 8
REMARK VINA RESULT:      -2.2      2.009      2.594
REMARK  Name = *****
REMARK                            x       y       z     vdW  Elec       q    Type
REMARK                         _______ _______ _______ _____ _____    ______ ____
ROOT
ATOM      1  S   LIG    1       25.407 -18.538   3.456  0.00  0.00    +0.074 S 
ATOM      2  O   LIG    1       26.301 -18.930   4.521  0.00  0.00    -0.150 OA
ATOM      3  O   LIG    1       25.729 -18.775   2.062  0.00  0.00    -0.150 OA
ENDROOT
BRANCH   1   7
ATOM      4  C   LIG    1       24.606 -14.065   3.934  0.00  0.00    +0.025 A 
ATOM      5  C   LIG    1       25.835 -14.519   3.442  0.00  0.00    +0.024 A 
ATOM      6  C   LIG    1       26.091 -15.885   3.312  0.00  0.00    +0.030 A 
ATOM      7  C   LIG    1       25.093 -16.802   3.643  0.00  0.00    +0.109 A 
ATOM      8  C   LIG    1       23.835 -16.366   4.063  0.00  0.00    +0.030 A 
ATOM      9  C   LIG    1       23.594 -14.997   4.191  0.00  0.00    +0.024 A 
BRANCH   4  10
ATOM     10  N   LIG    1       24.317 -12.697   3.941  0.00  0.00    -0.358 N 
ATOM     11  H   LIG    1       23.349 -12.481   3.720  0.00  0.00    +0.142 HD
ATOM     12  H   LIG    1       24.968 -12.134   3.404  0.00  0.00    +0.142 HD
ENDBRANCH   4  10
ENDBRANCH   1   7
BRANCH   1  13
ATOM     13  N   LIG    1       23.842 -19.150   3.705  0.00  0.00    -0.194 N 
ATOM     14  H   LIG    1       23.681 -19.780   2.917  0.00  0.00    +0.176 HD
BRANCH  13  15
ATOM     15  C   LIG    1       23.834 -19.982   4.848  0.00  0.00    +0.177 A 
ATOM     16  S   LIG    1       24.982 -21.205   5.161  0.00  0.00    -0.059 S 
ATOM     17  C   LIG    1       24.146 -21.572   6.615  0.00  0.00    +0.068 A 
ATOM     18  C   LIG    1       23.083 -20.705   6.767  0.00  0.00    +0.120 A 
ATOM     19  N   LIG    1       22.949 -19.747   5.782  0.00  0.00    -0.232 NA
ENDBRANCH  13  15
ENDBRANCH   1  13
TORSDOF 4
ENDMDL
MODEL 9
REMARK VINA RESULT:      -2.1      2.713      6.084
REMARK  Name = *****
REMARK                            x       y       z     vdW  Elec       q    Type
REMARK                         _______ _______ _______ _____ _____    ______ ____
ROOT
ATOM      1  S   LIG    1       22.936 -15.680   4.442  0.00  0.00    +0.074 S 
ATOM      2  O   LIG    1       22.331 -15.449   5.733  0.00  0.00    -0.150 OA
ATOM      3  O   LIG    1       22.295 -15.256   3.212  0.00  0.00    -0.150 OA
ENDROOT
BRANCH   1   7
ATOM      4  C   LIG    1       23.728 -20.167   4.099  0.00  0.00    +0.025 A 
ATOM      5  C   LIG    1       22.513 -19.697   4.607  0.00  0.00    +0.024 A 
ATOM      6  C   LIG    1       22.273 -18.327   4.731  0.00  0.00    +0.030 A 
ATOM      7  C   LIG    1       23.247 -17.422   4.308  0.00  0.00    +0.109 A 
ATOM      8  C   LIG    1       24.435 -17.872   3.728  0.00  0.00    +0.030 A 
ATOM      9  C   LIG    1       24.662 -19.244   3.614  0.00  0.00    +0.024 A 
BRANCH   4  10
ATOM     10  N   LIG    1       23.908 -21.534   3.864  0.00  0.00    -0.358 N 
ATOM     11  H   LIG    1       23.170 -21.955   3.307  0.00  0.00    +0.142 HD
ATOM     12  H   LIG    1       24.114 -22.074   4.698  0.00  0.00    +0.142 HD
ENDBRANCH   4  10
ENDBRANCH   1   7
BRANCH   1  13
ATOM     13  N   LIG    1       24.528 -15.091   4.389  0.00  0.00    -0.194 N 
ATOM     14  H   LIG    1       25.032 -15.756   3.799  0.00  0.00    +0.176 HD
BRANCH  13  15
ATOM     15  C   LIG    1       24.559 -13.870   3.675  0.00  0.00    +0.177 A 
ATOM     16  S   LIG    1       25.413 -13.623   2.219  0.00  0.00    -0.059 S 
ATOM     17  C   LIG    1       24.863 -11.997   2.210  0.00  0.00    +0.068 A 
ATOM     18  C   LIG    1       24.037 -11.784   3.295  0.00  0.00    +0.120 A 
ATOM     19  N   LIG    1       23.809 -12.885   4.097  0.00  0.00    -0.232 NA
ENDBRANCH  13  15
ENDBRANCH   1  13
TORSDOF 4
ENDMDL
