MODEL 1
REMARK VINA RESULT:       2.2      0.000      0.000
REMARK  Name = *****
REMARK                            x       y       z     vdW  Elec       q    Type
REMARK                         _______ _______ _______ _____ _____    ______ ____
ROOT
ATOM      1  C   LIG    1       25.054 -18.646   3.913  0.00  0.00    +0.008 A 
ATOM      2  C   LIG    1       25.832 -17.381   3.893  0.00  0.00    -0.002 A 
ATOM      3  C   LIG    1       27.149 -17.397   4.543  0.00  0.00    +0.004 A 
ATOM      4  C   LIG    1       27.668 -18.660   4.955  0.00  0.00    +0.052 A 
ATOM      5  N   LIG    1       26.929 -19.799   4.877  0.00  0.00    -0.255 NA
ATOM      6  C   LIG    1       25.672 -19.831   4.401  0.00  0.00    +0.050 A 
ENDROOT
BRANCH   2   7
ATOM      7  C   LIG    1       25.266 -16.075   3.237  0.00  0.00    -0.017 A 
ATOM      8  C   LIG    1       26.001 -15.343   2.271  0.00  0.00    +0.011 A 
ATOM      9  C   LIG    1       25.699 -14.013   1.897  0.00  0.00    +0.039 A 
ATOM     10  C   LIG    1       24.606 -13.374   2.445  0.00  0.00    +0.123 A 
ATOM     11  F   LIG    1       24.389 -12.078   2.187  0.00  0.00    -0.205 F 
ATOM     12  C   LIG    1       23.783 -14.065   3.316  0.00  0.00    +0.039 A 
ATOM     13  C   LIG    1       24.094 -15.403   3.685  0.00  0.00    +0.011 A 
ENDBRANCH   2   7
BRANCH   4  14
ATOM     14  C   LIG    1       29.046 -19.026   5.518  0.00  0.00    +0.032 C 
ATOM     15  C   LIG    1       29.330 -20.439   5.999  0.00  0.00    +0.014 C 
ATOM     16  C   LIG    1       29.475 -18.058   6.651  0.00  0.00    +0.014 C 
ENDBRANCH   4  14
BRANCH   6  17
ATOM     17  C   LIG    1       25.054 -21.245   4.494  0.00  0.00    +0.032 C 
ATOM     18  C   LIG    1       24.153 -21.562   3.291  0.00  0.00    +0.014 C 
ATOM     19  C   LIG    1       24.205 -21.463   5.773  0.00  0.00    +0.014 C 
ENDBRANCH   6  17
BRANCH   3  20
ATOM     20  C   LIG    1       27.994 -16.156   4.717  0.00  0.00    +0.008 C 
ATOM     21  C   LIG    1       27.853 -14.939   4.127  0.00  0.00    +0.005 C 
BRANCH  21  22
ATOM     22  C   LIG    1       28.730 -13.700   4.380  0.00  0.00    +0.140 C 
BRANCH  22  23
ATOM     23  O   LIG    1       29.093 -13.144   3.121  0.00  0.00    -0.388 OA
ATOM     24  H   LIG    1       28.926 -13.817   2.437  0.00  0.00    +0.210 HD
ENDBRANCH  22  23
BRANCH  22  25
ATOM     25  C   LIG    1       28.003 -12.585   5.168  0.00  0.00    +0.067 C 
BRANCH  25  26
ATOM     26  C   LIG    1       26.493 -12.780   5.492  0.00  0.00    +0.128 C 
BRANCH  26  27
ATOM     27  O   LIG    1       26.395 -13.677   6.625  0.00  0.00    -0.391 OA
ATOM     28  H   LIG    1       27.161 -14.284   6.572  0.00  0.00    +0.210 HD
ENDBRANCH  26  27
BRANCH  26  29
ATOM     29  C   LIG    1       25.776 -11.447   5.851  0.00  0.00    +0.151 C 
BRANCH  29  30
ATOM     30  C   LIG    1       24.241 -11.454   5.657  0.00  0.00    +0.307 C 
ATOM     31  O   LIG    1       23.470 -11.496   6.577  0.00  0.00    -0.251 OA
BRANCH  30  32
ATOM     32  O   LIG    1       23.856 -11.530   4.337  0.00  0.00    -0.481 OA
ATOM     33  H   LIG    1       23.732 -10.716   3.889  0.00  0.00    +0.295 HD
ENDBRANCH  30  32
ENDBRANCH  29  30
ENDBRANCH  26  29
ENDBRANCH  25  26
ENDBRANCH  22  25
ENDBRANCH  21  22
ENDBRANCH   3  20
BRANCH   1  34
ATOM     34  C   LIG    1       23.588 -18.777   3.476  0.00  0.00    +0.197 C 
BRANCH  34  36
ATOM     35  C   LIG    1       21.573 -17.908   4.411  0.00  0.00    +0.194 C 
ATOM     36  O   LIG    1       22.614 -18.856   4.524  0.00  0.00    -0.378 OA
ENDBRANCH  34  36
ENDBRANCH   1  34
TORSDOF 14
ENDMDL
MODEL 2
REMARK VINA RESULT:       2.5      2.613      5.119
REMARK  Name = *****
REMARK                            x       y       z     vdW  Elec       q    Type
REMARK                         _______ _______ _______ _____ _____    ______ ____
ROOT
ATOM      1  C   LIG    1       23.366 -19.590   4.511  0.00  0.00    +0.008 A 
ATOM      2  C   LIG    1       24.649 -18.843   4.494  0.00  0.00    -0.002 A 
ATOM      3  C   LIG    1       24.593 -17.429   4.100  0.00  0.00    +0.004 A 
ATOM      4  C   LIG    1       23.305 -16.830   3.969  0.00  0.00    +0.052 A 
ATOM      5  N   LIG    1       22.162 -17.558   4.071  0.00  0.00    -0.255 NA
ATOM      6  C   LIG    1       22.149 -18.880   4.312  0.00  0.00    +0.050 A 
ENDROOT
BRANCH   2   7
ATOM      7  C   LIG    1       26.011 -19.534   4.847  0.00  0.00    -0.017 A 
ATOM      8  C   LIG    1       26.065 -20.788   5.508  0.00  0.00    +0.011 A 
ATOM      9  C   LIG    1       27.227 -21.294   6.136  0.00  0.00    +0.039 A 
ATOM     10  C   LIG    1       28.406 -20.580   6.083  0.00  0.00    +0.123 A 
ATOM     11  F   LIG    1       29.472 -20.995   6.779  0.00  0.00    -0.205 F 
ATOM     12  C   LIG    1       28.452 -19.398   5.364  0.00  0.00    +0.039 A 
ATOM     13  C   LIG    1       27.279 -18.897   4.736  0.00  0.00    +0.011 A 
ENDBRANCH   2   7
BRANCH   4  14
ATOM     14  C   LIG    1       22.916 -15.368   3.720  0.00  0.00    +0.032 C 
ATOM     15  C   LIG    1       23.582 -14.573   2.610  0.00  0.00    +0.014 C 
ATOM     16  C   LIG    1       23.014 -14.523   5.017  0.00  0.00    +0.014 C 
ENDBRANCH   4  14
BRANCH   6  17
ATOM     17  C   LIG    1       20.714 -19.455   4.308  0.00  0.00    +0.032 C 
ATOM     18  C   LIG    1       20.697 -20.964   4.018  0.00  0.00    +0.014 C 
ATOM     19  C   LIG    1       19.782 -18.779   3.269  0.00  0.00    +0.014 C 
ENDBRANCH   6  17
BRANCH   3  20
ATOM     20  C   LIG    1       25.829 -16.580   3.909  0.00  0.00    +0.008 C 
ATOM     21  C   LIG    1       26.056 -15.597   2.997  0.00  0.00    +0.005 C 
BRANCH  21  22
ATOM     22  C   LIG    1       27.329 -14.740   2.884  0.00  0.00    +0.140 C 
BRANCH  22  23
ATOM     23  O   LIG    1       26.950 -13.426   2.487  0.00  0.00    -0.388 OA
ATOM     24  H   LIG    1       26.049 -13.261   2.818  0.00  0.00    +0.210 HD
ENDBRANCH  22  23
BRANCH  22  25
ATOM     25  C   LIG    1       28.095 -14.600   4.220  0.00  0.00    +0.067 C 
BRANCH  25  26
ATOM     26  C   LIG    1       28.736 -13.222   4.557  0.00  0.00    +0.128 C 
BRANCH  26  27
ATOM     27  O   LIG    1       29.033 -12.554   3.307  0.00  0.00    -0.391 OA
ATOM     28  H   LIG    1       30.001 -12.619   3.175  0.00  0.00    +0.210 HD
ENDBRANCH  26  27
BRANCH  26  29
ATOM     29  C   LIG    1       27.797 -12.310   5.397  0.00  0.00    +0.151 C 
BRANCH  29  30
ATOM     30  C   LIG    1       26.448 -12.951   5.801  0.00  0.00    +0.307 C 
ATOM     31  O   LIG    1       26.324 -13.646   6.774  0.00  0.00    -0.251 OA
BRANCH  30  32
ATOM     32  O   LIG    1       25.447 -12.748   4.879  0.00  0.00    -0.481 OA
ATOM     33  H   LIG    1       25.706 -12.721   3.978  0.00  0.00    +0.295 HD
ENDBRANCH  30  32
ENDBRANCH  29  30
ENDBRANCH  26  29
ENDBRANCH  25  26
ENDBRANCH  22  25
ENDBRANCH  21  22
ENDBRANCH   3  20
BRANCH   1  34
ATOM     34  C   LIG    1       23.242 -21.110   4.690  0.00  0.00    +0.197 C 
BRANCH  34  36
ATOM     35  C   LIG    1       23.220 -20.737   7.047  0.00  0.00    +0.194 C 
ATOM     36  O   LIG    1       22.814 -21.568   5.978  0.00  0.00    -0.378 OA
ENDBRANCH  34  36
ENDBRANCH   1  34
TORSDOF 14
ENDMDL
MODEL 3
REMARK VINA RESULT:       3.7      2.264      4.691
REMARK  Name = *****
REMARK                            x       y       z     vdW  Elec       q    Type
REMARK                         _______ _______ _______ _____ _____    ______ ____
ROOT
ATOM      1  C   LIG    1       26.707 -18.770   4.788  0.00  0.00    +0.008 A 
ATOM      2  C   LIG    1       25.646 -17.976   4.119  0.00  0.00    -0.002 A 
ATOM      3  C   LIG    1       25.975 -16.590   3.760  0.00  0.00    +0.004 A 
ATOM      4  C   LIG    1       27.335 -16.180   3.887  0.00  0.00    +0.052 A 
ATOM      5  N   LIG    1       28.279 -16.985   4.443  0.00  0.00    -0.255 NA
ATOM      6  C   LIG    1       28.015 -18.222   4.900  0.00  0.00    +0.050 A 
ENDROOT
BRANCH   2   7
ATOM      7  C   LIG    1       24.225 -18.573   3.833  0.00  0.00    -0.017 A 
ATOM      8  C   LIG    1       23.047 -17.793   3.952  0.00  0.00    +0.011 A 
ATOM      9  C   LIG    1       21.747 -18.342   4.031  0.00  0.00    +0.039 A 
ATOM     10  C   LIG    1       21.568 -19.707   3.943  0.00  0.00    +0.123 A 
ATOM     11  F   LIG    1       20.354 -20.238   4.140  0.00  0.00    -0.205 F 
ATOM     12  C   LIG    1       22.664 -20.521   3.720  0.00  0.00    +0.039 A 
ATOM     13  C   LIG    1       23.968 -19.960   3.641  0.00  0.00    +0.011 A 
ENDBRANCH   2   7
BRANCH   4  14
ATOM     14  C   LIG    1       28.016 -14.873   3.465  0.00  0.00    +0.032 C 
ATOM     15  C   LIG    1       28.286 -13.781   4.487  0.00  0.00    +0.014 C 
ATOM     16  C   LIG    1       27.290 -14.212   2.265  0.00  0.00    +0.014 C 
ENDBRANCH   4  14
BRANCH   6  17
ATOM     17  C   LIG    1       29.260 -18.879   5.539  0.00  0.00    +0.032 C 
ATOM     18  C   LIG    1       29.194 -20.414   5.487  0.00  0.00    +0.014 C 
ATOM     19  C   LIG    1       29.474 -18.480   7.022  0.00  0.00    +0.014 C 
ENDBRANCH   6  17
BRANCH   3  20
ATOM     20  C   LIG    1       24.958 -15.624   3.196  0.00  0.00    +0.008 C 
ATOM     21  C   LIG    1       25.147 -14.355   2.746  0.00  0.00    +0.005 C 
BRANCH  21  22
ATOM     22  C   LIG    1       24.069 -13.436   2.144  0.00  0.00    +0.140 C 
BRANCH  22  23
ATOM     23  O   LIG    1       22.808 -13.804   2.696  0.00  0.00    -0.388 OA
ATOM     24  H   LIG    1       22.608 -14.711   2.407  0.00  0.00    +0.210 HD
ENDBRANCH  22  23
BRANCH  22  25
ATOM     25  C   LIG    1       24.283 -11.940   2.475  0.00  0.00    +0.067 C 
BRANCH  25  26
ATOM     26  C   LIG    1       24.123 -11.486   3.955  0.00  0.00    +0.128 C 
BRANCH  26  27
ATOM     27  O   LIG    1       22.950 -12.140   4.496  0.00  0.00    -0.391 OA
ATOM     28  H   LIG    1       23.023 -13.088   4.264  0.00  0.00    +0.210 HD
ENDBRANCH  26  27
BRANCH  26  29
ATOM     29  C   LIG    1       25.350 -11.859   4.836  0.00  0.00    +0.151 C 
BRANCH  29  30
ATOM     30  C   LIG    1       25.230 -13.203   5.592  0.00  0.00    +0.307 C 
ATOM     31  O   LIG    1       24.238 -13.881   5.560  0.00  0.00    -0.251 OA
BRANCH  30  32
ATOM     32  O   LIG    1       26.316 -13.480   6.392  0.00  0.00    -0.481 OA
ATOM     33  H   LIG    1       27.076 -13.823   5.963  0.00  0.00    +0.295 HD
ENDBRANCH  30  32
ENDBRANCH  29  30
ENDBRANCH  26  29
ENDBRANCH  25  26
ENDBRANCH  22  25
ENDBRANCH  21  22
ENDBRANCH   3  20
BRANCH   1  34
ATOM     34  C   LIG    1       26.496 -20.153   5.422  0.00  0.00    +0.197 C 
BRANCH  34  36
ATOM     35  C   LIG    1       24.900 -21.149   6.890  0.00  0.00    +0.194 C 
ATOM     36  O   LIG    1       25.910 -20.173   6.729  0.00  0.00    -0.378 OA
ENDBRANCH  34  36
ENDBRANCH   1  34
TORSDOF 14
ENDMDL
