MODEL 1
REMARK VINA RESULT:      -3.7      0.000      0.000
REMARK  Name = *****
REMARK                            x       y       z     vdW  Elec       q    Type
REMARK                         _______ _______ _______ _____ _____    ______ ____
ROOT
ATOM      1  S   LIG    1       22.549 -18.579   4.224  0.00  0.00    +0.075 S 
ATOM      2  O   LIG    1       22.363 -18.878   5.626  0.00  0.00    -0.150 OA
ATOM      3  O   LIG    1       21.405 -18.537   3.328  0.00  0.00    -0.150 OA
ENDROOT
BRANCH   1   4
ATOM      4  C   LIG    1       23.410 -17.032   4.117  0.00  0.00    +0.109 A 
ATOM      5  C   LIG    1       22.805 -15.852   4.558  0.00  0.00    +0.030 A 
ATOM      6  C   LIG    1       23.519 -14.650   4.469  0.00  0.00    +0.024 A 
ATOM      7  C   LIG    1       24.828 -14.627   3.970  0.00  0.00    +0.025 A 
ATOM      8  C   LIG    1       25.373 -15.805   3.455  0.00  0.00    +0.024 A 
ATOM      9  C   LIG    1       24.673 -17.006   3.534  0.00  0.00    +0.030 A 
BRANCH   7  10
ATOM     10  N   LIG    1       25.491 -13.410   3.772  0.00  0.00    -0.358 N 
ATOM     11  H   LIG    1       25.390 -12.757   4.542  0.00  0.00    +0.142 HD
ATOM     12  H   LIG    1       26.459 -13.517   3.483  0.00  0.00    +0.142 HD
ENDBRANCH   7  10
ENDBRANCH   1   4
BRANCH   1  13
ATOM     13  N   LIG    1       23.663 -19.685   3.654  0.00  0.00    -0.184 N 
ATOM     14  H   LIG    1       24.151 -19.301   2.852  0.00  0.00    +0.177 HD
BRANCH  13  18
ATOM     15  C   LIG    1       26.525 -21.055   6.213  0.00  0.00    +0.156 A 
ATOM     16  C   LIG    1       26.741 -20.071   5.269  0.00  0.00    +0.161 A 
ATOM     17  N   LIG    1       25.792 -19.595   4.439  0.00  0.00    -0.218 NA
ATOM     18  C   LIG    1       24.583 -20.132   4.595  0.00  0.00    +0.235 A 
ATOM     19  N   LIG    1       24.239 -21.104   5.443  0.00  0.00    -0.218 NA
ATOM     20  C   LIG    1       25.238 -21.556   6.236  0.00  0.00    +0.161 A 
BRANCH  15  22
ATOM     21  C   LIG    1       28.766 -21.031   6.895  0.00  0.00    +0.277 C 
ATOM     22  O   LIG    1       27.453 -21.572   7.062  0.00  0.00    -0.492 OA
ENDBRANCH  15  22
ENDBRANCH  13  18
ENDBRANCH   1  13
TORSDOF 5
ENDMDL
MODEL 2
REMARK VINA RESULT:      -3.4      2.183      5.807
REMARK  Name = *****
REMARK                            x       y       z     vdW  Elec       q    Type
REMARK                         _______ _______ _______ _____ _____    ______ ____
ROOT
ATOM      1  S   LIG    1       23.527 -19.937   4.705  0.00  0.00    +0.075 S 
ATOM      2  O   LIG    1       23.067 -21.206   4.186  0.00  0.00    -0.150 OA
ATOM      3  O   LIG    1       22.738 -19.226   5.698  0.00  0.00    -0.150 OA
ENDROOT
BRANCH   1   4
ATOM      4  C   LIG    1       25.160 -20.182   5.348  0.00  0.00    +0.109 A 
ATOM      5  C   LIG    1       26.276 -19.707   4.652  0.00  0.00    +0.030 A 
ATOM      6  C   LIG    1       27.551 -19.908   5.197  0.00  0.00    +0.024 A 
ATOM      7  C   LIG    1       27.712 -20.551   6.430  0.00  0.00    +0.025 A 
ATOM      8  C   LIG    1       26.589 -21.093   7.059  0.00  0.00    +0.024 A 
ATOM      9  C   LIG    1       25.316 -20.904   6.528  0.00  0.00    +0.030 A 
BRANCH   7  10
ATOM     10  N   LIG    1       28.991 -20.854   6.911  0.00  0.00    -0.358 N 
ATOM     11  H   LIG    1       29.451 -20.078   7.375  0.00  0.00    +0.142 HD
ATOM     12  H   LIG    1       29.027 -21.708   7.461  0.00  0.00    +0.142 HD
ENDBRANCH   7  10
ENDBRANCH   1   4
BRANCH   1  13
ATOM     13  N   LIG    1       23.773 -18.952   3.379  0.00  0.00    -0.184 N 
ATOM     14  H   LIG    1       22.965 -18.991   2.766  0.00  0.00    +0.177 HD
BRANCH  13  18
ATOM     15  C   LIG    1       24.439 -14.999   4.118  0.00  0.00    +0.156 A 
ATOM     16  C   LIG    1       23.263 -15.653   4.425  0.00  0.00    +0.161 A 
ATOM     17  N   LIG    1       23.046 -16.966   4.208  0.00  0.00    -0.218 NA
ATOM     18  C   LIG    1       24.073 -17.628   3.678  0.00  0.00    +0.235 A 
ATOM     19  N   LIG    1       25.251 -17.121   3.308  0.00  0.00    -0.218 NA
ATOM     20  C   LIG    1       25.403 -15.795   3.531  0.00  0.00    +0.161 A 
BRANCH  15  22
ATOM     21  C   LIG    1       24.044 -12.811   3.377  0.00  0.00    +0.277 C 
ATOM     22  O   LIG    1       24.695 -13.677   4.310  0.00  0.00    -0.492 OA
ENDBRANCH  15  22
ENDBRANCH  13  18
ENDBRANCH   1  13
TORSDOF 5
ENDMDL
MODEL 3
REMARK VINA RESULT:      -3.2      3.244      4.263
REMARK  Name = *****
REMARK                            x       y       z     vdW  Elec       q    Type
REMARK                         _______ _______ _______ _____ _____    ______ ____
ROOT
ATOM      1  S   LIG    1       25.558 -15.290   3.234  0.00  0.00    +0.075 S 
ATOM      2  O   LIG    1       24.441 -15.431   4.140  0.00  0.00    -0.150 OA
ATOM      3  O   LIG    1       25.334 -14.874   1.859  0.00  0.00    -0.150 OA
ENDROOT
BRANCH   1   4
ATOM      4  C   LIG    1       26.717 -14.176   3.981  0.00  0.00    +0.109 A 
ATOM      5  C   LIG    1       26.507 -13.699   5.278  0.00  0.00    +0.030 A 
ATOM      6  C   LIG    1       27.449 -12.829   5.842  0.00  0.00    +0.024 A 
ATOM      7  C   LIG    1       28.599 -12.459   5.133  0.00  0.00    +0.025 A 
ATOM      8  C   LIG    1       28.738 -12.879   3.808  0.00  0.00    +0.024 A 
ATOM      9  C   LIG    1       27.807 -13.741   3.234  0.00  0.00    +0.030 A 
BRANCH   7  10
ATOM     10  N   LIG    1       29.475 -11.498   5.652  0.00  0.00    -0.358 N 
ATOM     11  H   LIG    1       30.176 -11.878   6.279  0.00  0.00    +0.142 HD
ATOM     12  H   LIG    1       29.879 -10.891   4.945  0.00  0.00    +0.142 HD
ENDBRANCH   7  10
ENDBRANCH   1   4
BRANCH   1  13
ATOM     13  N   LIG    1       26.360 -16.755   3.249  0.00  0.00    -0.184 N 
ATOM     14  H   LIG    1       27.169 -16.699   3.860  0.00  0.00    +0.177 HD
BRANCH  13  18
ATOM     15  C   LIG    1       24.220 -20.112   4.125  0.00  0.00    +0.156 A 
ATOM     16  C   LIG    1       25.587 -20.005   4.285  0.00  0.00    +0.161 A 
ATOM     17  N   LIG    1       26.297 -18.890   4.022  0.00  0.00    -0.218 NA
ATOM     18  C   LIG    1       25.579 -17.849   3.603  0.00  0.00    +0.235 A 
ATOM     19  N   LIG    1       24.264 -17.819   3.378  0.00  0.00    -0.218 NA
ATOM     20  C   LIG    1       23.608 -18.973   3.639  0.00  0.00    +0.161 A 
BRANCH  15  22
ATOM     21  C   LIG    1       22.523 -21.066   5.429  0.00  0.00    +0.277 C 
ATOM     22  O   LIG    1       23.468 -21.219   4.367  0.00  0.00    -0.492 OA
ENDBRANCH  15  22
ENDBRANCH  13  18
ENDBRANCH   1  13
TORSDOF 5
ENDMDL
MODEL 4
REMARK VINA RESULT:      -2.4      3.565      6.322
REMARK  Name = *****
REMARK                            x       y       z     vdW  Elec       q    Type
REMARK                         _______ _______ _______ _____ _____    ______ ____
ROOT
ATOM      1  S   LIG    1       25.858 -18.202   3.310  0.00  0.00    +0.075 S 
ATOM      2  O   LIG    1       26.880 -18.209   4.332  0.00  0.00    -0.150 OA
ATOM      3  O   LIG    1       26.187 -18.585   1.946  0.00  0.00    -0.150 OA
ENDROOT
BRANCH   1   4
ATOM      4  C   LIG    1       24.525 -19.222   3.878  0.00  0.00    +0.109 A 
ATOM      5  C   LIG    1       24.700 -20.602   4.024  0.00  0.00    +0.030 A 
ATOM      6  C   LIG    1       23.628 -21.376   4.487  0.00  0.00    +0.024 A 
ATOM      7  C   LIG    1       22.406 -20.782   4.826  0.00  0.00    +0.025 A 
ATOM      8  C   LIG    1       22.231 -19.416   4.586  0.00  0.00    +0.024 A 
ATOM      9  C   LIG    1       23.287 -18.636   4.123  0.00  0.00    +0.030 A 
BRANCH   7  10
ATOM     10  N   LIG    1       21.304 -21.572   5.173  0.00  0.00    -0.358 N 
ATOM     11  H   LIG    1       20.455 -21.042   5.341  0.00  0.00    +0.142 HD
ATOM     12  H   LIG    1       21.150 -22.355   4.544  0.00  0.00    +0.142 HD
ENDBRANCH   7  10
ENDBRANCH   1   4
BRANCH   1  13
ATOM     13  N   LIG    1       25.203 -16.665   3.314  0.00  0.00    -0.184 N 
ATOM     14  H   LIG    1       24.595 -16.552   4.119  0.00  0.00    +0.177 HD
BRANCH  13  18
ATOM     15  C   LIG    1       27.886 -13.601   3.462  0.00  0.00    +0.156 A 
ATOM     16  C   LIG    1       27.974 -14.741   4.235  0.00  0.00    +0.161 A 
ATOM     17  N   LIG    1       27.106 -15.770   4.171  0.00  0.00    -0.218 NA
ATOM     18  C   LIG    1       26.130 -15.631   3.275  0.00  0.00    +0.235 A 
ATOM     19  N   LIG    1       25.908 -14.577   2.486  0.00  0.00    -0.218 NA
ATOM     20  C   LIG    1       26.800 -13.567   2.609  0.00  0.00    +0.161 A 
BRANCH  15  22
ATOM     21  C   LIG    1       29.013 -12.058   4.819  0.00  0.00    +0.277 C 
ATOM     22  O   LIG    1       28.732 -12.536   3.501  0.00  0.00    -0.492 OA
ENDBRANCH  15  22
ENDBRANCH  13  18
ENDBRANCH   1  13
TORSDOF 5
ENDMDL
MODEL 5
REMARK VINA RESULT:      -2.2      3.460      5.059
REMARK  Name = *****
REMARK                            x       y       z     vdW  Elec       q    Type
REMARK                         _______ _______ _______ _____ _____    ______ ____
ROOT
ATOM      1  S   LIG    1       25.683 -15.053   3.013  0.00  0.00    +0.075 S 
ATOM      2  O   LIG    1       25.188 -14.331   1.862  0.00  0.00    -0.150 OA
ATOM      3  O   LIG    1       26.305 -16.356   2.845  0.00  0.00    -0.150 OA
ENDROOT
BRANCH   1   4
ATOM      4  C   LIG    1       26.816 -13.990   3.865  0.00  0.00    +0.109 A 
ATOM      5  C   LIG    1       28.011 -13.593   3.256  0.00  0.00    +0.030 A 
ATOM      6  C   LIG    1       28.877 -12.742   3.955  0.00  0.00    +0.024 A 
ATOM      7  C   LIG    1       28.548 -12.272   5.232  0.00  0.00    +0.025 A 
ATOM      8  C   LIG    1       27.392 -12.755   5.850  0.00  0.00    +0.024 A 
ATOM      9  C   LIG    1       26.523 -13.604   5.169  0.00  0.00    +0.030 A 
BRANCH   7  10
ATOM     10  N   LIG    1       29.469 -11.521   5.972  0.00  0.00    -0.358 N 
ATOM     11  H   LIG    1       29.179 -11.341   6.927  0.00  0.00    +0.142 HD
ATOM     12  H   LIG    1       30.419 -11.877   5.919  0.00  0.00    +0.142 HD
ENDBRANCH   7  10
ENDBRANCH   1   4
BRANCH   1  13
ATOM     13  N   LIG    1       24.397 -15.182   4.072  0.00  0.00    -0.184 N 
ATOM     14  H   LIG    1       23.715 -14.456   3.876  0.00  0.00    +0.177 HD
BRANCH  13  18
ATOM     15  C   LIG    1       22.510 -18.782   4.376  0.00  0.00    +0.156 A 
ATOM     16  C   LIG    1       21.930 -17.576   4.714  0.00  0.00    +0.161 A 
ATOM     17  N   LIG    1       22.539 -16.380   4.591  0.00  0.00    -0.218 NA
ATOM     18  C   LIG    1       23.771 -16.423   4.088  0.00  0.00    +0.235 A 
ATOM     19  N   LIG    1       24.462 -17.513   3.745  0.00  0.00    -0.218 NA
ATOM     20  C   LIG    1       23.807 -18.685   3.911  0.00  0.00    +0.161 A 
BRANCH  15  22
ATOM     21  C   LIG    1       22.727 -20.960   5.213  0.00  0.00    +0.277 C 
ATOM     22  O   LIG    1       21.937 -20.010   4.494  0.00  0.00    -0.492 OA
ENDBRANCH  15  22
ENDBRANCH  13  18
ENDBRANCH   1  13
TORSDOF 5
ENDMDL
MODEL 6
REMARK VINA RESULT:      -1.9      3.175      4.602
REMARK  Name = *****
REMARK                            x       y       z     vdW  Elec       q    Type
REMARK                         _______ _______ _______ _____ _____    ______ ____
ROOT
ATOM      1  S   LIG    1       23.522 -13.630   3.837  0.00  0.00    +0.075 S 
ATOM      2  O   LIG    1       23.034 -12.399   4.415  0.00  0.00    -0.150 OA
ATOM      3  O   LIG    1       23.063 -14.053   2.524  0.00  0.00    -0.150 OA
ENDROOT
BRANCH   1   4
ATOM      4  C   LIG    1       25.293 -13.548   3.817  0.00  0.00    +0.109 A 
ATOM      5  C   LIG    1       26.009 -13.400   5.009  0.00  0.00    +0.030 A 
ATOM      6  C   LIG    1       27.408 -13.351   4.957  0.00  0.00    +0.024 A 
ATOM      7  C   LIG    1       28.087 -13.472   3.738  0.00  0.00    +0.025 A 
ATOM      8  C   LIG    1       27.344 -13.529   2.557  0.00  0.00    +0.024 A 
ATOM      9  C   LIG    1       25.953 -13.575   2.593  0.00  0.00    +0.030 A 
BRANCH   7  10
ATOM     10  N   LIG    1       29.475 -13.302   3.679  0.00  0.00    -0.358 N 
ATOM     11  H   LIG    1       29.777 -12.342   3.800  0.00  0.00    +0.142 HD
ATOM     12  H   LIG    1       29.989 -13.946   4.274  0.00  0.00    +0.142 HD
ENDBRANCH   7  10
ENDBRANCH   1   4
BRANCH   1  13
ATOM     13  N   LIG    1       23.199 -14.831   4.952  0.00  0.00    -0.184 N 
ATOM     14  H   LIG    1       22.277 -14.690   5.352  0.00  0.00    +0.177 HD
BRANCH  13  18
ATOM     15  C   LIG    1       23.460 -18.724   3.775  0.00  0.00    +0.156 A 
ATOM     16  C   LIG    1       22.340 -18.169   4.360  0.00  0.00    +0.161 A 
ATOM     17  N   LIG    1       22.238 -16.876   4.727  0.00  0.00    -0.218 NA
ATOM     18  C   LIG    1       23.309 -16.129   4.468  0.00  0.00    +0.235 A 
ATOM     19  N   LIG    1       24.464 -16.536   3.935  0.00  0.00    -0.218 NA
ATOM     20  C   LIG    1       24.514 -17.848   3.607  0.00  0.00    +0.161 A 
BRANCH  15  22
ATOM     21  C   LIG    1       24.519 -20.768   4.213  0.00  0.00    +0.277 C 
ATOM     22  O   LIG    1       23.609 -20.023   3.400  0.00  0.00    -0.492 OA
ENDBRANCH  15  22
ENDBRANCH  13  18
ENDBRANCH   1  13
TORSDOF 5
ENDMDL
MODEL 7
REMARK VINA RESULT:      -1.8      3.853      5.065
REMARK  Name = *****
REMARK                            x       y       z     vdW  Elec       q    Type
REMARK                         _______ _______ _______ _____ _____    ______ ____
ROOT
ATOM      1  S   LIG    1       27.531 -13.870   3.048  0.00  0.00    +0.075 S 
ATOM      2  O   LIG    1       27.085 -14.473   1.813  0.00  0.00    -0.150 OA
ATOM      3  O   LIG    1       28.612 -12.898   3.037  0.00  0.00    -0.150 OA
ENDROOT
BRANCH   1   4
ATOM      4  C   LIG    1       26.118 -13.137   3.827  0.00  0.00    +0.109 A 
ATOM      5  C   LIG    1       26.070 -12.992   5.217  0.00  0.00    +0.030 A 
ATOM      6  C   LIG    1       24.942 -12.396   5.798  0.00  0.00    +0.024 A 
ATOM      7  C   LIG    1       23.887 -11.930   5.004  0.00  0.00    +0.025 A 
ATOM      8  C   LIG    1       23.922 -12.169   3.628  0.00  0.00    +0.024 A 
ATOM      9  C   LIG    1       25.035 -12.762   3.038  0.00  0.00    +0.030 A 
BRANCH   7  10
ATOM     10  N   LIG    1       22.714 -11.447   5.595  0.00  0.00    -0.358 N 
ATOM     11  H   LIG    1       22.871 -10.909   6.441  0.00  0.00    +0.142 HD
ATOM     12  H   LIG    1       22.098 -10.968   4.944  0.00  0.00    +0.142 HD
ENDBRANCH   7  10
ENDBRANCH   1   4
BRANCH   1  13
ATOM     13  N   LIG    1       27.928 -15.132   4.067  0.00  0.00    -0.184 N 
ATOM     14  H   LIG    1       27.809 -14.845   5.034  0.00  0.00    +0.177 HD
BRANCH  13  18
ATOM     15  C   LIG    1       25.688 -18.496   3.538  0.00  0.00    +0.156 A 
ATOM     16  C   LIG    1       25.269 -17.228   3.190  0.00  0.00    +0.161 A 
ATOM     17  N   LIG    1       26.015 -16.115   3.338  0.00  0.00    -0.218 NA
ATOM     18  C   LIG    1       27.233 -16.314   3.839  0.00  0.00    +0.235 A 
ATOM     19  N   LIG    1       27.756 -17.474   4.242  0.00  0.00    -0.218 NA
ATOM     20  C   LIG    1       26.953 -18.552   4.089  0.00  0.00    +0.161 A 
BRANCH  15  22
ATOM     21  C   LIG    1       24.974 -20.468   4.583  0.00  0.00    +0.277 C 
ATOM     22  O   LIG    1       24.966 -19.642   3.417  0.00  0.00    -0.492 OA
ENDBRANCH  15  22
ENDBRANCH  13  18
ENDBRANCH   1  13
TORSDOF 5
ENDMDL
MODEL 8
REMARK VINA RESULT:      -1.7      2.712      3.639
REMARK  Name = *****
REMARK                            x       y       z     vdW  Elec       q    Type
REMARK                         _______ _______ _______ _____ _____    ______ ____
ROOT
ATOM      1  S   LIG    1       23.672 -15.163   4.055  0.00  0.00    +0.075 S 
ATOM      2  O   LIG    1       23.384 -15.590   5.405  0.00  0.00    -0.150 OA
ATOM      3  O   LIG    1       22.780 -14.237   3.376  0.00  0.00    -0.150 OA
ENDROOT
BRANCH   1   4
ATOM      4  C   LIG    1       25.309 -14.481   4.047  0.00  0.00    +0.109 A 
ATOM      5  C   LIG    1       26.172 -14.722   2.974  0.00  0.00    +0.030 A 
ATOM      6  C   LIG    1       27.454 -14.157   2.995  0.00  0.00    +0.024 A 
ATOM      7  C   LIG    1       27.863 -13.343   4.059  0.00  0.00    +0.025 A 
ATOM      8  C   LIG    1       27.013 -13.193   5.158  0.00  0.00    +0.024 A 
ATOM      9  C   LIG    1       25.737 -13.751   5.151  0.00  0.00    +0.030 A 
BRANCH   7  10
ATOM     10  N   LIG    1       29.182 -12.881   4.133  0.00  0.00    -0.358 N 
ATOM     11  H   LIG    1       29.470 -12.332   3.330  0.00  0.00    +0.142 HD
ATOM     12  H   LIG    1       29.403 -12.423   5.013  0.00  0.00    +0.142 HD
ENDBRANCH   7  10
ENDBRANCH   1   4
BRANCH   1  13
ATOM     13  N   LIG    1       23.825 -16.556   3.147  0.00  0.00    -0.184 N 
ATOM     14  H   LIG    1       24.703 -16.540   2.637  0.00  0.00    +0.177 HD
BRANCH  13  18
ATOM     15  C   LIG    1       23.579 -20.161   5.032  0.00  0.00    +0.156 A 
ATOM     16  C   LIG    1       24.701 -19.716   4.362  0.00  0.00    +0.161 A 
ATOM     17  N   LIG    1       24.798 -18.515   3.760  0.00  0.00    -0.218 NA
ATOM     18  C   LIG    1       23.719 -17.741   3.865  0.00  0.00    +0.235 A 
ATOM     19  N   LIG    1       22.562 -18.051   4.456  0.00  0.00    -0.218 NA
ATOM     20  C   LIG    1       22.517 -19.278   5.025  0.00  0.00    +0.161 A 
BRANCH  15  22
ATOM     21  C   LIG    1       23.250 -21.290   7.059  0.00  0.00    +0.277 C 
ATOM     22  O   LIG    1       23.435 -21.368   5.644  0.00  0.00    -0.492 OA
ENDBRANCH  15  22
ENDBRANCH  13  18
ENDBRANCH   1  13
TORSDOF 5
ENDMDL
MODEL 9
REMARK VINA RESULT:      -1.4      3.115      6.730
REMARK  Name = *****
REMARK                            x       y       z     vdW  Elec       q    Type
REMARK                         _______ _______ _______ _____ _____    ______ ____
ROOT
ATOM      1  S   LIG    1       26.269 -17.984   3.625  0.00  0.00    +0.075 S 
ATOM      2  O   LIG    1       27.498 -18.552   4.132  0.00  0.00    -0.150 OA
ATOM      3  O   LIG    1       26.133 -17.682   2.209  0.00  0.00    -0.150 OA
ENDROOT
BRANCH   1   4
ATOM      4  C   LIG    1       24.945 -19.060   4.105  0.00  0.00    +0.109 A 
ATOM      5  C   LIG    1       25.202 -20.387   4.460  0.00  0.00    +0.030 A 
ATOM      6  C   LIG    1       24.133 -21.206   4.845  0.00  0.00    +0.024 A 
ATOM      7  C   LIG    1       22.827 -20.703   4.901  0.00  0.00    +0.025 A 
ATOM      8  C   LIG    1       22.587 -19.400   4.456  0.00  0.00    +0.024 A 
ATOM      9  C   LIG    1       23.641 -18.577   4.067  0.00  0.00    +0.030 A 
BRANCH   7  10
ATOM     10  N   LIG    1       21.749 -21.554   5.170  0.00  0.00    -0.358 N 
ATOM     11  H   LIG    1       21.568 -21.688   6.159  0.00  0.00    +0.142 HD
ATOM     12  H   LIG    1       20.906 -21.319   4.654  0.00  0.00    +0.142 HD
ENDBRANCH   7  10
ENDBRANCH   1   4
BRANCH   1  13
ATOM     13  N   LIG    1       25.991 -16.600   4.518  0.00  0.00    -0.184 N 
ATOM     14  H   LIG    1       26.757 -16.450   5.168  0.00  0.00    +0.177 HD
BRANCH  13  18
ATOM     15  C   LIG    1       25.563 -13.111   2.455  0.00  0.00    +0.156 A 
ATOM     16  C   LIG    1       26.744 -13.821   2.533  0.00  0.00    +0.161 A 
ATOM     17  N   LIG    1       26.886 -14.988   3.191  0.00  0.00    -0.218 NA
ATOM     18  C   LIG    1       25.778 -15.449   3.769  0.00  0.00    +0.235 A 
ATOM     19  N   LIG    1       24.581 -14.859   3.797  0.00  0.00    -0.218 NA
ATOM     20  C   LIG    1       24.505 -13.680   3.138  0.00  0.00    +0.161 A 
BRANCH  15  22
ATOM     21  C   LIG    1       24.033 -11.447   1.840  0.00  0.00    +0.277 C 
ATOM     22  O   LIG    1       25.379 -11.927   1.812  0.00  0.00    -0.492 OA
ENDBRANCH  15  22
ENDBRANCH  13  18
ENDBRANCH   1  13
TORSDOF 5
ENDMDL
