MODEL 1
REMARK VINA RESULT:      -6.7      0.000      0.000
REMARK  Name = *****
REMARK                            x       y       z     vdW  Elec       q    Type
REMARK                         _______ _______ _______ _____ _____    ______ ____
ROOT
ATOM      1  C   LIG    1       24.774 -22.637   7.506  0.00  0.00    +0.020 C 
ATOM      2  C   LIG    1       26.042 -23.407   7.067  0.00  0.00    +0.009 C 
ATOM      3  C   LIG    1       25.824 -24.918   7.017  0.00  0.00    +0.035 C 
ATOM      4  C   LIG    1       24.637 -25.328   6.139  0.00  0.00    +0.063 C 
ATOM      5  C   LIG    1       24.936 -25.129   4.650  0.00  0.00    +0.041 C 
ATOM      6  C   LIG    1       23.379 -24.568   6.572  0.00  0.00    +0.035 C 
ATOM      7  C   LIG    1       23.577 -23.054   6.620  0.00  0.00    +0.009 C 
ENDROOT
BRANCH   1   9
ATOM      8  C   LIG    1       25.490 -20.573   6.155  0.00  0.00    +0.041 C 
ATOM      9  C   LIG    1       24.993 -21.089   7.515  0.00  0.00    +0.063 C 
ATOM     10  C   LIG    1       25.991 -20.657   8.598  0.00  0.00    +0.041 C 
BRANCH   9  11
ATOM     11  O   LIG    1       23.744 -20.451   7.793  0.00  0.00    -0.389 OA
ATOM     12  H   LIG    1       23.703 -20.268   8.748  0.00  0.00    +0.210 HD
ENDBRANCH   9  11
ENDBRANCH   1   9
BRANCH   4  13
ATOM     13  O   LIG    1       24.404 -26.730   6.318  0.00  0.00    -0.389 OA
ATOM     14  H   LIG    1       24.482 -27.162   5.451  0.00  0.00    +0.210 HD
ENDBRANCH   4  13
TORSDOF 3
ENDMDL
MODEL 2
REMARK VINA RESULT:      -6.5      2.746      3.964
REMARK  Name = *****
REMARK                            x       y       z     vdW  Elec       q    Type
REMARK                         _______ _______ _______ _____ _____    ______ ____
ROOT
ATOM      1  C   LIG    1       24.059 -20.325   5.909  0.00  0.00    +0.020 C 
ATOM      2  C   LIG    1       25.533 -20.575   5.511  0.00  0.00    +0.009 C 
ATOM      3  C   LIG    1       26.457 -20.689   6.721  0.00  0.00    +0.035 C 
ATOM      4  C   LIG    1       26.004 -21.751   7.729  0.00  0.00    +0.063 C 
ATOM      5  C   LIG    1       26.216 -23.170   7.192  0.00  0.00    +0.041 C 
ATOM      6  C   LIG    1       24.544 -21.506   8.126  0.00  0.00    +0.035 C 
ATOM      7  C   LIG    1       23.605 -21.397   6.926  0.00  0.00    +0.009 C 
ENDROOT
BRANCH   1   9
ATOM      8  C   LIG    1       23.883 -20.435   3.349  0.00  0.00    +0.041 C 
ATOM      9  C   LIG    1       23.113 -20.251   4.666  0.00  0.00    +0.063 C 
ATOM     10  C   LIG    1       22.349 -18.920   4.606  0.00  0.00    +0.041 C 
BRANCH   9  11
ATOM     11  O   LIG    1       22.150 -21.303   4.759  0.00  0.00    -0.389 OA
ATOM     12  H   LIG    1       22.085 -21.574   5.691  0.00  0.00    +0.210 HD
ENDBRANCH   9  11
ENDBRANCH   1   9
BRANCH   4  13
ATOM     13  O   LIG    1       26.818 -21.639   8.902  0.00  0.00    -0.389 OA
ATOM     14  H   LIG    1       27.712 -21.377   8.625  0.00  0.00    +0.210 HD
ENDBRANCH   4  13
TORSDOF 3
ENDMDL
MODEL 3
REMARK VINA RESULT:      -6.3      3.112      4.037
REMARK  Name = *****
REMARK                            x       y       z     vdW  Elec       q    Type
REMARK                         _______ _______ _______ _____ _____    ______ ____
ROOT
ATOM      1  C   LIG    1       25.539 -21.400   6.354  0.00  0.00    +0.020 C 
ATOM      2  C   LIG    1       25.303 -20.833   4.934  0.00  0.00    +0.009 C 
ATOM      3  C   LIG    1       23.948 -21.239   4.357  0.00  0.00    +0.035 C 
ATOM      4  C   LIG    1       22.771 -20.869   5.265  0.00  0.00    +0.063 C 
ATOM      5  C   LIG    1       22.524 -19.358   5.289  0.00  0.00    +0.041 C 
ATOM      6  C   LIG    1       23.000 -21.430   6.674  0.00  0.00    +0.035 C 
ATOM      7  C   LIG    1       24.349 -21.027   7.268  0.00  0.00    +0.009 C 
ENDROOT
BRANCH   1   9
ATOM      8  C   LIG    1       26.739 -20.255   8.315  0.00  0.00    +0.041 C 
ATOM      9  C   LIG    1       26.910 -20.946   6.954  0.00  0.00    +0.063 C 
ATOM     10  C   LIG    1       27.662 -19.996   6.011  0.00  0.00    +0.041 C 
BRANCH   9  11
ATOM     11  O   LIG    1       27.729 -22.102   7.152  0.00  0.00    -0.389 OA
ATOM     12  H   LIG    1       28.654 -21.848   6.992  0.00  0.00    +0.210 HD
ENDBRANCH   9  11
ENDBRANCH   1   9
BRANCH   4  13
ATOM     13  O   LIG    1       21.582 -21.462   4.730  0.00  0.00    -0.389 OA
ATOM     14  H   LIG    1       21.414 -21.067   3.858  0.00  0.00    +0.210 HD
ENDBRANCH   4  13
TORSDOF 3
ENDMDL
MODEL 4
REMARK VINA RESULT:      -6.3      2.718      4.634
REMARK  Name = *****
REMARK                            x       y       z     vdW  Elec       q    Type
REMARK                         _______ _______ _______ _____ _____    ______ ____
ROOT
ATOM      1  C   LIG    1       24.794 -20.716   6.436  0.00  0.00    +0.020 C 
ATOM      2  C   LIG    1       26.076 -20.675   5.572  0.00  0.00    +0.009 C 
ATOM      3  C   LIG    1       27.222 -19.931   6.256  0.00  0.00    +0.035 C 
ATOM      4  C   LIG    1       27.550 -20.479   7.650  0.00  0.00    +0.063 C 
ATOM      5  C   LIG    1       28.230 -21.850   7.575  0.00  0.00    +0.041 C 
ATOM      6  C   LIG    1       26.281 -20.520   8.508  0.00  0.00    +0.035 C 
ATOM      7  C   LIG    1       25.128 -21.268   7.841  0.00  0.00    +0.009 C 
ENDROOT
BRANCH   1   9
ATOM      8  C   LIG    1       22.513 -20.589   5.260  0.00  0.00    +0.041 C 
ATOM      9  C   LIG    1       23.640 -21.515   5.746  0.00  0.00    +0.063 C 
ATOM     10  C   LIG    1       23.036 -22.573   6.681  0.00  0.00    +0.041 C 
BRANCH   9  11
ATOM     11  O   LIG    1       24.170 -22.193   4.604  0.00  0.00    -0.389 OA
ATOM     12  H   LIG    1       25.072 -21.863   4.448  0.00  0.00    +0.210 HD
ENDBRANCH   9  11
ENDBRANCH   1   9
BRANCH   4  13
ATOM     13  O   LIG    1       28.491 -19.597   8.273  0.00  0.00    -0.389 OA
ATOM     14  H   LIG    1       29.307 -19.605   7.745  0.00  0.00    +0.210 HD
ENDBRANCH   4  13
TORSDOF 3
ENDMDL
MODEL 5
REMARK VINA RESULT:      -6.3      2.653      4.110
REMARK  Name = *****
REMARK                            x       y       z     vdW  Elec       q    Type
REMARK                         _______ _______ _______ _____ _____    ______ ____
ROOT
ATOM      1  C   LIG    1       27.253 -20.224   7.283  0.00  0.00    +0.020 C 
ATOM      2  C   LIG    1       27.058 -21.390   8.282  0.00  0.00    +0.009 C 
ATOM      3  C   LIG    1       25.588 -21.636   8.618  0.00  0.00    +0.035 C 
ATOM      4  C   LIG    1       24.716 -21.862   7.379  0.00  0.00    +0.063 C 
ATOM      5  C   LIG    1       24.993 -23.220   6.728  0.00  0.00    +0.041 C 
ATOM      6  C   LIG    1       24.906 -20.708   6.388  0.00  0.00    +0.035 C 
ATOM      7  C   LIG    1       26.370 -20.453   6.035  0.00  0.00    +0.009 C 
ENDROOT
BRANCH   1   9
ATOM      8  C   LIG    1       29.538 -19.343   8.058  0.00  0.00    +0.041 C 
ATOM      9  C   LIG    1       28.756 -20.006   6.913  0.00  0.00    +0.063 C 
ATOM     10  C   LIG    1       28.917 -19.149   5.649  0.00  0.00    +0.041 C 
BRANCH   9  11
ATOM     11  O   LIG    1       29.355 -21.278   6.657  0.00  0.00    -0.389 OA
ATOM     12  H   LIG    1       29.959 -21.483   7.392  0.00  0.00    +0.210 HD
ENDBRANCH   9  11
ENDBRANCH   1   9
BRANCH   4  13
ATOM     13  O   LIG    1       23.344 -21.885   7.789  0.00  0.00    -0.389 OA
ATOM     14  H   LIG    1       23.193 -22.704   8.291  0.00  0.00    +0.210 HD
ENDBRANCH   4  13
TORSDOF 3
ENDMDL
MODEL 6
REMARK VINA RESULT:      -6.2      1.023      4.675
REMARK  Name = *****
REMARK                            x       y       z     vdW  Elec       q    Type
REMARK                         _______ _______ _______ _____ _____    ______ ____
ROOT
ATOM      1  C   LIG    1       24.618 -24.562   6.845  0.00  0.00    +0.020 C 
ATOM      2  C   LIG    1       23.259 -23.949   6.430  0.00  0.00    +0.009 C 
ATOM      3  C   LIG    1       22.947 -22.654   7.177  0.00  0.00    +0.035 C 
ATOM      4  C   LIG    1       24.053 -21.601   7.049  0.00  0.00    +0.063 C 
ATOM      5  C   LIG    1       24.107 -21.001   5.641  0.00  0.00    +0.041 C 
ATOM      6  C   LIG    1       25.400 -22.206   7.461  0.00  0.00    +0.035 C 
ATOM      7  C   LIG    1       25.732 -23.498   6.717  0.00  0.00    +0.009 C 
ENDROOT
BRANCH   1   9
ATOM      8  C   LIG    1       26.151 -26.613   6.642  0.00  0.00    +0.041 C 
ATOM      9  C   LIG    1       24.949 -25.865   6.046  0.00  0.00    +0.063 C 
ATOM     10  C   LIG    1       25.238 -25.572   4.566  0.00  0.00    +0.041 C 
BRANCH   9  11
ATOM     11  O   LIG    1       23.819 -26.739   6.104  0.00  0.00    -0.389 OA
ATOM     12  H   LIG    1       23.612 -26.904   7.041  0.00  0.00    +0.210 HD
ENDBRANCH   9  11
ENDBRANCH   1   9
BRANCH   4  13
ATOM     13  O   LIG    1       23.752 -20.518   7.937  0.00  0.00    -0.389 OA
ATOM     14  H   LIG    1       22.855 -20.204   7.736  0.00  0.00    +0.210 HD
ENDBRANCH   4  13
TORSDOF 3
ENDMDL
MODEL 7
REMARK VINA RESULT:      -6.2      3.967      6.130
REMARK  Name = *****
REMARK                            x       y       z     vdW  Elec       q    Type
REMARK                         _______ _______ _______ _____ _____    ______ ____
ROOT
ATOM      1  C   LIG    1       27.959 -20.878   6.556  0.00  0.00    +0.020 C 
ATOM      2  C   LIG    1       28.574 -21.126   7.954  0.00  0.00    +0.009 C 
ATOM      3  C   LIG    1       30.085 -20.905   7.978  0.00  0.00    +0.035 C 
ATOM      4  C   LIG    1       30.501 -19.522   7.465  0.00  0.00    +0.063 C 
ATOM      5  C   LIG    1       30.130 -18.413   8.454  0.00  0.00    +0.041 C 
ATOM      6  C   LIG    1       29.894 -19.274   6.079  0.00  0.00    +0.035 C 
ATOM      7  C   LIG    1       28.381 -19.484   6.040  0.00  0.00    +0.009 C 
ENDROOT
BRANCH   1   9
ATOM      8  C   LIG    1       25.742 -20.313   5.387  0.00  0.00    +0.041 C 
ATOM      9  C   LIG    1       26.406 -21.067   6.550  0.00  0.00    +0.063 C 
ATOM     10  C   LIG    1       25.767 -20.601   7.866  0.00  0.00    +0.041 C 
BRANCH   9  11
ATOM     11  O   LIG    1       26.114 -22.457   6.391  0.00  0.00    -0.389 OA
ATOM     12  H   LIG    1       25.928 -22.622   5.450  0.00  0.00    +0.210 HD
ENDBRANCH   9  11
ENDBRANCH   1   9
BRANCH   4  13
ATOM     13  O   LIG    1       31.928 -19.494   7.346  0.00  0.00    -0.389 OA
ATOM     14  H   LIG    1       32.226 -18.584   7.511  0.00  0.00    +0.210 HD
ENDBRANCH   4  13
TORSDOF 3
ENDMDL
MODEL 8
REMARK VINA RESULT:      -6.1      2.700      4.400
REMARK  Name = *****
REMARK                            x       y       z     vdW  Elec       q    Type
REMARK                         _______ _______ _______ _____ _____    ______ ____
ROOT
ATOM      1  C   LIG    1       25.375 -20.699   6.986  0.00  0.00    +0.020 C 
ATOM      2  C   LIG    1       23.901 -21.092   6.729  0.00  0.00    +0.009 C 
ATOM      3  C   LIG    1       23.208 -20.157   5.739  0.00  0.00    +0.035 C 
ATOM      4  C   LIG    1       23.952 -20.030   4.406  0.00  0.00    +0.063 C 
ATOM      5  C   LIG    1       23.842 -21.309   3.570  0.00  0.00    +0.041 C 
ATOM      6  C   LIG    1       25.413 -19.640   4.657  0.00  0.00    +0.035 C 
ATOM      7  C   LIG    1       26.124 -20.570   5.639  0.00  0.00    +0.009 C 
ENDROOT
BRANCH   1   9
ATOM      8  C   LIG    1       27.611 -21.474   7.985  0.00  0.00    +0.041 C 
ATOM      9  C   LIG    1       26.089 -21.685   7.968  0.00  0.00    +0.063 C 
ATOM     10  C   LIG    1       25.801 -23.152   7.618  0.00  0.00    +0.041 C 
BRANCH   9  11
ATOM     11  O   LIG    1       25.602 -21.448   9.291  0.00  0.00    -0.389 OA
ATOM     12  H   LIG    1       26.319 -21.045   9.810  0.00  0.00    +0.210 HD
ENDBRANCH   9  11
ENDBRANCH   1   9
BRANCH   4  13
ATOM     13  O   LIG    1       23.332 -18.993   3.638  0.00  0.00    -0.389 OA
ATOM     14  H   LIG    1       24.025 -18.532   3.137  0.00  0.00    +0.210 HD
ENDBRANCH   4  13
TORSDOF 3
ENDMDL
MODEL 9
REMARK VINA RESULT:      -6.1      2.826      4.350
REMARK  Name = *****
REMARK                            x       y       z     vdW  Elec       q    Type
REMARK                         _______ _______ _______ _____ _____    ______ ____
ROOT
ATOM      1  C   LIG    1       25.021 -21.422   5.370  0.00  0.00    +0.020 C 
ATOM      2  C   LIG    1       24.491 -22.088   6.662  0.00  0.00    +0.009 C 
ATOM      3  C   LIG    1       25.614 -22.533   7.597  0.00  0.00    +0.035 C 
ATOM      4  C   LIG    1       26.585 -21.402   7.955  0.00  0.00    +0.063 C 
ATOM      5  C   LIG    1       25.945 -20.381   8.899  0.00  0.00    +0.041 C 
ATOM      6  C   LIG    1       27.113 -20.742   6.676  0.00  0.00    +0.035 C 
ATOM      7  C   LIG    1       26.002 -20.284   5.734  0.00  0.00    +0.009 C 
ENDROOT
BRANCH   1   9
ATOM      8  C   LIG    1       24.156 -19.546   3.844  0.00  0.00    +0.041 C 
ATOM      9  C   LIG    1       23.865 -20.933   4.438  0.00  0.00    +0.063 C 
ATOM     10  C   LIG    1       22.519 -20.878   5.175  0.00  0.00    +0.041 C 
BRANCH   9  11
ATOM     11  O   LIG    1       23.731 -21.853   3.352  0.00  0.00    -0.389 OA
ATOM     12  H   LIG    1       23.011 -21.539   2.776  0.00  0.00    +0.210 HD
ENDBRANCH   9  11
ENDBRANCH   1   9
BRANCH   4  13
ATOM     13  O   LIG    1       27.694 -21.966   8.665  0.00  0.00    -0.389 OA
ATOM     14  H   LIG    1       27.831 -22.872   8.341  0.00  0.00    +0.210 HD
ENDBRANCH   4  13
TORSDOF 3
ENDMDL
