MODEL 1
REMARK VINA RESULT:      -8.7      0.000      0.000
REMARK  Name = *****
REMARK                            x       y       z     vdW  Elec       q    Type
REMARK                         _______ _______ _______ _____ _____    ______ ____
ROOT
ATOM      1  C   LIG    1       25.467 -23.064   7.423  0.00  0.00    +0.080 A 
ATOM      2  C   LIG    1       24.103 -22.724   7.318  0.00  0.00    +0.132 A 
ATOM      3  C   LIG    1       23.215 -23.615   6.689  0.00  0.00    +0.048 A 
ATOM      4  C   LIG    1       23.651 -24.864   6.245  0.00  0.00    +0.032 A 
ATOM      5  C   LIG    1       24.993 -25.205   6.365  0.00  0.00    +0.106 A 
ATOM      6  C   LIG    1       25.909 -24.304   6.925  0.00  0.00    +0.045 A 
ENDROOT
BRANCH   1   9
ATOM      7  N   LIG    1       27.708 -22.077   7.455  0.00  0.00    -0.310 N 
ATOM      8  H   LIG    1       27.855 -22.626   6.619  0.00  0.00    +0.149 HD
ATOM      9  C   LIG    1       26.504 -22.217   8.102  0.00  0.00    +0.248 C 
ATOM     10  O   LIG    1       26.232 -21.642   9.151  0.00  0.00    -0.270 OA
BRANCH   7  11
ATOM     11  C   LIG    1       28.810 -21.270   7.965  0.00  0.00    +0.123 C 
BRANCH  11  13
ATOM     12  N   LIG    1       30.275 -19.468   6.946  0.00  0.00    -0.298 NA
ATOM     13  C   LIG    1       28.900 -19.856   7.333  0.00  0.00    +0.074 C 
ATOM     14  C   LIG    1       28.101 -19.747   6.034  0.00  0.00    +0.021 C 
ATOM     15  C   LIG    1       28.762 -18.610   5.283  0.00  0.00    +0.017 C 
ATOM     16  C   LIG    1       30.197 -18.586   5.778  0.00  0.00    +0.085 C 
BRANCH  12  18
ATOM     17  C   LIG    1       30.162 -17.891   8.877  0.00  0.00    +0.020 C 
ATOM     18  C   LIG    1       31.015 -18.860   8.063  0.00  0.00    +0.081 C 
ENDBRANCH  12  18
ENDBRANCH  11  13
ENDBRANCH   7  11
ENDBRANCH   1   9
BRANCH   5  19
ATOM     19  S   LIG    1       25.525 -26.850   5.980  0.00  0.00    +0.056 S 
ATOM     20  O   LIG    1       26.647 -26.770   5.066  0.00  0.00    -0.153 OA
ATOM     21  O   LIG    1       24.379 -27.670   5.713  0.00  0.00    -0.153 OA
BRANCH  19  22
ATOM     22  N   LIG    1       26.164 -27.393   7.432  0.00  0.00    -0.203 NA
ATOM     23  H   LIG    1       27.076 -26.963   7.588  0.00  0.00    +0.144 HD
ATOM     24  H   LIG    1       26.199 -28.414   7.422  0.00  0.00    +0.144 HD
ENDBRANCH  19  22
ENDBRANCH   5  19
BRANCH   2  25
ATOM     25  O   LIG    1       23.690 -21.512   7.812  0.00  0.00    -0.494 OA
ATOM     26  C   LIG    1       23.344 -20.531   6.838  0.00  0.00    +0.277 C 
ENDBRANCH   2  25
TORSDOF 7
ENDMDL
MODEL 2
REMARK VINA RESULT:      -8.4      3.471      7.247
REMARK  Name = *****
REMARK                            x       y       z     vdW  Elec       q    Type
REMARK                         _______ _______ _______ _____ _____    ______ ____
ROOT
ATOM      1  C   LIG    1       27.978 -20.269   7.455  0.00  0.00    +0.080 A 
ATOM      2  C   LIG    1       28.031 -19.945   6.084  0.00  0.00    +0.132 A 
ATOM      3  C   LIG    1       29.056 -19.108   5.611  0.00  0.00    +0.048 A 
ATOM      4  C   LIG    1       30.068 -18.665   6.463  0.00  0.00    +0.032 A 
ATOM      5  C   LIG    1       30.025 -19.000   7.812  0.00  0.00    +0.106 A 
ATOM      6  C   LIG    1       28.972 -19.774   8.319  0.00  0.00    +0.045 A 
ENDROOT
BRANCH   1   9
ATOM      7  N   LIG    1       26.842 -22.437   7.534  0.00  0.00    -0.310 N 
ATOM      8  H   LIG    1       27.377 -22.637   6.699  0.00  0.00    +0.149 HD
ATOM      9  C   LIG    1       26.957 -21.179   8.074  0.00  0.00    +0.248 C 
ATOM     10  O   LIG    1       26.319 -20.806   9.053  0.00  0.00    -0.270 OA
BRANCH   7  11
ATOM     11  C   LIG    1       25.919 -23.450   8.033  0.00  0.00    +0.123 C 
BRANCH  11  13
ATOM     12  N   LIG    1       24.847 -23.309   5.739  0.00  0.00    -0.298 NA
ATOM     13  C   LIG    1       25.104 -24.161   6.922  0.00  0.00    +0.074 C 
ATOM     14  C   LIG    1       25.833 -25.379   6.353  0.00  0.00    +0.021 C 
ATOM     15  C   LIG    1       25.247 -25.553   4.968  0.00  0.00    +0.017 C 
ATOM     16  C   LIG    1       24.788 -24.167   4.553  0.00  0.00    +0.085 C 
BRANCH  12  18
ATOM     17  C   LIG    1       22.550 -23.188   6.708  0.00  0.00    +0.020 C 
ATOM     18  C   LIG    1       23.639 -22.486   5.901  0.00  0.00    +0.081 C 
ENDBRANCH  12  18
ENDBRANCH  11  13
ENDBRANCH   7  11
ENDBRANCH   1   9
BRANCH   5  19
ATOM     19  S   LIG    1       31.393 -18.605   8.866  0.00  0.00    +0.056 S 
ATOM     20  O   LIG    1       31.954 -17.340   8.437  0.00  0.00    -0.153 OA
ATOM     21  O   LIG    1       32.201 -19.774   9.053  0.00  0.00    -0.153 OA
BRANCH  19  22
ATOM     22  N   LIG    1       30.659 -18.296  10.341  0.00  0.00    -0.203 NA
ATOM     23  H   LIG    1       30.229 -19.150  10.697  0.00  0.00    +0.144 HD
ATOM     24  H   LIG    1       29.993 -17.529  10.230  0.00  0.00    +0.144 HD
ENDBRANCH  19  22
ENDBRANCH   5  19
BRANCH   2  25
ATOM     25  O   LIG    1       27.054 -20.439   5.256  0.00  0.00    -0.494 OA
ATOM     26  C   LIG    1       26.237 -19.465   4.610  0.00  0.00    +0.277 C 
ENDBRANCH   2  25
TORSDOF 7
ENDMDL
MODEL 3
REMARK VINA RESULT:      -8.3      3.485      7.551
REMARK  Name = *****
REMARK                            x       y       z     vdW  Elec       q    Type
REMARK                         _______ _______ _______ _____ _____    ______ ____
ROOT
ATOM      1  C   LIG    1       28.252 -20.179   7.304  0.00  0.00    +0.080 A 
ATOM      2  C   LIG    1       28.378 -19.723   5.976  0.00  0.00    +0.132 A 
ATOM      3  C   LIG    1       29.373 -18.783   5.660  0.00  0.00    +0.048 A 
ATOM      4  C   LIG    1       30.290 -18.360   6.623  0.00  0.00    +0.032 A 
ATOM      5  C   LIG    1       30.175 -18.824   7.929  0.00  0.00    +0.106 A 
ATOM      6  C   LIG    1       29.146 -19.707   8.282  0.00  0.00    +0.045 A 
ENDROOT
BRANCH   1   9
ATOM      7  N   LIG    1       27.055 -22.282   6.929  0.00  0.00    -0.310 N 
ATOM      8  H   LIG    1       27.513 -22.268   6.027  0.00  0.00    +0.149 HD
ATOM      9  C   LIG    1       27.256 -21.206   7.759  0.00  0.00    +0.248 C 
ATOM     10  O   LIG    1       26.714 -21.089   8.853  0.00  0.00    -0.270 OA
BRANCH   7  11
ATOM     11  C   LIG    1       26.144 -23.379   7.233  0.00  0.00    +0.123 C 
BRANCH  11  13
ATOM     12  N   LIG    1       23.859 -24.398   6.817  0.00  0.00    -0.298 NA
ATOM     13  C   LIG    1       24.809 -23.325   6.446  0.00  0.00    +0.074 C 
ATOM     14  C   LIG    1       24.032 -22.033   6.703  0.00  0.00    +0.021 C 
ATOM     15  C   LIG    1       22.594 -22.394   6.399  0.00  0.00    +0.017 C 
ATOM     16  C   LIG    1       22.495 -23.888   6.654  0.00  0.00    +0.085 C 
BRANCH  12  18
ATOM     17  C   LIG    1       24.914 -25.401   4.790  0.00  0.00    +0.020 C 
ATOM     18  C   LIG    1       24.094 -25.634   6.056  0.00  0.00    +0.081 C 
ENDBRANCH  12  18
ENDBRANCH  11  13
ENDBRANCH   7  11
ENDBRANCH   1   9
BRANCH   5  19
ATOM     19  S   LIG    1       31.436 -18.445   9.115  0.00  0.00    +0.056 S 
ATOM     20  O   LIG    1       32.004 -17.153   8.788  0.00  0.00    -0.153 OA
ATOM     21  O   LIG    1       32.251 -19.606   9.329  0.00  0.00    -0.153 OA
BRANCH  19  22
ATOM     22  N   LIG    1       30.568 -18.211  10.530  0.00  0.00    -0.203 NA
ATOM     23  H   LIG    1       29.638 -17.854  10.308  0.00  0.00    +0.144 HD
ATOM     24  H   LIG    1       31.097 -17.594  11.149  0.00  0.00    +0.144 HD
ENDBRANCH  19  22
ENDBRANCH   5  19
BRANCH   2  25
ATOM     25  O   LIG    1       27.498 -20.197   5.035  0.00  0.00    -0.494 OA
ATOM     26  C   LIG    1       26.276 -19.473   4.908  0.00  0.00    +0.277 C 
ENDBRANCH   2  25
TORSDOF 7
ENDMDL
MODEL 4
REMARK VINA RESULT:      -8.2      3.250      7.302
REMARK  Name = *****
REMARK                            x       y       z     vdW  Elec       q    Type
REMARK                         _______ _______ _______ _____ _____    ______ ____
ROOT
ATOM      1  C   LIG    1       27.256 -21.332   7.195  0.00  0.00    +0.080 A 
ATOM      2  C   LIG    1       26.973 -20.529   6.072  0.00  0.00    +0.132 A 
ATOM      3  C   LIG    1       27.875 -19.518   5.700  0.00  0.00    +0.048 A 
ATOM      4  C   LIG    1       29.085 -19.354   6.376  0.00  0.00    +0.032 A 
ATOM      5  C   LIG    1       29.371 -20.158   7.474  0.00  0.00    +0.106 A 
ATOM      6  C   LIG    1       28.453 -21.126   7.905  0.00  0.00    +0.045 A 
ENDROOT
BRANCH   1   9
ATOM      7  N   LIG    1       26.277 -23.547   6.831  0.00  0.00    -0.310 N 
ATOM      8  H   LIG    1       26.697 -23.473   5.914  0.00  0.00    +0.149 HD
ATOM      9  C   LIG    1       26.393 -22.465   7.670  0.00  0.00    +0.248 C 
ATOM     10  O   LIG    1       25.882 -22.419   8.783  0.00  0.00    -0.270 OA
BRANCH   7  11
ATOM     11  C   LIG    1       25.500 -24.738   7.150  0.00  0.00    +0.123 C 
BRANCH  11  13
ATOM     12  N   LIG    1       25.425 -27.267   6.985  0.00  0.00    -0.298 NA
ATOM     13  C   LIG    1       25.976 -26.017   6.414  0.00  0.00    +0.074 C 
ATOM     14  C   LIG    1       25.533 -26.047   4.951  0.00  0.00    +0.021 C 
ATOM     15  C   LIG    1       25.522 -27.518   4.593  0.00  0.00    +0.017 C 
ATOM     16  C   LIG    1       25.278 -28.245   5.903  0.00  0.00    +0.085 C 
BRANCH  12  18
ATOM     17  C   LIG    1       25.736 -29.111   8.637  0.00  0.00    +0.020 C 
ATOM     18  C   LIG    1       26.241 -27.776   8.098  0.00  0.00    +0.081 C 
ENDBRANCH  12  18
ENDBRANCH  11  13
ENDBRANCH   7  11
ENDBRANCH   1   9
BRANCH   5  19
ATOM     19  S   LIG    1       30.974 -20.091   8.225  0.00  0.00    +0.056 S 
ATOM     20  O   LIG    1       30.831 -19.568   9.569  0.00  0.00    -0.153 OA
ATOM     21  O   LIG    1       31.914 -19.547   7.289  0.00  0.00    -0.153 OA
BRANCH  19  22
ATOM     22  N   LIG    1       31.375 -21.708   8.410  0.00  0.00    -0.203 NA
ATOM     23  H   LIG    1       32.389 -21.809   8.450  0.00  0.00    +0.144 HD
ATOM     24  H   LIG    1       30.948 -22.248   7.653  0.00  0.00    +0.144 HD
ENDBRANCH  19  22
ENDBRANCH   5  19
BRANCH   2  25
ATOM     25  O   LIG    1       25.801 -20.747   5.390  0.00  0.00    -0.494 OA
ATOM     26  C   LIG    1       25.558 -19.882   4.283  0.00  0.00    +0.277 C 
ENDBRANCH   2  25
TORSDOF 7
ENDMDL
MODEL 5
REMARK VINA RESULT:      -8.1      3.590      7.274
REMARK  Name = *****
REMARK                            x       y       z     vdW  Elec       q    Type
REMARK                         _______ _______ _______ _____ _____    ______ ____
ROOT
ATOM      1  C   LIG    1       28.076 -20.049   7.470  0.00  0.00    +0.080 A 
ATOM      2  C   LIG    1       28.214 -19.740   6.101  0.00  0.00    +0.132 A 
ATOM      3  C   LIG    1       29.290 -18.941   5.678  0.00  0.00    +0.048 A 
ATOM      4  C   LIG    1       30.268 -18.521   6.581  0.00  0.00    +0.032 A 
ATOM      5  C   LIG    1       30.140 -18.841   7.928  0.00  0.00    +0.106 A 
ATOM      6  C   LIG    1       29.038 -19.577   8.383  0.00  0.00    +0.045 A 
ENDROOT
BRANCH   1   9
ATOM      7  N   LIG    1       25.713 -20.675   7.609  0.00  0.00    -0.310 N 
ATOM      8  H   LIG    1       25.566 -19.869   7.017  0.00  0.00    +0.149 HD
ATOM      9  C   LIG    1       26.995 -20.921   8.039  0.00  0.00    +0.248 C 
ATOM     10  O   LIG    1       27.286 -21.838   8.799  0.00  0.00    -0.270 OA
BRANCH   7  11
ATOM     11  C   LIG    1       24.554 -21.445   8.044  0.00  0.00    +0.123 C 
BRANCH  11  13
ATOM     12  N   LIG    1       24.060 -22.042   5.629  0.00  0.00    -0.298 NA
ATOM     13  C   LIG    1       24.098 -22.524   7.028  0.00  0.00    +0.074 C 
ATOM     14  C   LIG    1       25.047 -23.722   6.985  0.00  0.00    +0.021 C 
ATOM     15  C   LIG    1       24.832 -24.321   5.611  0.00  0.00    +0.017 C 
ATOM     16  C   LIG    1       24.366 -23.167   4.742  0.00  0.00    +0.085 C 
BRANCH  12  18
ATOM     17  C   LIG    1       22.859 -19.872   5.357  0.00  0.00    +0.020 C 
ATOM     18  C   LIG    1       22.781 -21.395   5.300  0.00  0.00    +0.081 C 
ENDBRANCH  12  18
ENDBRANCH  11  13
ENDBRANCH   7  11
ENDBRANCH   1   9
BRANCH   5  19
ATOM     19  S   LIG    1       31.460 -18.478   9.052  0.00  0.00    +0.056 S 
ATOM     20  O   LIG    1       32.023 -17.190   8.700  0.00  0.00    -0.153 OA
ATOM     21  O   LIG    1       32.274 -19.647   9.221  0.00  0.00    -0.153 OA
BRANCH  19  22
ATOM     22  N   LIG    1       30.665 -18.241  10.508  0.00  0.00    -0.203 NA
ATOM     23  H   LIG    1       31.159 -18.733  11.253  0.00  0.00    +0.144 HD
ATOM     24  H   LIG    1       29.691 -18.537  10.410  0.00  0.00    +0.144 HD
ENDBRANCH  19  22
ENDBRANCH   5  19
BRANCH   2  25
ATOM     25  O   LIG    1       27.269 -20.212   5.225  0.00  0.00    -0.494 OA
ATOM     26  C   LIG    1       26.549 -19.221   4.496  0.00  0.00    +0.277 C 
ENDBRANCH   2  25
TORSDOF 7
ENDMDL
MODEL 6
REMARK VINA RESULT:      -7.5      3.499      6.631
REMARK  Name = *****
REMARK                            x       y       z     vdW  Elec       q    Type
REMARK                         _______ _______ _______ _____ _____    ______ ____
ROOT
ATOM      1  C   LIG    1       28.005 -20.870   7.187  0.00  0.00    +0.080 A 
ATOM      2  C   LIG    1       28.430 -19.882   6.275  0.00  0.00    +0.132 A 
ATOM      3  C   LIG    1       29.721 -19.341   6.393  0.00  0.00    +0.048 A 
ATOM      4  C   LIG    1       30.616 -19.828   7.347  0.00  0.00    +0.032 A 
ATOM      5  C   LIG    1       30.202 -20.815   8.235  0.00  0.00    +0.106 A 
ATOM      6  C   LIG    1       28.895 -21.318   8.180  0.00  0.00    +0.045 A 
ENDROOT
BRANCH   1   9
ATOM      7  N   LIG    1       25.566 -20.737   7.019  0.00  0.00    -0.310 N 
ATOM      8  H   LIG    1       25.715 -19.738   7.064  0.00  0.00    +0.149 HD
ATOM      9  C   LIG    1       26.667 -21.549   7.142  0.00  0.00    +0.248 C 
ATOM     10  O   LIG    1       26.603 -22.774   7.153  0.00  0.00    -0.270 OA
BRANCH   7  11
ATOM     11  C   LIG    1       24.198 -21.237   6.935  0.00  0.00    +0.123 C 
BRANCH  11  13
ATOM     12  N   LIG    1       23.582 -19.856   4.899  0.00  0.00    -0.298 NA
ATOM     13  C   LIG    1       23.604 -21.207   5.504  0.00  0.00    +0.074 C 
ATOM     14  C   LIG    1       24.418 -22.045   4.517  0.00  0.00    +0.021 C 
ATOM     15  C   LIG    1       24.104 -21.441   3.165  0.00  0.00    +0.017 C 
ATOM     16  C   LIG    1       23.743 -19.994   3.449  0.00  0.00    +0.085 C 
BRANCH  12  18
ATOM     17  C   LIG    1       22.211 -17.818   4.458  0.00  0.00    +0.020 C 
ATOM     18  C   LIG    1       22.372 -19.104   5.264  0.00  0.00    +0.081 C 
ENDBRANCH  12  18
ENDBRANCH  11  13
ENDBRANCH   7  11
ENDBRANCH   1   9
BRANCH   5  19
ATOM     19  S   LIG    1       31.375 -21.573   9.324  0.00  0.00    +0.056 S 
ATOM     20  O   LIG    1       30.664 -22.109  10.467  0.00  0.00    -0.153 OA
ATOM     21  O   LIG    1       32.514 -20.713   9.469  0.00  0.00    -0.153 OA
BRANCH  19  22
ATOM     22  N   LIG    1       31.898 -22.905   8.452  0.00  0.00    -0.203 NA
ATOM     23  H   LIG    1       31.350 -23.724   8.714  0.00  0.00    +0.144 HD
ATOM     24  H   LIG    1       32.902 -23.030   8.600  0.00  0.00    +0.144 HD
ENDBRANCH  19  22
ENDBRANCH   5  19
BRANCH   2  25
ATOM     25  O   LIG    1       27.549 -19.460   5.310  0.00  0.00    -0.494 OA
ATOM     26  C   LIG    1       27.916 -18.272   4.613  0.00  0.00    +0.277 C 
ENDBRANCH   2  25
TORSDOF 7
ENDMDL
MODEL 7
REMARK VINA RESULT:      -7.5      3.819      7.026
REMARK  Name = *****
REMARK                            x       y       z     vdW  Elec       q    Type
REMARK                         _______ _______ _______ _____ _____    ______ ____
ROOT
ATOM      1  C   LIG    1       28.111 -20.228   6.348  0.00  0.00    +0.080 A 
ATOM      2  C   LIG    1       27.626 -21.357   7.039  0.00  0.00    +0.132 A 
ATOM      3  C   LIG    1       28.339 -21.847   8.147  0.00  0.00    +0.048 A 
ATOM      4  C   LIG    1       29.470 -21.183   8.621  0.00  0.00    +0.032 A 
ATOM      5  C   LIG    1       29.938 -20.059   7.948  0.00  0.00    +0.106 A 
ATOM      6  C   LIG    1       29.284 -19.594   6.800  0.00  0.00    +0.045 A 
ENDROOT
BRANCH   1   9
ATOM      7  N   LIG    1       26.371 -20.279   4.626  0.00  0.00    -0.310 N 
ATOM      8  H   LIG    1       26.188 -21.209   4.978  0.00  0.00    +0.149 HD
ATOM      9  C   LIG    1       27.424 -19.588   5.177  0.00  0.00    +0.248 C 
ATOM     10  O   LIG    1       27.771 -18.475   4.797  0.00  0.00    -0.270 OA
BRANCH   7  11
ATOM     11  C   LIG    1       25.581 -19.788   3.503  0.00  0.00    +0.123 C 
BRANCH  11  13
ATOM     12  N   LIG    1       23.680 -20.258   5.114  0.00  0.00    -0.298 NA
ATOM     13  C   LIG    1       24.054 -19.755   3.773  0.00  0.00    +0.074 C 
ATOM     14  C   LIG    1       23.485 -18.337   3.734  0.00  0.00    +0.021 C 
ATOM     15  C   LIG    1       22.231 -18.412   4.579  0.00  0.00    +0.017 C 
ATOM     16  C   LIG    1       22.479 -19.545   5.558  0.00  0.00    +0.085 C 
BRANCH  12  18
ATOM     17  C   LIG    1       22.888 -22.225   6.430  0.00  0.00    +0.020 C 
ATOM     18  C   LIG    1       23.508 -21.718   5.131  0.00  0.00    +0.081 C 
ENDBRANCH  12  18
ENDBRANCH  11  13
ENDBRANCH   7  11
ENDBRANCH   1   9
BRANCH   5  19
ATOM     19  S   LIG    1       31.257 -19.100   8.640  0.00  0.00    +0.056 S 
ATOM     20  O   LIG    1       31.609 -18.055   7.700  0.00  0.00    -0.153 OA
ATOM     21  O   LIG    1       32.237 -19.979   9.208  0.00  0.00    -0.153 OA
BRANCH  19  22
ATOM     22  N   LIG    1       30.522 -18.318   9.928  0.00  0.00    -0.203 NA
ATOM     23  H   LIG    1       29.913 -17.578   9.579  0.00  0.00    +0.144 HD
ATOM     24  H   LIG    1       31.242 -17.975  10.567  0.00  0.00    +0.144 HD
ENDBRANCH  19  22
ENDBRANCH   5  19
BRANCH   2  25
ATOM     25  O   LIG    1       26.479 -21.959   6.586  0.00  0.00    -0.494 OA
ATOM     26  C   LIG    1       26.196 -23.244   7.134  0.00  0.00    +0.277 C 
ENDBRANCH   2  25
TORSDOF 7
ENDMDL
MODEL 8
REMARK VINA RESULT:      -7.4      4.207      7.946
REMARK  Name = *****
REMARK                            x       y       z     vdW  Elec       q    Type
REMARK                         _______ _______ _______ _____ _____    ______ ____
ROOT
ATOM      1  C   LIG    1       29.341 -19.589   6.934  0.00  0.00    +0.080 A 
ATOM      2  C   LIG    1       29.549 -20.844   7.542  0.00  0.00    +0.132 A 
ATOM      3  C   LIG    1       30.445 -20.950   8.619  0.00  0.00    +0.048 A 
ATOM      4  C   LIG    1       31.066 -19.818   9.147  0.00  0.00    +0.032 A 
ATOM      5  C   LIG    1       30.847 -18.578   8.558  0.00  0.00    +0.106 A 
ATOM      6  C   LIG    1       30.012 -18.460   7.438  0.00  0.00    +0.045 A 
ENDROOT
BRANCH   1   9
ATOM      7  N   LIG    1       27.237 -20.095   5.789  0.00  0.00    -0.310 N 
ATOM      8  H   LIG    1       27.153 -20.831   6.477  0.00  0.00    +0.149 HD
ATOM      9  C   LIG    1       28.385 -19.341   5.804  0.00  0.00    +0.248 C 
ATOM     10  O   LIG    1       28.620 -18.456   4.988  0.00  0.00    -0.270 OA
BRANCH   7  11
ATOM     11  C   LIG    1       26.194 -19.960   4.778  0.00  0.00    +0.123 C 
BRANCH  11  13
ATOM     12  N   LIG    1       23.707 -20.153   4.322  0.00  0.00    -0.298 NA
ATOM     13  C   LIG    1       24.754 -19.971   5.353  0.00  0.00    +0.074 C 
ATOM     14  C   LIG    1       24.524 -21.127   6.327  0.00  0.00    +0.021 C 
ATOM     15  C   LIG    1       23.028 -21.351   6.296  0.00  0.00    +0.017 C 
ATOM     16  C   LIG    1       22.581 -20.871   4.926  0.00  0.00    +0.085 C 
BRANCH  12  18
ATOM     17  C   LIG    1       22.180 -18.186   4.482  0.00  0.00    +0.020 C 
ATOM     18  C   LIG    1       23.302 -18.878   3.712  0.00  0.00    +0.081 C 
ENDBRANCH  12  18
ENDBRANCH  11  13
ENDBRANCH   7  11
ENDBRANCH   1   9
BRANCH   5  19
ATOM     19  S   LIG    1       31.476 -17.110   9.326  0.00  0.00    +0.056 S 
ATOM     20  O   LIG    1       30.361 -16.361   9.870  0.00  0.00    -0.153 OA
ATOM     21  O   LIG    1       32.454 -16.508   8.468  0.00  0.00    -0.153 OA
BRANCH  19  22
ATOM     22  N   LIG    1       32.311 -17.704  10.652  0.00  0.00    -0.203 NA
ATOM     23  H   LIG    1       33.310 -17.722  10.449  0.00  0.00    +0.144 HD
ATOM     24  H   LIG    1       31.936 -18.622  10.901  0.00  0.00    +0.144 HD
ENDBRANCH  19  22
ENDBRANCH   5  19
BRANCH   2  25
ATOM     25  O   LIG    1       28.883 -21.934   7.038  0.00  0.00    -0.494 OA
ATOM     26  C   LIG    1       27.655 -22.262   7.683  0.00  0.00    +0.277 C 
ENDBRANCH   2  25
TORSDOF 7
ENDMDL
MODEL 9
REMARK VINA RESULT:      -7.3      3.652      7.407
REMARK  Name = *****
REMARK                            x       y       z     vdW  Elec       q    Type
REMARK                         _______ _______ _______ _____ _____    ______ ____
ROOT
ATOM      1  C   LIG    1       28.300 -19.900   7.208  0.00  0.00    +0.080 A 
ATOM      2  C   LIG    1       28.579 -19.358   5.936  0.00  0.00    +0.132 A 
ATOM      3  C   LIG    1       29.745 -18.595   5.750  0.00  0.00    +0.048 A 
ATOM      4  C   LIG    1       30.669 -18.439   6.783  0.00  0.00    +0.032 A 
ATOM      5  C   LIG    1       30.402 -18.988   8.032  0.00  0.00    +0.106 A 
ATOM      6  C   LIG    1       29.212 -19.692   8.259  0.00  0.00    +0.045 A 
ENDROOT
BRANCH   1   9
ATOM      7  N   LIG    1       26.795 -21.736   6.609  0.00  0.00    -0.310 N 
ATOM      8  H   LIG    1       27.318 -21.752   5.743  0.00  0.00    +0.149 HD
ATOM      9  C   LIG    1       27.111 -20.760   7.523  0.00  0.00    +0.248 C 
ATOM     10  O   LIG    1       26.513 -20.611   8.583  0.00  0.00    -0.270 OA
BRANCH   7  11
ATOM     11  C   LIG    1       25.689 -22.671   6.775  0.00  0.00    +0.123 C 
BRANCH  11  13
ATOM     12  N   LIG    1       23.230 -22.168   6.412  0.00  0.00    -0.298 NA
ATOM     13  C   LIG    1       24.530 -22.461   5.767  0.00  0.00    +0.074 C 
ATOM     14  C   LIG    1       24.768 -21.264   4.845  0.00  0.00    +0.021 C 
ATOM     15  C   LIG    1       23.381 -20.849   4.404  0.00  0.00    +0.017 C 
ATOM     16  C   LIG    1       22.457 -21.297   5.522  0.00  0.00    +0.085 C 
BRANCH  12  18
ATOM     17  C   LIG    1       23.318 -24.659   6.528  0.00  0.00    +0.020 C 
ATOM     18  C   LIG    1       22.502 -23.393   6.775  0.00  0.00    +0.081 C 
ENDBRANCH  12  18
ENDBRANCH  11  13
ENDBRANCH   7  11
ENDBRANCH   1   9
BRANCH   5  19
ATOM     19  S   LIG    1       31.644 -18.959   9.295  0.00  0.00    +0.056 S 
ATOM     20  O   LIG    1       32.397 -17.727   9.172  0.00  0.00    -0.153 OA
ATOM     21  O   LIG    1       32.283 -20.241   9.362  0.00  0.00    -0.153 OA
BRANCH  19  22
ATOM     22  N   LIG    1       30.749 -18.803  10.704  0.00  0.00    -0.203 NA
ATOM     23  H   LIG    1       31.215 -18.152  11.336  0.00  0.00    +0.144 HD
ATOM     24  H   LIG    1       30.608 -19.728  11.115  0.00  0.00    +0.144 HD
ENDBRANCH  19  22
ENDBRANCH   5  19
BRANCH   2  25
ATOM     25  O   LIG    1       27.680 -19.573   4.921  0.00  0.00    -0.494 OA
ATOM     26  C   LIG    1       27.125 -18.403   4.326  0.00  0.00    +0.277 C 
ENDBRANCH   2  25
TORSDOF 7
ENDMDL
