MODEL 1
REMARK VINA RESULT:      -2.2      0.000      0.000
REMARK  Name = *****
REMARK                            x       y       z     vdW  Elec       q    Type
REMARK                         _______ _______ _______ _____ _____    ______ ____
ROOT
ATOM      1  C   LIG    1       26.105 -17.904   3.314  0.00  0.00    +0.053 C 
ENDROOT
BRANCH   1   8
ATOM      2  C   LIG    1       23.868 -12.556   4.713  0.00  0.00    +0.048 C 
ATOM      3  C   LIG    1       24.300 -13.949   4.348  0.00  0.00    +0.003 C 
ATOM      4  C   LIG    1       25.579 -14.010   3.595  0.00  0.00    +0.185 C 
ATOM      5  O   LIG    1       26.080 -12.986   3.139  0.00  0.00    -0.287 OA
ATOM      6  C   LIG    1       26.245 -15.337   3.419  0.00  0.00    +0.004 C 
ATOM      7  C   LIG    1       27.679 -15.230   2.975  0.00  0.00    +0.048 C 
ATOM      8  C   LIG    1       25.563 -16.488   3.615  0.00  0.00    +0.013 C 
ATOM      9  C   LIG    1       24.150 -16.396   4.102  0.00  0.00    +0.186 C 
ATOM     10  O   LIG    1       23.399 -17.367   4.091  0.00  0.00    -0.287 OA
ATOM     11  C   LIG    1       23.637 -15.088   4.609  0.00  0.00    +0.003 C 
ATOM     12  C   LIG    1       22.331 -15.198   5.347  0.00  0.00    +0.048 C 
ENDBRANCH   1   8
BRANCH   1  13
ATOM     13  C   LIG    1       27.091 -18.397   4.379  0.00  0.00    -0.040 A 
ATOM     14  C   LIG    1       26.794 -19.525   5.161  0.00  0.00    +0.004 A 
ATOM     15  C   LIG    1       27.710 -19.997   6.108  0.00  0.00    +0.000 A 
ATOM     16  C   LIG    1       28.933 -19.352   6.292  0.00  0.00    +0.000 A 
ATOM     17  C   LIG    1       29.235 -18.223   5.542  0.00  0.00    +0.000 A 
ATOM     18  C   LIG    1       28.324 -17.757   4.598  0.00  0.00    +0.004 A 
ENDBRANCH   1  13
BRANCH   1  19
ATOM     19  C   LIG    1       24.942 -18.902   3.004  0.00  0.00    +0.013 C 
BRANCH  19  20
ATOM     20  C   LIG    1       25.359 -20.388   3.019  0.00  0.00    +0.001 C 
BRANCH  20  21
ATOM     21  C   LIG    1       24.212 -21.284   3.512  0.00  0.00    +0.001 C 
BRANCH  21  22
ATOM     22  C   LIG    1       24.296 -21.566   5.016  0.00  0.00    +0.011 C 
BRANCH  22  23
ATOM     23  C   LIG    1       23.285 -20.724   5.799  0.00  0.00    +0.120 C 
BRANCH  23  24
ATOM     24  C   LIG    1       21.966 -20.618   5.064  0.00  0.00    +0.305 C 
ATOM     25  O   LIG    1       21.237 -21.554   4.804  0.00  0.00    -0.251 OA
BRANCH  24  26
ATOM     26  O   LIG    1       21.686 -19.352   4.668  0.00  0.00    -0.481 OA
ATOM     27  H   LIG    1       20.845 -19.000   5.012  0.00  0.00    +0.295 HD
ENDBRANCH  24  26
ENDBRANCH  23  24
ENDBRANCH  22  23
ENDBRANCH  21  22
ENDBRANCH  20  21
ENDBRANCH  19  20
ENDBRANCH   1  19
TORSDOF 9
ENDMDL
MODEL 2
REMARK VINA RESULT:      -2.1      2.014      6.980
REMARK  Name = *****
REMARK                            x       y       z     vdW  Elec       q    Type
REMARK                         _______ _______ _______ _____ _____    ______ ____
ROOT
ATOM      1  C   LIG    1       25.401 -16.165   3.220  0.00  0.00    +0.053 C 
ENDROOT
BRANCH   1   8
ATOM      2  C   LIG    1       22.111 -20.746   5.159  0.00  0.00    +0.048 C 
ATOM      3  C   LIG    1       23.019 -19.685   4.601  0.00  0.00    +0.003 C 
ATOM      4  C   LIG    1       22.347 -18.385   4.345  0.00  0.00    +0.185 C 
ATOM      5  O   LIG    1       21.122 -18.301   4.382  0.00  0.00    -0.287 OA
ATOM      6  C   LIG    1       23.191 -17.186   4.056  0.00  0.00    +0.004 C 
ATOM      7  C   LIG    1       22.443 -15.885   4.175  0.00  0.00    +0.048 C 
ATOM      8  C   LIG    1       24.485 -17.320   3.688  0.00  0.00    +0.013 C 
ATOM      9  C   LIG    1       25.073 -18.697   3.667  0.00  0.00    +0.186 C 
ATOM     10  O   LIG    1       26.156 -18.929   3.138  0.00  0.00    -0.287 OA
ATOM     11  C   LIG    1       24.321 -19.821   4.301  0.00  0.00    +0.003 C 
ATOM     12  C   LIG    1       25.143 -21.066   4.489  0.00  0.00    +0.048 C 
ENDBRANCH   1   8
BRANCH   1  13
ATOM     13  C   LIG    1       24.850 -14.785   3.596  0.00  0.00    -0.040 A 
ATOM     14  C   LIG    1       24.837 -14.361   4.933  0.00  0.00    +0.004 A 
ATOM     15  C   LIG    1       24.367 -13.086   5.273  0.00  0.00    +0.000 A 
ATOM     16  C   LIG    1       23.902 -12.219   4.285  0.00  0.00    +0.000 A 
ATOM     17  C   LIG    1       23.888 -12.629   2.959  0.00  0.00    +0.000 A 
ATOM     18  C   LIG    1       24.359 -13.896   2.623  0.00  0.00    +0.004 A 
ENDBRANCH   1  13
BRANCH   1  19
ATOM     19  C   LIG    1       26.884 -16.406   3.655  0.00  0.00    +0.013 C 
BRANCH  19  20
ATOM     20  C   LIG    1       27.707 -15.113   3.846  0.00  0.00    +0.001 C 
BRANCH  20  21
ATOM     21  C   LIG    1       27.545 -14.168   2.646  0.00  0.00    +0.001 C 
BRANCH  21  22
ATOM     22  C   LIG    1       27.838 -12.707   3.009  0.00  0.00    +0.011 C 
BRANCH  22  23
ATOM     23  C   LIG    1       29.034 -12.598   3.958  0.00  0.00    +0.120 C 
BRANCH  23  24
ATOM     24  C   LIG    1       28.588 -12.379   5.389  0.00  0.00    +0.305 C 
ATOM     25  O   LIG    1       27.581 -12.843   5.883  0.00  0.00    -0.251 OA
BRANCH  24  26
ATOM     26  O   LIG    1       29.415 -11.552   6.076  0.00  0.00    -0.481 OA
ATOM     27  H   LIG    1       29.478 -11.748   7.028  0.00  0.00    +0.295 HD
ENDBRANCH  24  26
ENDBRANCH  23  24
ENDBRANCH  22  23
ENDBRANCH  21  22
ENDBRANCH  20  21
ENDBRANCH  19  20
ENDBRANCH   1  19
TORSDOF 9
ENDMDL
MODEL 3
REMARK VINA RESULT:      -1.7      2.402      5.006
REMARK  Name = *****
REMARK                            x       y       z     vdW  Elec       q    Type
REMARK                         _______ _______ _______ _____ _____    ______ ____
ROOT
ATOM      1  C   LIG    1       24.184 -18.147   4.291  0.00  0.00    +0.053 C 
ENDROOT
BRANCH   1   8
ATOM      2  C   LIG    1       24.840 -12.315   3.229  0.00  0.00    +0.048 C 
ATOM      3  C   LIG    1       24.814 -13.797   3.483  0.00  0.00    +0.003 C 
ATOM      4  C   LIG    1       23.741 -14.234   4.413  0.00  0.00    +0.185 C 
ATOM      5  O   LIG    1       23.109 -13.407   5.064  0.00  0.00    -0.287 OA
ATOM      6  C   LIG    1       23.441 -15.695   4.526  0.00  0.00    +0.004 C 
ATOM      7  C   LIG    1       22.126 -15.983   5.199  0.00  0.00    +0.048 C 
ATOM      8  C   LIG    1       24.322 -16.621   4.086  0.00  0.00    +0.013 C 
ATOM      9  C   LIG    1       25.564 -16.142   3.399  0.00  0.00    +0.186 C 
ATOM     10  O   LIG    1       26.507 -16.895   3.173  0.00  0.00    -0.287 OA
ATOM     11  C   LIG    1       25.662 -14.711   2.983  0.00  0.00    +0.003 C 
ATOM     12  C   LIG    1       26.802 -14.434   2.042  0.00  0.00    +0.048 C 
ENDBRANCH   1   8
BRANCH   1  13
ATOM     13  C   LIG    1       22.752 -18.645   4.068  0.00  0.00    -0.040 A 
ATOM     14  C   LIG    1       22.309 -19.837   4.663  0.00  0.00    +0.004 A 
ATOM     15  C   LIG    1       20.990 -20.273   4.489  0.00  0.00    +0.000 A 
ATOM     16  C   LIG    1       20.096 -19.531   3.718  0.00  0.00    +0.000 A 
ATOM     17  C   LIG    1       20.522 -18.361   3.105  0.00  0.00    +0.000 A 
ATOM     18  C   LIG    1       21.834 -17.926   3.282  0.00  0.00    +0.004 A 
ENDBRANCH   1  13
BRANCH   1  19
ATOM     19  C   LIG    1       25.270 -18.928   3.481  0.00  0.00    +0.013 C 
BRANCH  19  20
ATOM     20  C   LIG    1       25.813 -20.185   4.195  0.00  0.00    +0.001 C 
BRANCH  20  21
ATOM     21  C   LIG    1       25.640 -20.078   5.718  0.00  0.00    +0.001 C 
BRANCH  21  22
ATOM     22  C   LIG    1       26.946 -20.350   6.475  0.00  0.00    +0.011 C 
BRANCH  22  23
ATOM     23  C   LIG    1       28.163 -20.203   5.558  0.00  0.00    +0.120 C 
BRANCH  23  24
ATOM     24  C   LIG    1       28.884 -18.894   5.802  0.00  0.00    +0.305 C 
ATOM     25  O   LIG    1       29.475 -18.604   6.822  0.00  0.00    -0.251 OA
BRANCH  24  26
ATOM     26  O   LIG    1       28.766 -18.029   4.764  0.00  0.00    -0.481 OA
ATOM     27  H   LIG    1       29.138 -17.145   4.934  0.00  0.00    +0.295 HD
ENDBRANCH  24  26
ENDBRANCH  23  24
ENDBRANCH  22  23
ENDBRANCH  21  22
ENDBRANCH  20  21
ENDBRANCH  19  20
ENDBRANCH   1  19
TORSDOF 9
ENDMDL
MODEL 4
REMARK VINA RESULT:      -0.3      1.998      7.130
REMARK  Name = *****
REMARK                            x       y       z     vdW  Elec       q    Type
REMARK                         _______ _______ _______ _____ _____    ______ ____
ROOT
ATOM      1  C   LIG    1       23.289 -18.011   3.942  0.00  0.00    +0.053 C 
ENDROOT
BRANCH   1   8
ATOM      2  C   LIG    1       27.449 -21.118   6.875  0.00  0.00    +0.048 C 
ATOM      3  C   LIG    1       26.488 -20.333   6.026  0.00  0.00    +0.003 C 
ATOM      4  C   LIG    1       25.058 -20.616   6.309  0.00  0.00    +0.185 C 
ATOM      5  O   LIG    1       24.742 -21.572   7.013  0.00  0.00    -0.287 OA
ATOM      6  C   LIG    1       24.019 -19.709   5.733  0.00  0.00    +0.004 C 
ATOM      7  C   LIG    1       22.665 -19.870   6.371  0.00  0.00    +0.048 C 
ATOM      8  C   LIG    1       24.315 -18.875   4.711  0.00  0.00    +0.013 C 
ATOM      9  C   LIG    1       25.734 -18.819   4.235  0.00  0.00    +0.186 C 
ATOM     10  O   LIG    1       26.041 -18.266   3.183  0.00  0.00    -0.287 OA
ATOM     11  C   LIG    1       26.805 -19.459   5.057  0.00  0.00    +0.003 C 
ATOM     12  C   LIG    1       28.197 -19.070   4.641  0.00  0.00    +0.048 C 
ENDBRANCH   1   8
BRANCH   1  13
ATOM     13  C   LIG    1       21.927 -18.699   3.801  0.00  0.00    -0.040 A 
ATOM     14  C   LIG    1       20.815 -17.991   3.317  0.00  0.00    +0.004 A 
ATOM     15  C   LIG    1       19.580 -18.630   3.154  0.00  0.00    +0.000 A 
ATOM     16  C   LIG    1       19.434 -19.979   3.471  0.00  0.00    +0.000 A 
ATOM     17  C   LIG    1       20.517 -20.690   3.969  0.00  0.00    +0.000 A 
ATOM     18  C   LIG    1       21.746 -20.055   4.129  0.00  0.00    +0.004 A 
ENDBRANCH   1  13
BRANCH   1  19
ATOM     19  C   LIG    1       23.220 -16.561   4.524  0.00  0.00    +0.013 C 
BRANCH  19  20
ATOM     20  C   LIG    1       24.093 -15.533   3.772  0.00  0.00    +0.001 C 
BRANCH  20  21
ATOM     21  C   LIG    1       23.790 -14.100   4.236  0.00  0.00    +0.001 C 
BRANCH  21  22
ATOM     22  C   LIG    1       25.061 -13.263   4.416  0.00  0.00    +0.011 C 
BRANCH  22  23
ATOM     23  C   LIG    1       26.320 -14.125   4.290  0.00  0.00    +0.120 C 
BRANCH  23  24
ATOM     24  C   LIG    1       27.041 -13.865   2.984  0.00  0.00    +0.305 C 
ATOM     25  O   LIG    1       26.819 -14.443   1.940  0.00  0.00    -0.251 OA
BRANCH  24  26
ATOM     26  O   LIG    1       28.020 -12.934   3.102  0.00  0.00    -0.481 OA
ATOM     27  H   LIG    1       28.622 -12.886   2.337  0.00  0.00    +0.295 HD
ENDBRANCH  24  26
ENDBRANCH  23  24
ENDBRANCH  22  23
ENDBRANCH  21  22
ENDBRANCH  20  21
ENDBRANCH  19  20
ENDBRANCH   1  19
TORSDOF 9
ENDMDL
MODEL 5
REMARK VINA RESULT:       0.0      2.144      6.886
REMARK  Name = *****
REMARK                            x       y       z     vdW  Elec       q    Type
REMARK                         _______ _______ _______ _____ _____    ______ ____
ROOT
ATOM      1  C   LIG    1       23.252 -17.673   3.850  0.00  0.00    +0.053 C 
ENDROOT
BRANCH   1   8
ATOM      2  C   LIG    1       26.988 -21.569   6.387  0.00  0.00    +0.048 C 
ATOM      3  C   LIG    1       25.967 -20.597   5.863  0.00  0.00    +0.003 C 
ATOM      4  C   LIG    1       26.530 -19.544   4.979  0.00  0.00    +0.185 C 
ATOM      5  O   LIG    1       27.745 -19.386   4.898  0.00  0.00    -0.287 OA
ATOM      6  C   LIG    1       25.590 -18.696   4.184  0.00  0.00    +0.004 C 
ATOM      7  C   LIG    1       26.265 -17.934   3.076  0.00  0.00    +0.048 C 
ATOM      8  C   LIG    1       24.278 -18.629   4.502  0.00  0.00    +0.013 C 
ATOM      9  C   LIG    1       23.776 -19.498   5.614  0.00  0.00    +0.186 C 
ATOM     10  O   LIG    1       22.664 -19.337   6.108  0.00  0.00    -0.287 OA
ATOM     11  C   LIG    1       24.654 -20.587   6.142  0.00  0.00    +0.003 C 
ATOM     12  C   LIG    1       23.931 -21.569   7.021  0.00  0.00    +0.048 C 
ENDBRANCH   1   8
BRANCH   1  13
ATOM     13  C   LIG    1       21.885 -18.332   3.635  0.00  0.00    -0.040 A 
ATOM     14  C   LIG    1       21.661 -19.659   4.032  0.00  0.00    +0.004 A 
ATOM     15  C   LIG    1       20.402 -20.249   3.868  0.00  0.00    +0.000 A 
ATOM     16  C   LIG    1       19.350 -19.527   3.306  0.00  0.00    +0.000 A 
ATOM     17  C   LIG    1       19.559 -18.219   2.889  0.00  0.00    +0.000 A 
ATOM     18  C   LIG    1       20.812 -17.632   3.055  0.00  0.00    +0.004 A 
ENDBRANCH   1  13
BRANCH   1  19
ATOM     19  C   LIG    1       23.195 -16.304   4.603  0.00  0.00    +0.013 C 
BRANCH  19  20
ATOM     20  C   LIG    1       23.184 -15.070   3.676  0.00  0.00    +0.001 C 
BRANCH  20  21
ATOM     21  C   LIG    1       24.167 -13.996   4.166  0.00  0.00    +0.001 C 
BRANCH  21  22
ATOM     22  C   LIG    1       25.565 -14.564   4.439  0.00  0.00    +0.011 C 
BRANCH  22  23
ATOM     23  C   LIG    1       26.580 -13.448   4.701  0.00  0.00    +0.120 C 
BRANCH  23  24
ATOM     24  C   LIG    1       27.648 -13.409   3.628  0.00  0.00    +0.305 C 
ATOM     25  O   LIG    1       28.843 -13.363   3.837  0.00  0.00    -0.251 OA
BRANCH  24  26
ATOM     26  O   LIG    1       27.132 -13.381   2.374  0.00  0.00    -0.481 OA
ATOM     27  H   LIG    1       27.414 -12.615   1.841  0.00  0.00    +0.295 HD
ENDBRANCH  24  26
ENDBRANCH  23  24
ENDBRANCH  22  23
ENDBRANCH  21  22
ENDBRANCH  20  21
ENDBRANCH  19  20
ENDBRANCH   1  19
TORSDOF 9
ENDMDL
MODEL 6
REMARK VINA RESULT:       0.1      2.460      6.289
REMARK  Name = *****
REMARK                            x       y       z     vdW  Elec       q    Type
REMARK                         _______ _______ _______ _____ _____    ______ ____
ROOT
ATOM      1  C   LIG    1       24.984 -14.451   3.575  0.00  0.00    +0.053 C 
ENDROOT
BRANCH   1   8
ATOM      2  C   LIG    1       23.972 -20.309   4.052  0.00  0.00    +0.048 C 
ATOM      3  C   LIG    1       24.112 -18.812   4.009  0.00  0.00    +0.003 C 
ATOM      4  C   LIG    1       25.518 -18.335   3.955  0.00  0.00    +0.185 C 
ATOM      5  O   LIG    1       26.445 -19.113   4.159  0.00  0.00    -0.287 OA
ATOM      6  C   LIG    1       25.776 -16.898   3.633  0.00  0.00    +0.004 C 
ATOM      7  C   LIG    1       27.205 -16.620   3.250  0.00  0.00    +0.048 C 
ATOM      8  C   LIG    1       24.792 -15.977   3.733  0.00  0.00    +0.013 C 
ATOM      9  C   LIG    1       23.416 -16.450   4.085  0.00  0.00    +0.186 C 
ATOM     10  O   LIG    1       22.528 -15.668   4.412  0.00  0.00    -0.287 OA
ATOM     11  C   LIG    1       23.115 -17.913   4.046  0.00  0.00    +0.003 C 
ATOM     12  C   LIG    1       21.646 -18.228   4.112  0.00  0.00    +0.048 C 
ENDBRANCH   1   8
BRANCH   1  13
ATOM     13  C   LIG    1       26.348 -13.972   4.083  0.00  0.00    -0.040 A 
ATOM     14  C   LIG    1       27.404 -13.742   3.188  0.00  0.00    +0.004 A 
ATOM     15  C   LIG    1       28.639 -13.269   3.648  0.00  0.00    +0.000 A 
ATOM     16  C   LIG    1       28.840 -13.022   5.005  0.00  0.00    +0.000 A 
ATOM     17  C   LIG    1       27.813 -13.263   5.908  0.00  0.00    +0.000 A 
ATOM     18  C   LIG    1       26.584 -13.730   5.449  0.00  0.00    +0.004 A 
ENDBRANCH   1  13
BRANCH   1  19
ATOM     19  C   LIG    1       24.638 -13.983   2.123  0.00  0.00    +0.013 C 
BRANCH  19  20
ATOM     20  C   LIG    1       25.042 -12.526   1.813  0.00  0.00    +0.001 C 
BRANCH  20  21
ATOM     21  C   LIG    1       23.879 -11.557   2.077  0.00  0.00    +0.001 C 
BRANCH  21  22
ATOM     22  C   LIG    1       23.305 -11.706   3.491  0.00  0.00    +0.011 C 
BRANCH  22  23
ATOM     23  C   LIG    1       24.372 -11.447   4.557  0.00  0.00    +0.120 C 
BRANCH  23  24
ATOM     24  C   LIG    1       23.780 -11.470   5.951  0.00  0.00    +0.305 C 
ATOM     25  O   LIG    1       22.592 -11.464   6.202  0.00  0.00    -0.251 OA
BRANCH  24  26
ATOM     26  O   LIG    1       24.724 -11.448   6.923  0.00  0.00    -0.481 OA
ATOM     27  H   LIG    1       25.598 -11.133   6.627  0.00  0.00    +0.295 HD
ENDBRANCH  24  26
ENDBRANCH  23  24
ENDBRANCH  22  23
ENDBRANCH  21  22
ENDBRANCH  20  21
ENDBRANCH  19  20
ENDBRANCH   1  19
TORSDOF 9
ENDMDL
MODEL 7
REMARK VINA RESULT:       0.3      2.333      5.563
REMARK  Name = *****
REMARK                            x       y       z     vdW  Elec       q    Type
REMARK                         _______ _______ _______ _____ _____    ______ ____
ROOT
ATOM      1  C   LIG    1       25.844 -16.214   3.114  0.00  0.00    +0.053 C 
ENDROOT
BRANCH   1   8
ATOM      2  C   LIG    1       22.101 -20.407   5.108  0.00  0.00    +0.048 C 
ATOM      3  C   LIG    1       23.101 -19.448   4.522  0.00  0.00    +0.003 C 
ATOM      4  C   LIG    1       22.614 -18.048   4.426  0.00  0.00    +0.185 C 
ATOM      5  O   LIG    1       21.427 -17.790   4.606  0.00  0.00    -0.287 OA
ATOM      6  C   LIG    1       23.599 -16.965   4.123  0.00  0.00    +0.004 C 
ATOM      7  C   LIG    1       23.075 -15.584   4.409  0.00  0.00    +0.048 C 
ATOM      8  C   LIG    1       24.814 -17.256   3.606  0.00  0.00    +0.013 C 
ATOM      9  C   LIG    1       25.178 -18.698   3.431  0.00  0.00    +0.186 C 
ATOM     10  O   LIG    1       26.154 -19.042   2.771  0.00  0.00    -0.287 OA
ATOM     11  C   LIG    1       24.330 -19.748   4.071  0.00  0.00    +0.003 C 
ATOM     12  C   LIG    1       24.966 -21.111   4.086  0.00  0.00    +0.048 C 
ENDBRANCH   1   8
BRANCH   1  13
ATOM     13  C   LIG    1       25.582 -14.813   3.678  0.00  0.00    -0.040 A 
ATOM     14  C   LIG    1       26.087 -14.443   4.934  0.00  0.00    +0.004 A 
ATOM     15  C   LIG    1       25.878 -13.151   5.434  0.00  0.00    +0.000 A 
ATOM     16  C   LIG    1       25.162 -12.213   4.691  0.00  0.00    +0.000 A 
ATOM     17  C   LIG    1       24.638 -12.569   3.456  0.00  0.00    +0.000 A 
ATOM     18  C   LIG    1       24.849 -13.852   2.959  0.00  0.00    +0.004 A 
ENDBRANCH   1  13
BRANCH   1  19
ATOM     19  C   LIG    1       27.308 -16.725   3.316  0.00  0.00    +0.013 C 
BRANCH  19  20
ATOM     20  C   LIG    1       27.576 -17.352   4.702  0.00  0.00    +0.001 C 
BRANCH  20  21
ATOM     21  C   LIG    1       29.033 -17.821   4.828  0.00  0.00    +0.001 C 
BRANCH  21  22
ATOM     22  C   LIG    1       29.226 -18.828   5.968  0.00  0.00    +0.011 C 
BRANCH  22  23
ATOM     23  C   LIG    1       27.893 -19.447   6.397  0.00  0.00    +0.120 C 
BRANCH  23  24
ATOM     24  C   LIG    1       28.064 -20.892   6.817  0.00  0.00    +0.305 C 
ATOM     25  O   LIG    1       29.127 -21.425   7.062  0.00  0.00    -0.251 OA
BRANCH  24  26
ATOM     26  O   LIG    1       26.891 -21.572   6.847  0.00  0.00    -0.481 OA
ATOM     27  H   LIG    1       26.697 -22.001   7.700  0.00  0.00    +0.295 HD
ENDBRANCH  24  26
ENDBRANCH  23  24
ENDBRANCH  22  23
ENDBRANCH  21  22
ENDBRANCH  20  21
ENDBRANCH  19  20
ENDBRANCH   1  19
TORSDOF 9
ENDMDL
MODEL 8
REMARK VINA RESULT:       0.4      1.605      5.460
REMARK  Name = *****
REMARK                            x       y       z     vdW  Elec       q    Type
REMARK                         _______ _______ _______ _____ _____    ______ ____
ROOT
ATOM      1  C   LIG    1       25.568 -18.646   4.588  0.00  0.00    +0.053 C 
ENDROOT
BRANCH   1   8
ATOM      2  C   LIG    1       19.775 -19.812   3.786  0.00  0.00    +0.048 C 
ATOM      3  C   LIG    1       21.197 -19.389   4.029  0.00  0.00    +0.003 C 
ATOM      4  C   LIG    1       22.089 -20.491   4.475  0.00  0.00    +0.185 C 
ATOM      5  O   LIG    1       21.618 -21.572   4.817  0.00  0.00    -0.287 OA
ATOM      6  C   LIG    1       23.566 -20.259   4.482  0.00  0.00    +0.004 C 
ATOM      7  C   LIG    1       24.369 -21.528   4.593  0.00  0.00    +0.048 C 
ATOM      8  C   LIG    1       24.073 -19.007   4.432  0.00  0.00    +0.013 C 
ATOM      9  C   LIG    1       23.117 -17.865   4.277  0.00  0.00    +0.186 C 
ATOM     10  O   LIG    1       23.468 -16.701   4.447  0.00  0.00    -0.287 OA
ATOM     11  C   LIG    1       21.696 -18.148   3.913  0.00  0.00    +0.003 C 
ATOM     12  C   LIG    1       20.929 -16.927   3.486  0.00  0.00    +0.048 C 
ENDBRANCH   1   8
BRANCH   1  13
ATOM     13  C   LIG    1       26.326 -19.640   5.475  0.00  0.00    -0.040 A 
ATOM     14  C   LIG    1       25.629 -20.556   6.279  0.00  0.00    +0.004 A 
ATOM     15  C   LIG    1       26.321 -21.488   7.062  0.00  0.00    +0.000 A 
ATOM     16  C   LIG    1       27.715 -21.520   7.057  0.00  0.00    +0.000 A 
ATOM     17  C   LIG    1       28.421 -20.608   6.283  0.00  0.00    +0.000 A 
ATOM     18  C   LIG    1       27.731 -19.683   5.503  0.00  0.00    +0.004 A 
ENDBRANCH   1  13
BRANCH   1  19
ATOM     19  C   LIG    1       26.236 -18.386   3.198  0.00  0.00    +0.013 C 
BRANCH  19  20
ATOM     20  C   LIG    1       26.207 -16.909   2.747  0.00  0.00    +0.001 C 
BRANCH  20  21
ATOM     21  C   LIG    1       26.894 -15.999   3.775  0.00  0.00    +0.001 C 
BRANCH  21  22
ATOM     22  C   LIG    1       27.152 -14.590   3.229  0.00  0.00    +0.011 C 
BRANCH  22  23
ATOM     23  C   LIG    1       25.852 -13.921   2.775  0.00  0.00    +0.120 C 
BRANCH  23  24
ATOM     24  C   LIG    1       25.007 -13.494   3.957  0.00  0.00    +0.305 C 
ATOM     25  O   LIG    1       25.425 -12.916   4.939  0.00  0.00    -0.251 OA
BRANCH  24  26
ATOM     26  O   LIG    1       23.709 -13.870   3.837  0.00  0.00    -0.481 OA
ATOM     27  H   LIG    1       23.258 -13.512   3.051  0.00  0.00    +0.295 HD
ENDBRANCH  24  26
ENDBRANCH  23  24
ENDBRANCH  22  23
ENDBRANCH  21  22
ENDBRANCH  20  21
ENDBRANCH  19  20
ENDBRANCH   1  19
TORSDOF 9
ENDMDL
