MODEL 1
REMARK VINA RESULT:      -6.5      0.000      0.000
REMARK  Name = *****
REMARK                            x       y       z     vdW  Elec       q    Type
REMARK                         _______ _______ _______ _____ _____    ______ ____
ROOT
ATOM      1  C   LIG    1       25.728 -29.008   7.345  0.00  0.00    +0.169 C 
ATOM      2  C   LIG    1       25.722 -29.378   8.856  0.00  0.00    +0.175 C 
ATOM      3  C   LIG    1       25.480 -30.885   9.127  0.00  0.00    +0.169 C 
ATOM      4  C   LIG    1       26.243 -31.682   8.018  0.00  0.00    +0.084 C 
ATOM      5  C   LIG    1       25.675 -31.455   6.607  0.00  0.00    +0.042 C 
ATOM      6  C   LIG    1       25.082 -30.043   6.400  0.00  0.00    +0.084 C 
ENDROOT
BRANCH   4   7
ATOM      7  N   LIG    1       26.495 -33.100   8.318  0.00  0.00    -0.325 NA
ATOM      8  H   LIG    1       25.616 -33.621   8.294  0.00  0.00    +0.118 HD
ATOM      9  H   LIG    1       26.853 -33.239   9.260  0.00  0.00    +0.118 HD
ENDBRANCH   4   7
BRANCH   6  10
ATOM     10  N   LIG    1       23.625 -30.056   6.524  0.00  0.00    -0.325 NA
ATOM     11  H   LIG    1       23.228 -30.718   5.857  0.00  0.00    +0.118 HD
ATOM     12  H   LIG    1       23.277 -29.136   6.240  0.00  0.00    +0.118 HD
ENDBRANCH   6  10
BRANCH   2  13
ATOM     13  O   LIG    1       27.036 -29.011   9.368  0.00  0.00    -0.387 OA
ATOM     14  H   LIG    1       27.014 -28.988  10.323  0.00  0.00    +0.210 HD
ENDBRANCH   2  13
BRANCH   1  15
ATOM     15  O   LIG    1       25.192 -27.696   7.053  0.00  0.00    -0.342 OA
BRANCH  15  18
ATOM     16  C   LIG    1       25.100 -24.467   6.396  0.00  0.00    +0.138 C 
ATOM     17  O   LIG    1       25.566 -25.396   7.396  0.00  0.00    -0.345 OA
ATOM     18  C   LIG    1       26.145 -26.632   6.873  0.00  0.00    +0.268 C 
ATOM     19  C   LIG    1       26.585 -26.446   5.374  0.00  0.00    +0.107 C 
ATOM     20  C   LIG    1       25.359 -26.072   4.516  0.00  0.00    +0.026 C 
ATOM     21  C   LIG    1       24.357 -25.224   5.301  0.00  0.00    +0.035 C 
BRANCH  19  22
ATOM     22  N   LIG    1       27.336 -27.516   4.698  0.00  0.00    -0.323 NA
ATOM     23  H   LIG    1       28.327 -27.423   4.897  0.00  0.00    +0.119 HD
ATOM     24  H   LIG    1       27.229 -27.396   3.680  0.00  0.00    +0.119 HD
ENDBRANCH  19  22
BRANCH  16  25
ATOM     25  C   LIG    1       24.255 -23.301   6.995  0.00  0.00    +0.079 C 
ATOM     26  C   LIG    1       25.119 -22.199   7.614  0.00  0.00    +0.026 C 
BRANCH  25  28
ATOM     27  C   LIG    1       23.111 -21.251   6.293  0.00  0.00    +0.101 C 
ATOM     28  N   LIG    1       23.351 -22.662   6.016  0.00  0.00    -0.314 NA
ATOM     29  H   LIG    1       22.459 -23.162   6.042  0.00  0.00    +0.122 HD
ENDBRANCH  25  28
ENDBRANCH  16  25
ENDBRANCH  15  18
ENDBRANCH   1  15
BRANCH   3  30
ATOM     30  O   LIG    1       24.067 -31.084   9.236  0.00  0.00    -0.341 OA
BRANCH  30  31
ATOM     31  C   LIG    1       23.581 -31.974  10.224  0.00  0.00    +0.281 C 
ATOM     32  C   LIG    1       23.825 -31.572  11.710  0.00  0.00    +0.190 C 
ATOM     33  C   LIG    1       22.863 -30.449  12.235  0.00  0.00    +0.121 C 
ATOM     34  C   LIG    1       21.390 -30.761  11.800  0.00  0.00    +0.104 C 
ATOM     35  C   LIG    1       20.798 -31.911  12.631  0.00  0.00    +0.045 C 
ATOM     36  C   LIG    1       21.364 -31.109  10.303  0.00  0.00    +0.199 C 
ATOM     37  O   LIG    1       22.183 -32.239  10.016  0.00  0.00    -0.346 OA
BRANCH  33  38
ATOM     38  N   LIG    1       23.401 -29.111  11.820  0.00  0.00    -0.311 NA
ATOM     39  H   LIG    1       23.568 -29.160  10.814  0.00  0.00    +0.122 HD
ATOM     40  C   LIG    1       24.696 -28.788  12.424  0.00  0.00    +0.101 C 
ENDBRANCH  33  38
BRANCH  32  41
ATOM     41  O   LIG    1       23.732 -32.732  12.561  0.00  0.00    -0.385 OA
ATOM     42  H   LIG    1       23.123 -32.513  13.294  0.00  0.00    +0.210 HD
ENDBRANCH  32  41
BRANCH  34  43
ATOM     43  O   LIG    1       20.504 -29.660  12.055  0.00  0.00    -0.385 OA
ATOM     44  H   LIG    1       19.731 -29.776  11.484  0.00  0.00    +0.210 HD
ENDBRANCH  34  43
ENDBRANCH  30  31
ENDBRANCH   3  30
TORSDOF 13
ENDMDL
MODEL 2
REMARK VINA RESULT:      -6.4      4.085      7.967
REMARK  Name = *****
REMARK                            x       y       z     vdW  Elec       q    Type
REMARK                         _______ _______ _______ _____ _____    ______ ____
ROOT
ATOM      1  C   LIG    1       25.556 -21.147   7.078  0.00  0.00    +0.169 C 
ATOM      2  C   LIG    1       25.579 -21.968   5.756  0.00  0.00    +0.175 C 
ATOM      3  C   LIG    1       24.671 -23.224   5.789  0.00  0.00    +0.169 C 
ATOM      4  C   LIG    1       23.375 -22.838   6.575  0.00  0.00    +0.084 C 
ATOM      5  C   LIG    1       23.636 -22.521   8.057  0.00  0.00    +0.042 C 
ATOM      6  C   LIG    1       25.023 -21.891   8.319  0.00  0.00    +0.084 C 
ENDROOT
BRANCH   4   7
ATOM      7  N   LIG    1       22.222 -23.727   6.369  0.00  0.00    -0.325 NA
ATOM      8  H   LIG    1       22.282 -24.165   5.447  0.00  0.00    +0.118 HD
ATOM      9  H   LIG    1       21.340 -23.222   6.358  0.00  0.00    +0.118 HD
ENDBRANCH   4   7
BRANCH   6  10
ATOM     10  N   LIG    1       25.975 -22.890   8.805  0.00  0.00    -0.325 NA
ATOM     11  H   LIG    1       25.754 -23.801   8.404  0.00  0.00    +0.118 HD
ATOM     12  H   LIG    1       25.837 -22.991   9.814  0.00  0.00    +0.118 HD
ENDBRANCH   6  10
BRANCH   2  13
ATOM     13  O   LIG    1       25.104 -21.069   4.713  0.00  0.00    -0.387 OA
ATOM     14  H   LIG    1       24.696 -21.577   4.014  0.00  0.00    +0.210 HD
ENDBRANCH   2  13
BRANCH   1  15
ATOM     15  O   LIG    1       26.816 -20.515   7.406  0.00  0.00    -0.342 OA
BRANCH  15  18
ATOM     16  C   LIG    1       30.086 -20.400   7.811  0.00  0.00    +0.138 C 
ATOM     17  O   LIG    1       29.004 -21.345   7.684  0.00  0.00    -0.345 OA
ATOM     18  C   LIG    1       27.981 -20.987   6.702  0.00  0.00    +0.268 C 
ATOM     19  C   LIG    1       28.543 -19.941   5.672  0.00  0.00    +0.107 C 
ATOM     20  C   LIG    1       28.982 -18.663   6.416  0.00  0.00    +0.026 C 
ATOM     21  C   LIG    1       29.529 -18.980   7.809  0.00  0.00    +0.035 C 
BRANCH  19  22
ATOM     22  N   LIG    1       27.733 -19.561   4.503  0.00  0.00    -0.323 NA
ATOM     23  H   LIG    1       27.637 -18.552   4.460  0.00  0.00    +0.119 HD
ATOM     24  H   LIG    1       26.782 -19.940   4.628  0.00  0.00    +0.119 HD
ENDBRANCH  19  22
BRANCH  16  25
ATOM     25  C   LIG    1       30.998 -20.682   9.044  0.00  0.00    +0.079 C 
ATOM     26  C   LIG    1       31.511 -22.124   9.085  0.00  0.00    +0.026 C 
BRANCH  25  28
ATOM     27  C   LIG    1       31.835 -18.432   9.537  0.00  0.00    +0.101 C 
ATOM     28  N   LIG    1       32.173 -19.789   9.128  0.00  0.00    -0.314 NA
ATOM     29  H   LIG    1       32.608 -19.759   8.203  0.00  0.00    +0.122 HD
ENDBRANCH  25  28
ENDBRANCH  16  25
ENDBRANCH  15  18
ENDBRANCH   1  15
BRANCH   3  30
ATOM     30  O   LIG    1       25.455 -24.312   6.291  0.00  0.00    -0.341 OA
BRANCH  30  31
ATOM     31  C   LIG    1       25.874 -25.320   5.390  0.00  0.00    +0.281 C 
ATOM     32  C   LIG    1       26.854 -26.395   5.948  0.00  0.00    +0.190 C 
ATOM     33  C   LIG    1       26.168 -27.476   6.856  0.00  0.00    +0.121 C 
ATOM     34  C   LIG    1       24.847 -27.981   6.181  0.00  0.00    +0.104 C 
ATOM     35  C   LIG    1       25.149 -28.906   4.991  0.00  0.00    +0.045 C 
ATOM     36  C   LIG    1       24.015 -26.771   5.725  0.00  0.00    +0.199 C 
ATOM     37  O   LIG    1       24.734 -25.965   4.796  0.00  0.00    -0.346 OA
BRANCH  33  38
ATOM     38  N   LIG    1       26.029 -26.931   8.247  0.00  0.00    -0.311 NA
ATOM     39  H   LIG    1       26.632 -26.108   8.301  0.00  0.00    +0.122 HD
ATOM     40  C   LIG    1       26.506 -27.846   9.286  0.00  0.00    +0.101 C 
ENDBRANCH  33  38
BRANCH  32  41
ATOM     41  O   LIG    1       27.555 -27.039   4.866  0.00  0.00    -0.385 OA
ATOM     42  H   LIG    1       27.871 -27.906   5.191  0.00  0.00    +0.210 HD
ENDBRANCH  32  41
BRANCH  34  43
ATOM     43  O   LIG    1       24.064 -28.799   7.064  0.00  0.00    -0.385 OA
ATOM     44  H   LIG    1       24.408 -28.663   7.960  0.00  0.00    +0.210 HD
ENDBRANCH  34  43
ENDBRANCH  30  31
ENDBRANCH   3  30
TORSDOF 13
ENDMDL
MODEL 3
REMARK VINA RESULT:      -6.1      1.265      2.086
REMARK  Name = *****
REMARK                            x       y       z     vdW  Elec       q    Type
REMARK                         _______ _______ _______ _____ _____    ______ ____
ROOT
ATOM      1  C   LIG    1       25.866 -28.951   7.658  0.00  0.00    +0.169 C 
ATOM      2  C   LIG    1       26.024 -29.047   9.203  0.00  0.00    +0.175 C 
ATOM      3  C   LIG    1       25.837 -30.482   9.759  0.00  0.00    +0.169 C 
ATOM      4  C   LIG    1       26.493 -31.465   8.734  0.00  0.00    +0.084 C 
ATOM      5  C   LIG    1       25.777 -31.490   7.374  0.00  0.00    +0.042 C 
ATOM      6  C   LIG    1       25.143 -30.135   6.984  0.00  0.00    +0.084 C 
ENDROOT
BRANCH   4   7
ATOM      7  N   LIG    1       26.798 -32.807   9.252  0.00  0.00    -0.325 NA
ATOM      8  H   LIG    1       26.727 -33.494   8.498  0.00  0.00    +0.118 HD
ATOM      9  H   LIG    1       26.126 -33.116   9.948  0.00  0.00    +0.118 HD
ENDBRANCH   4   7
BRANCH   6  10
ATOM     10  N   LIG    1       23.707 -30.123   7.261  0.00  0.00    -0.325 NA
ATOM     11  H   LIG    1       23.386 -29.161   7.376  0.00  0.00    +0.118 HD
ATOM     12  H   LIG    1       23.558 -30.574   8.168  0.00  0.00    +0.118 HD
ENDBRANCH   6  10
BRANCH   2  13
ATOM     13  O   LIG    1       27.378 -28.598   9.501  0.00  0.00    -0.387 OA
ATOM     14  H   LIG    1       27.759 -29.154  10.177  0.00  0.00    +0.210 HD
ENDBRANCH   2  13
BRANCH   1  15
ATOM     15  O   LIG    1       25.281 -27.711   7.197  0.00  0.00    -0.342 OA
BRANCH  15  18
ATOM     16  C   LIG    1       25.062 -24.533   6.346  0.00  0.00    +0.138 C 
ATOM     17  O   LIG    1       25.611 -25.384   7.373  0.00  0.00    -0.345 OA
ATOM     18  C   LIG    1       26.192 -26.637   6.894  0.00  0.00    +0.268 C 
ATOM     19  C   LIG    1       26.538 -26.538   5.363  0.00  0.00    +0.107 C 
ATOM     20  C   LIG    1       25.254 -26.249   4.558  0.00  0.00    +0.026 C 
ATOM     21  C   LIG    1       24.277 -25.377   5.347  0.00  0.00    +0.035 C 
BRANCH  19  22
ATOM     22  N   LIG    1       27.278 -27.630   4.711  0.00  0.00    -0.323 NA
ATOM     23  H   LIG    1       28.061 -27.254   4.187  0.00  0.00    +0.119 HD
ATOM     24  H   LIG    1       26.656 -28.082   4.025  0.00  0.00    +0.119 HD
ENDBRANCH  19  22
BRANCH  16  25
ATOM     25  C   LIG    1       24.221 -23.352   6.920  0.00  0.00    +0.079 C 
ATOM     26  C   LIG    1       25.073 -22.331   7.680  0.00  0.00    +0.026 C 
BRANCH  25  28
ATOM     27  C   LIG    1       24.270 -21.672   5.136  0.00  0.00    +0.101 C 
ATOM     28  N   LIG    1       23.455 -22.615   5.892  0.00  0.00    -0.314 NA
ATOM     29  H   LIG    1       22.708 -22.103   6.368  0.00  0.00    +0.122 HD
ENDBRANCH  25  28
ENDBRANCH  16  25
ENDBRANCH  15  18
ENDBRANCH   1  15
BRANCH   3  30
ATOM     30  O   LIG    1       24.446 -30.655  10.051  0.00  0.00    -0.341 OA
BRANCH  30  31
ATOM     31  C   LIG    1       23.909 -30.022  11.198  0.00  0.00    +0.281 C 
ATOM     32  C   LIG    1       22.356 -29.918  11.277  0.00  0.00    +0.190 C 
ATOM     33  C   LIG    1       21.645 -31.260  11.672  0.00  0.00    +0.121 C 
ATOM     34  C   LIG    1       22.390 -31.925  12.879  0.00  0.00    +0.104 C 
ATOM     35  C   LIG    1       22.104 -31.173  14.190  0.00  0.00    +0.045 C 
ATOM     36  C   LIG    1       23.900 -31.951  12.593  0.00  0.00    +0.199 C 
ATOM     37  O   LIG    1       24.416 -30.638  12.394  0.00  0.00    -0.346 OA
BRANCH  33  38
ATOM     38  N   LIG    1       21.491 -32.111  10.446  0.00  0.00    -0.311 NA
ATOM     39  H   LIG    1       21.768 -31.533   9.650  0.00  0.00    +0.122 HD
ATOM     40  C   LIG    1       20.108 -32.516  10.184  0.00  0.00    +0.101 C 
ENDBRANCH  33  38
BRANCH  32  41
ATOM     41  O   LIG    1       21.974 -28.874  12.194  0.00  0.00    -0.385 OA
ATOM     42  H   LIG    1       22.418 -29.052  13.048  0.00  0.00    +0.210 HD
ENDBRANCH  32  41
BRANCH  34  43
ATOM     43  O   LIG    1       21.924 -33.258  13.137  0.00  0.00    -0.385 OA
ATOM     44  H   LIG    1       21.644 -33.633  12.289  0.00  0.00    +0.210 HD
ENDBRANCH  34  43
ENDBRANCH  30  31
ENDBRANCH   3  30
TORSDOF 13
ENDMDL
MODEL 4
REMARK VINA RESULT:      -6.0      1.819      2.210
REMARK  Name = *****
REMARK                            x       y       z     vdW  Elec       q    Type
REMARK                         _______ _______ _______ _____ _____    ______ ____
ROOT
ATOM      1  C   LIG    1       25.535 -29.417   8.717  0.00  0.00    +0.169 C 
ATOM      2  C   LIG    1       25.915 -29.105  10.193  0.00  0.00    +0.175 C 
ATOM      3  C   LIG    1       25.545 -30.240  11.183  0.00  0.00    +0.169 C 
ATOM      4  C   LIG    1       25.827 -31.597  10.458  0.00  0.00    +0.084 C 
ATOM      5  C   LIG    1       24.913 -31.839   9.246  0.00  0.00    +0.042 C 
ATOM      6  C   LIG    1       24.499 -30.541   8.515  0.00  0.00    +0.084 C 
ENDROOT
BRANCH   4   7
ATOM      7  N   LIG    1       25.945 -32.770  11.336  0.00  0.00    -0.325 NA
ATOM      8  H   LIG    1       26.236 -33.584  10.791  0.00  0.00    +0.118 HD
ATOM      9  H   LIG    1       25.055 -33.038  11.747  0.00  0.00    +0.118 HD
ENDBRANCH   4   7
BRANCH   6  10
ATOM     10  N   LIG    1       23.154 -30.118   8.907  0.00  0.00    -0.325 NA
ATOM     11  H   LIG    1       23.164 -29.130   9.160  0.00  0.00    +0.118 HD
ATOM     12  H   LIG    1       22.904 -30.620   9.764  0.00  0.00    +0.118 HD
ENDBRANCH   6  10
BRANCH   2  13
ATOM     13  O   LIG    1       27.360 -28.918  10.209  0.00  0.00    -0.387 OA
ATOM     14  H   LIG    1       27.759 -29.552  10.800  0.00  0.00    +0.210 HD
ENDBRANCH   2  13
BRANCH   1  15
ATOM     15  O   LIG    1       25.134 -28.257   7.950  0.00  0.00    -0.342 OA
BRANCH  15  18
ATOM     16  C   LIG    1       25.397 -25.644   5.957  0.00  0.00    +0.138 C 
ATOM     17  O   LIG    1       26.086 -26.304   7.038  0.00  0.00    -0.345 OA
ATOM     18  C   LIG    1       26.077 -27.765   6.978  0.00  0.00    +0.268 C 
ATOM     19  C   LIG    1       25.769 -28.258   5.518  0.00  0.00    +0.107 C 
ATOM     20  C   LIG    1       24.387 -27.736   5.074  0.00  0.00    +0.026 C 
ATOM     21  C   LIG    1       24.082 -26.363   5.673  0.00  0.00    +0.035 C 
BRANCH  19  22
ATOM     22  N   LIG    1       25.867 -29.691   5.197  0.00  0.00    -0.323 NA
ATOM     23  H   LIG    1       26.708 -29.869   4.656  0.00  0.00    +0.119 HD
ATOM     24  H   LIG    1       25.072 -29.946   4.593  0.00  0.00    +0.119 HD
ENDBRANCH  19  22
BRANCH  16  25
ATOM     25  C   LIG    1       25.201 -24.117   6.203  0.00  0.00    +0.079 C 
ATOM     26  C   LIG    1       23.789 -23.768   6.681  0.00  0.00    +0.026 C 
BRANCH  25  28
ATOM     27  C   LIG    1       25.659 -22.341   7.829  0.00  0.00    +0.101 C 
ATOM     28  N   LIG    1       26.155 -23.548   7.180  0.00  0.00    -0.314 NA
ATOM     29  H   LIG    1       27.019 -23.326   6.679  0.00  0.00    +0.122 HD
ENDBRANCH  25  28
ENDBRANCH  16  25
ENDBRANCH  15  18
ENDBRANCH   1  15
BRANCH   3  30
ATOM     30  O   LIG    1       24.211 -29.995  11.642  0.00  0.00    -0.341 OA
BRANCH  30  31
ATOM     31  C   LIG    1       23.752 -30.684  12.791  0.00  0.00    +0.281 C 
ATOM     32  C   LIG    1       23.056 -29.825  13.890  0.00  0.00    +0.190 C 
ATOM     33  C   LIG    1       21.584 -29.408  13.539  0.00  0.00    +0.121 C 
ATOM     34  C   LIG    1       20.799 -30.641  12.977  0.00  0.00    +0.104 C 
ATOM     35  C   LIG    1       20.445 -31.633  14.098  0.00  0.00    +0.045 C 
ATOM     36  C   LIG    1       21.643 -31.332  11.894  0.00  0.00    +0.199 C 
ATOM     37  O   LIG    1       22.894 -31.774  12.412  0.00  0.00    -0.346 OA
BRANCH  33  38
ATOM     38  N   LIG    1       21.617 -28.193  12.659  0.00  0.00    -0.311 NA
ATOM     39  H   LIG    1       22.075 -28.472  11.790  0.00  0.00    +0.122 HD
ATOM     40  C   LIG    1       22.424 -27.098  13.202  0.00  0.00    +0.101 C 
ENDBRANCH  33  38
BRANCH  32  41
ATOM     41  O   LIG    1       23.079 -30.520  15.153  0.00  0.00    -0.385 OA
ATOM     42  H   LIG    1       22.698 -29.922  15.827  0.00  0.00    +0.210 HD
ENDBRANCH  32  41
BRANCH  34  43
ATOM     43  O   LIG    1       19.524 -30.270  12.430  0.00  0.00    -0.385 OA
ATOM     44  H   LIG    1       19.105 -31.080  12.103  0.00  0.00    +0.210 HD
ENDBRANCH  34  43
ENDBRANCH  30  31
ENDBRANCH   3  30
TORSDOF 13
ENDMDL
MODEL 5
REMARK VINA RESULT:      -5.9      2.406      3.756
REMARK  Name = *****
REMARK                            x       y       z     vdW  Elec       q    Type
REMARK                         _______ _______ _______ _____ _____    ______ ____
ROOT
ATOM      1  C   LIG    1       24.721 -30.182   8.325  0.00  0.00    +0.169 C 
ATOM      2  C   LIG    1       26.083 -30.567   8.972  0.00  0.00    +0.175 C 
ATOM      3  C   LIG    1       25.950 -31.556  10.159  0.00  0.00    +0.169 C 
ATOM      4  C   LIG    1       24.821 -32.573   9.790  0.00  0.00    +0.084 C 
ATOM      5  C   LIG    1       23.431 -31.925   9.681  0.00  0.00    +0.042 C 
ATOM      6  C   LIG    1       23.470 -30.461   9.184  0.00  0.00    +0.084 C 
ENDROOT
BRANCH   4   7
ATOM      7  N   LIG    1       24.816 -33.822  10.565  0.00  0.00    -0.325 NA
ATOM      8  H   LIG    1       24.851 -33.611  11.565  0.00  0.00    +0.118 HD
ATOM      9  H   LIG    1       25.642 -34.389  10.392  0.00  0.00    +0.118 HD
ENDBRANCH   4   7
BRANCH   6  10
ATOM     10  N   LIG    1       23.354 -29.520  10.297  0.00  0.00    -0.325 NA
ATOM     11  H   LIG    1       23.005 -28.624   9.956  0.00  0.00    +0.118 HD
ATOM     12  H   LIG    1       24.297 -29.333  10.650  0.00  0.00    +0.118 HD
ENDBRANCH   6  10
BRANCH   2  13
ATOM     13  O   LIG    1       26.868 -31.196   7.918  0.00  0.00    -0.387 OA
ATOM     14  H   LIG    1       27.723 -30.775   7.860  0.00  0.00    +0.210 HD
ENDBRANCH   2  13
BRANCH   1  15
ATOM     15  O   LIG    1       24.663 -28.826   7.826  0.00  0.00    -0.342 OA
BRANCH  15  18
ATOM     16  C   LIG    1       25.345 -26.268   5.860  0.00  0.00    +0.138 C 
ATOM     17  O   LIG    1       25.818 -26.922   7.056  0.00  0.00    -0.345 OA
ATOM     18  C   LIG    1       25.773 -28.383   7.023  0.00  0.00    +0.268 C 
ATOM     19  C   LIG    1       25.705 -28.901   5.540  0.00  0.00    +0.107 C 
ATOM     20  C   LIG    1       24.437 -28.351   4.855  0.00  0.00    +0.026 C 
ATOM     21  C   LIG    1       24.077 -26.956   5.368  0.00  0.00    +0.035 C 
BRANCH  19  22
ATOM     22  N   LIG    1       25.812 -30.343   5.266  0.00  0.00    -0.323 NA
ATOM     23  H   LIG    1       25.088 -30.628   4.615  0.00  0.00    +0.119 HD
ATOM     24  H   LIG    1       25.636 -30.855   6.143  0.00  0.00    +0.119 HD
ENDBRANCH  19  22
BRANCH  16  25
ATOM     25  C   LIG    1       25.158 -24.731   6.042  0.00  0.00    +0.079 C 
ATOM     26  C   LIG    1       23.773 -24.360   6.579  0.00  0.00    +0.026 C 
BRANCH  25  28
ATOM     27  C   LIG    1       25.629 -23.004   7.717  0.00  0.00    +0.101 C 
ATOM     28  N   LIG    1       26.161 -24.114   6.936  0.00  0.00    -0.314 NA
ATOM     29  H   LIG    1       26.930 -23.772   6.354  0.00  0.00    +0.122 HD
ENDBRANCH  25  28
ENDBRANCH  16  25
ENDBRANCH  15  18
ENDBRANCH   1  15
BRANCH   3  30
ATOM     30  O   LIG    1       25.785 -30.781  11.351  0.00  0.00    -0.341 OA
BRANCH  30  31
ATOM     31  C   LIG    1       26.776 -29.827  11.684  0.00  0.00    +0.281 C 
ATOM     32  C   LIG    1       26.319 -28.339  11.755  0.00  0.00    +0.190 C 
ATOM     33  C   LIG    1       25.519 -27.977  13.056  0.00  0.00    +0.121 C 
ATOM     34  C   LIG    1       26.242 -28.574  14.311  0.00  0.00    +0.104 C 
ATOM     35  C   LIG    1       27.514 -27.779  14.651  0.00  0.00    +0.045 C 
ATOM     36  C   LIG    1       26.585 -30.050  14.047  0.00  0.00    +0.199 C 
ATOM     37  O   LIG    1       27.432 -30.192  12.910  0.00  0.00    -0.346 OA
BRANCH  33  38
ATOM     38  N   LIG    1       24.084 -28.373  12.874  0.00  0.00    -0.311 NA
ATOM     39  H   LIG    1       23.952 -28.551  11.877  0.00  0.00    +0.122 HD
ATOM     40  C   LIG    1       23.135 -27.312  13.219  0.00  0.00    +0.101 C 
ENDBRANCH  33  38
BRANCH  32  41
ATOM     41  O   LIG    1       27.456 -27.462  11.620  0.00  0.00    -0.385 OA
ATOM     42  H   LIG    1       28.147 -27.776  12.238  0.00  0.00    +0.210 HD
ENDBRANCH  32  41
BRANCH  34  43
ATOM     43  O   LIG    1       25.443 -28.470  15.499  0.00  0.00    -0.385 OA
ATOM     44  H   LIG    1       25.076 -27.573  15.519  0.00  0.00    +0.210 HD
ENDBRANCH  34  43
ENDBRANCH  30  31
ENDBRANCH   3  30
TORSDOF 13
ENDMDL
MODEL 6
REMARK VINA RESULT:      -5.8      4.040      7.167
REMARK  Name = *****
REMARK                            x       y       z     vdW  Elec       q    Type
REMARK                         _______ _______ _______ _____ _____    ______ ____
ROOT
ATOM      1  C   LIG    1       20.925 -30.459  12.945  0.00  0.00    +0.169 C 
ATOM      2  C   LIG    1       20.653 -30.289  11.423  0.00  0.00    +0.175 C 
ATOM      3  C   LIG    1       21.462 -31.268  10.534  0.00  0.00    +0.169 C 
ATOM      4  C   LIG    1       21.511 -32.640  11.282  0.00  0.00    +0.084 C 
ATOM      5  C   LIG    1       22.301 -32.585  12.600  0.00  0.00    +0.042 C 
ATOM      6  C   LIG    1       22.217 -31.217  13.314  0.00  0.00    +0.084 C 
ENDROOT
BRANCH   4   7
ATOM      7  N   LIG    1       21.856 -33.802  10.450  0.00  0.00    -0.325 NA
ATOM      8  H   LIG    1       22.189 -34.567  11.041  0.00  0.00    +0.118 HD
ATOM      9  H   LIG    1       22.629 -33.611   9.817  0.00  0.00    +0.118 HD
ENDBRANCH   4   7
BRANCH   6  10
ATOM     10  N   LIG    1       23.411 -30.411  13.058  0.00  0.00    -0.325 NA
ATOM     11  H   LIG    1       23.347 -29.529  13.566  0.00  0.00    +0.118 HD
ATOM     12  H   LIG    1       23.414 -30.160  12.066  0.00  0.00    +0.118 HD
ENDBRANCH   6  10
BRANCH   2  13
ATOM     13  O   LIG    1       19.231 -30.546  11.235  0.00  0.00    -0.387 OA
ATOM     14  H   LIG    1       18.945 -30.173  10.404  0.00  0.00    +0.210 HD
ENDBRANCH   2  13
BRANCH   1  15
ATOM     15  O   LIG    1       20.865 -29.226  13.700  0.00  0.00    -0.342 OA
BRANCH  15  18
ATOM     16  C   LIG    1       22.762 -26.531  13.588  0.00  0.00    +0.138 C 
ATOM     17  O   LIG    1       22.308 -27.619  12.757  0.00  0.00    -0.345 OA
ATOM     18  C   LIG    1       20.909 -28.000  12.944  0.00  0.00    +0.268 C 
ATOM     19  C   LIG    1       20.102 -26.832  13.619  0.00  0.00    +0.107 C 
ATOM     20  C   LIG    1       20.714 -26.506  14.997  0.00  0.00    +0.026 C 
ATOM     21  C   LIG    1       22.230 -26.713  15.005  0.00  0.00    +0.035 C 
BRANCH  19  22
ATOM     22  N   LIG    1       18.640 -26.940  13.757  0.00  0.00    -0.323 NA
ATOM     23  H   LIG    1       18.319 -27.818  13.364  0.00  0.00    +0.119 HD
ATOM     24  H   LIG    1       18.204 -26.192  13.197  0.00  0.00    +0.119 HD
ENDBRANCH  19  22
BRANCH  16  25
ATOM     25  C   LIG    1       24.309 -26.342  13.551  0.00  0.00    +0.079 C 
ATOM     26  C   LIG    1       24.855 -25.668  14.811  0.00  0.00    +0.026 C 
BRANCH  25  28
ATOM     27  C   LIG    1       25.890 -27.954  14.505  0.00  0.00    +0.101 C 
ATOM     28  N   LIG    1       25.055 -27.605  13.363  0.00  0.00    -0.314 NA
ATOM     29  H   LIG    1       25.649 -27.497  12.537  0.00  0.00    +0.122 HD
ENDBRANCH  25  28
ENDBRANCH  16  25
ENDBRANCH  15  18
ENDBRANCH   1  15
BRANCH   3  30
ATOM     30  O   LIG    1       22.708 -30.636  10.219  0.00  0.00    -0.341 OA
BRANCH  30  31
ATOM     31  C   LIG    1       23.285 -30.871   8.947  0.00  0.00    +0.281 C 
ATOM     32  C   LIG    1       24.304 -29.809   8.435  0.00  0.00    +0.190 C 
ATOM     33  C   LIG    1       25.719 -29.905   9.107  0.00  0.00    +0.121 C 
ATOM     34  C   LIG    1       26.190 -31.399   9.152  0.00  0.00    +0.104 C 
ATOM     35  C   LIG    1       26.615 -31.889   7.758  0.00  0.00    +0.045 C 
ATOM     36  C   LIG    1       25.053 -32.273   9.706  0.00  0.00    +0.199 C 
ATOM     37  O   LIG    1       23.882 -32.178   8.901  0.00  0.00    -0.346 OA
BRANCH  33  38
ATOM     38  N   LIG    1       25.686 -29.187  10.424  0.00  0.00    -0.311 NA
ATOM     39  H   LIG    1       24.809 -28.664  10.451  0.00  0.00    +0.122 HD
ATOM     40  C   LIG    1       26.750 -28.192  10.576  0.00  0.00    +0.101 C 
ENDBRANCH  33  38
BRANCH  32  41
ATOM     41  O   LIG    1       24.436 -29.897   7.002  0.00  0.00    -0.385 OA
ATOM     42  H   LIG    1       23.644 -29.483   6.605  0.00  0.00    +0.210 HD
ENDBRANCH  32  41
BRANCH  34  43
ATOM     43  O   LIG    1       27.368 -31.573   9.953  0.00  0.00    -0.385 OA
ATOM     44  H   LIG    1       28.077 -31.866   9.361  0.00  0.00    +0.210 HD
ENDBRANCH  34  43
ENDBRANCH  30  31
ENDBRANCH   3  30
TORSDOF 13
ENDMDL
MODEL 7
REMARK VINA RESULT:      -5.7      4.114      7.426
REMARK  Name = *****
REMARK                            x       y       z     vdW  Elec       q    Type
REMARK                         _______ _______ _______ _____ _____    ______ ____
ROOT
ATOM      1  C   LIG    1       23.598 -30.454  13.765  0.00  0.00    +0.169 C 
ATOM      2  C   LIG    1       23.314 -31.654  12.815  0.00  0.00    +0.175 C 
ATOM      3  C   LIG    1       24.582 -32.465  12.442  0.00  0.00    +0.169 C 
ATOM      4  C   LIG    1       25.480 -32.534  13.722  0.00  0.00    +0.084 C 
ATOM      5  C   LIG    1       26.022 -31.163  14.158  0.00  0.00    +0.042 C 
ATOM      6  C   LIG    1       25.067 -29.991  13.838  0.00  0.00    +0.084 C 
ENDROOT
BRANCH   4   7
ATOM      7  N   LIG    1       26.506 -33.587  13.718  0.00  0.00    -0.325 NA
ATOM      8  H   LIG    1       26.062 -34.505  13.791  0.00  0.00    +0.118 HD
ATOM      9  H   LIG    1       27.121 -33.532  14.525  0.00  0.00    +0.118 HD
ENDBRANCH   4   7
BRANCH   6  10
ATOM     10  N   LIG    1       25.477 -29.291  12.620  0.00  0.00    -0.325 NA
ATOM     11  H   LIG    1       25.435 -28.283  12.772  0.00  0.00    +0.118 HD
ATOM     12  H   LIG    1       24.783 -29.490  11.895  0.00  0.00    +0.118 HD
ENDBRANCH   6  10
BRANCH   2  13
ATOM     13  O   LIG    1       22.389 -32.525  13.528  0.00  0.00    -0.387 OA
ATOM     14  H   LIG    1       22.085 -32.089  14.321  0.00  0.00    +0.210 HD
ENDBRANCH   2  13
BRANCH   1  15
ATOM     15  O   LIG    1       22.747 -29.306  13.540  0.00  0.00    -0.342 OA
BRANCH  15  18
ATOM     16  C   LIG    1       20.365 -27.254  14.534  0.00  0.00    +0.138 C 
ATOM     17  O   LIG    1       21.063 -28.447  14.947  0.00  0.00    -0.345 OA
ATOM     18  C   LIG    1       22.499 -28.451  14.673  0.00  0.00    +0.268 C 
ATOM     19  C   LIG    1       23.028 -26.985  14.464  0.00  0.00    +0.107 C 
ATOM     20  C   LIG    1       22.298 -26.335  13.271  0.00  0.00    +0.026 C 
ATOM     21  C   LIG    1       20.854 -26.826  13.155  0.00  0.00    +0.035 C 
BRANCH  19  22
ATOM     22  N   LIG    1       24.474 -26.744  14.333  0.00  0.00    -0.323 NA
ATOM     23  H   LIG    1       24.932 -26.888  15.226  0.00  0.00    +0.119 HD
ATOM     24  H   LIG    1       24.618 -25.754  14.085  0.00  0.00    +0.119 HD
ENDBRANCH  19  22
BRANCH  16  25
ATOM     25  C   LIG    1       18.815 -27.404  14.598  0.00  0.00    +0.079 C 
ATOM     26  C   LIG    1       18.077 -26.191  14.026  0.00  0.00    +0.026 C 
BRANCH  25  28
ATOM     27  C   LIG    1       16.924 -28.920  14.232  0.00  0.00    +0.101 C 
ATOM     28  N   LIG    1       18.307 -28.604  13.899  0.00  0.00    -0.314 NA
ATOM     29  H   LIG    1       18.902 -29.393  14.163  0.00  0.00    +0.122 HD
ENDBRANCH  25  28
ENDBRANCH  16  25
ENDBRANCH  15  18
ENDBRANCH   1  15
BRANCH   3  30
ATOM     30  O   LIG    1       25.144 -31.873  11.267  0.00  0.00    -0.341 OA
BRANCH  30  31
ATOM     31  C   LIG    1       24.340 -31.774  10.106  0.00  0.00    +0.281 C 
ATOM     32  C   LIG    1       24.519 -30.493   9.237  0.00  0.00    +0.190 C 
ATOM     33  C   LIG    1       25.815 -30.497   8.351  0.00  0.00    +0.121 C 
ATOM     34  C   LIG    1       25.971 -31.884   7.639  0.00  0.00    +0.104 C 
ATOM     35  C   LIG    1       24.962 -32.034   6.488  0.00  0.00    +0.045 C 
ATOM     36  C   LIG    1       25.782 -33.010   8.670  0.00  0.00    +0.199 C 
ATOM     37  O   LIG    1       24.499 -32.943   9.284  0.00  0.00    -0.346 OA
BRANCH  33  38
ATOM     38  N   LIG    1       26.980 -30.053   9.186  0.00  0.00    -0.311 NA
ATOM     39  H   LIG    1       26.975 -30.631  10.028  0.00  0.00    +0.122 HD
ATOM     40  C   LIG    1       26.873 -28.668   9.651  0.00  0.00    +0.101 C 
ENDBRANCH  33  38
BRANCH  32  41
ATOM     41  O   LIG    1       23.360 -30.289   8.405  0.00  0.00    -0.385 OA
ATOM     42  H   LIG    1       23.145 -29.334   8.425  0.00  0.00    +0.210 HD
ENDBRANCH  32  41
BRANCH  34  43
ATOM     43  O   LIG    1       27.248 -32.025   6.998  0.00  0.00    -0.385 OA
ATOM     44  H   LIG    1       27.488 -31.156   6.645  0.00  0.00    +0.210 HD
ENDBRANCH  34  43
ENDBRANCH  30  31
ENDBRANCH   3  30
TORSDOF 13
ENDMDL
MODEL 8
REMARK VINA RESULT:      -5.6      2.696      6.978
REMARK  Name = *****
REMARK                            x       y       z     vdW  Elec       q    Type
REMARK                         _______ _______ _______ _____ _____    ______ ____
ROOT
ATOM      1  C   LIG    1       24.850 -31.179   9.951  0.00  0.00    +0.169 C 
ATOM      2  C   LIG    1       23.794 -30.351   9.162  0.00  0.00    +0.175 C 
ATOM      3  C   LIG    1       23.634 -30.794   7.685  0.00  0.00    +0.169 C 
ATOM      4  C   LIG    1       23.746 -32.354   7.655  0.00  0.00    +0.084 C 
ATOM      5  C   LIG    1       25.137 -32.871   8.056  0.00  0.00    +0.042 C 
ATOM      6  C   LIG    1       25.854 -31.976   9.093  0.00  0.00    +0.084 C 
ENDROOT
BRANCH   4   7
ATOM      7  N   LIG    1       23.215 -33.003   6.447  0.00  0.00    -0.325 NA
ATOM      8  H   LIG    1       22.686 -33.839   6.705  0.00  0.00    +0.118 HD
ATOM      9  H   LIG    1       23.951 -33.343   5.834  0.00  0.00    +0.118 HD
ENDBRANCH   4   7
BRANCH   6  10
ATOM     10  N   LIG    1       26.833 -31.100   8.450  0.00  0.00    -0.325 NA
ATOM     11  H   LIG    1       27.438 -30.681   9.156  0.00  0.00    +0.118 HD
ATOM     12  H   LIG    1       26.324 -30.319   8.024  0.00  0.00    +0.118 HD
ENDBRANCH   6  10
BRANCH   2  13
ATOM     13  O   LIG    1       22.527 -30.546   9.853  0.00  0.00    -0.387 OA
ATOM     14  H   LIG    1       22.675 -30.564  10.797  0.00  0.00    +0.210 HD
ENDBRANCH   2  13
BRANCH   1  15
ATOM     15  O   LIG    1       25.572 -30.422  10.950  0.00  0.00    -0.342 OA
BRANCH  15  18
ATOM     16  C   LIG    1       23.726 -29.040  13.307  0.00  0.00    +0.138 C 
ATOM     17  O   LIG    1       23.870 -30.273  12.572  0.00  0.00    -0.345 OA
ATOM     18  C   LIG    1       25.249 -30.692  12.327  0.00  0.00    +0.268 C 
ATOM     19  C   LIG    1       26.228 -29.991  13.338  0.00  0.00    +0.107 C 
ATOM     20  C   LIG    1       26.140 -28.460  13.171  0.00  0.00    +0.026 C 
ATOM     21  C   LIG    1       24.728 -28.015  12.786  0.00  0.00    +0.035 C 
BRANCH  19  22
ATOM     22  N   LIG    1       27.645 -30.389  13.374  0.00  0.00    -0.323 NA
ATOM     23  H   LIG    1       27.767 -31.179  13.999  0.00  0.00    +0.119 HD
ATOM     24  H   LIG    1       28.192 -29.612  13.772  0.00  0.00    +0.119 HD
ENDBRANCH  19  22
BRANCH  16  25
ATOM     25  C   LIG    1       22.264 -28.499  13.308  0.00  0.00    +0.079 C 
ATOM     26  C   LIG    1       22.194 -26.976  13.166  0.00  0.00    +0.026 C 
BRANCH  25  28
ATOM     27  C   LIG    1       20.351 -29.933  12.766  0.00  0.00    +0.101 C 
ATOM     28  N   LIG    1       21.416 -29.084  12.247  0.00  0.00    -0.314 NA
ATOM     29  H   LIG    1       22.019 -29.642  11.638  0.00  0.00    +0.122 HD
ENDBRANCH  25  28
ENDBRANCH  16  25
ENDBRANCH  15  18
ENDBRANCH   1  15
BRANCH   3  30
ATOM     30  O   LIG    1       24.572 -30.045   6.905  0.00  0.00    -0.341 OA
BRANCH  30  31
ATOM     31  C   LIG    1       24.126 -28.870   6.252  0.00  0.00    +0.281 C 
ATOM     32  C   LIG    1       24.533 -27.512   6.902  0.00  0.00    +0.190 C 
ATOM     33  C   LIG    1       26.025 -27.102   6.644  0.00  0.00    +0.121 C 
ATOM     34  C   LIG    1       26.388 -27.322   5.135  0.00  0.00    +0.104 C 
ATOM     35  C   LIG    1       25.745 -26.243   4.247  0.00  0.00    +0.045 C 
ATOM     36  C   LIG    1       25.926 -28.722   4.700  0.00  0.00    +0.199 C 
ATOM     37  O   LIG    1       24.521 -28.884   4.870  0.00  0.00    -0.346 OA
BRANCH  33  38
ATOM     38  N   LIG    1       26.904 -27.801   7.639  0.00  0.00    -0.311 NA
ATOM     39  H   LIG    1       26.932 -28.785   7.366  0.00  0.00    +0.122 HD
ATOM     40  C   LIG    1       26.374 -27.780   9.005  0.00  0.00    +0.101 C 
ENDBRANCH  33  38
BRANCH  32  41
ATOM     41  O   LIG    1       23.653 -26.463   6.452  0.00  0.00    -0.385 OA
ATOM     42  H   LIG    1       22.740 -26.716   6.696  0.00  0.00    +0.210 HD
ENDBRANCH  32  41
BRANCH  34  43
ATOM     43  O   LIG    1       27.795 -27.179   4.888  0.00  0.00    -0.385 OA
ATOM     44  H   LIG    1       28.001 -27.696   4.096  0.00  0.00    +0.210 HD
ENDBRANCH  34  43
ENDBRANCH  30  31
ENDBRANCH   3  30
TORSDOF 13
ENDMDL
MODEL 9
REMARK VINA RESULT:      -5.5      5.420      9.583
REMARK  Name = *****
REMARK                            x       y       z     vdW  Elec       q    Type
REMARK                         _______ _______ _______ _____ _____    ______ ____
ROOT
ATOM      1  C   LIG    1       27.486 -19.969   7.228  0.00  0.00    +0.169 C 
ATOM      2  C   LIG    1       27.029 -20.668   5.915  0.00  0.00    +0.175 C 
ATOM      3  C   LIG    1       25.748 -21.527   6.082  0.00  0.00    +0.169 C 
ATOM      4  C   LIG    1       24.799 -20.757   7.059  0.00  0.00    +0.084 C 
ATOM      5  C   LIG    1       25.362 -20.638   8.484  0.00  0.00    +0.042 C 
ATOM      6  C   LIG    1       26.905 -20.550   8.534  0.00  0.00    +0.084 C 
ENDROOT
BRANCH   4   7
ATOM      7  N   LIG    1       23.389 -21.172   7.027  0.00  0.00    -0.325 NA
ATOM      8  H   LIG    1       23.262 -22.015   7.591  0.00  0.00    +0.118 HD
ATOM      9  H   LIG    1       23.083 -21.436   6.095  0.00  0.00    +0.118 HD
ENDBRANCH   4   7
BRANCH   6  10
ATOM     10  N   LIG    1       27.500 -21.845   8.863  0.00  0.00    -0.325 NA
ATOM     11  H   LIG    1       26.805 -22.583   8.748  0.00  0.00    +0.118 HD
ATOM     12  H   LIG    1       27.733 -21.839   9.860  0.00  0.00    +0.118 HD
ENDBRANCH   6  10
BRANCH   2  13
ATOM     13  O   LIG    1       26.761 -19.601   4.960  0.00  0.00    -0.387 OA
ATOM     14  H   LIG    1       26.890 -19.926   4.072  0.00  0.00    +0.210 HD
ENDBRANCH   2  13
BRANCH   1  15
ATOM     15  O   LIG    1       28.921 -19.839   7.362  0.00  0.00    -0.342 OA
BRANCH  15  18
ATOM     16  C   LIG    1       30.999 -18.140   9.277  0.00  0.00    +0.138 C 
ATOM     17  O   LIG    1       29.637 -18.615   9.243  0.00  0.00    -0.345 OA
ATOM     18  C   LIG    1       29.462 -19.957   8.691  0.00  0.00    +0.268 C 
ATOM     19  C   LIG    1       30.816 -20.756   8.736  0.00  0.00    +0.107 C 
ATOM     20  C   LIG    1       31.884 -20.015   7.905  0.00  0.00    +0.026 C 
ATOM     21  C   LIG    1       31.698 -18.498   7.970  0.00  0.00    +0.035 C 
BRANCH  19  22
ATOM     22  N   LIG    1       30.832 -22.183   8.377  0.00  0.00    -0.323 NA
ATOM     23  H   LIG    1       29.884 -22.515   8.235  0.00  0.00    +0.119 HD
ATOM     24  H   LIG    1       31.213 -22.715   9.173  0.00  0.00    +0.119 HD
ENDBRANCH  19  22
BRANCH  16  25
ATOM     25  C   LIG    1       31.105 -16.622   9.615  0.00  0.00    +0.079 C 
ATOM     26  C   LIG    1       31.099 -16.347  11.121  0.00  0.00    +0.026 C 
BRANCH  25  28
ATOM     27  C   LIG    1       33.021 -15.145  10.013  0.00  0.00    +0.101 C 
ATOM     28  N   LIG    1       32.307 -15.972   9.049  0.00  0.00    -0.314 NA
ATOM     29  H   LIG    1       32.005 -15.386   8.267  0.00  0.00    +0.122 HD
ENDBRANCH  25  28
ENDBRANCH  16  25
ENDBRANCH  15  18
ENDBRANCH   1  15
BRANCH   3  30
ATOM     30  O   LIG    1       26.158 -22.847   6.454  0.00  0.00    -0.341 OA
BRANCH  30  31
ATOM     31  C   LIG    1       25.192 -23.730   6.993  0.00  0.00    +0.281 C 
ATOM     32  C   LIG    1       23.970 -24.069   6.088  0.00  0.00    +0.190 C 
ATOM     33  C   LIG    1       24.286 -25.097   4.945  0.00  0.00    +0.121 C 
ATOM     34  C   LIG    1       25.118 -26.295   5.519  0.00  0.00    +0.104 C 
ATOM     35  C   LIG    1       24.237 -27.228   6.365  0.00  0.00    +0.045 C 
ATOM     36  C   LIG    1       26.285 -25.748   6.358  0.00  0.00    +0.199 C 
ATOM     37  O   LIG    1       25.818 -24.946   7.438  0.00  0.00    -0.346 OA
BRANCH  33  38
ATOM     38  N   LIG    1       24.899 -24.367   3.786  0.00  0.00    -0.311 NA
ATOM     39  H   LIG    1       25.869 -24.174   4.040  0.00  0.00    +0.122 HD
ATOM     40  C   LIG    1       24.287 -23.061   3.527  0.00  0.00    +0.101 C 
ENDBRANCH  33  38
BRANCH  32  41
ATOM     41  O   LIG    1       22.875 -24.553   6.891  0.00  0.00    -0.385 OA
ATOM     42  H   LIG    1       22.264 -25.037   6.299  0.00  0.00    +0.210 HD
ENDBRANCH  32  41
BRANCH  34  43
ATOM     43  O   LIG    1       25.627 -27.148   4.482  0.00  0.00    -0.385 OA
ATOM     44  H   LIG    1       24.865 -27.485   3.988  0.00  0.00    +0.210 HD
ENDBRANCH  34  43
ENDBRANCH  30  31
ENDBRANCH   3  30
TORSDOF 13
ENDMDL
