MODEL 1
REMARK VINA RESULT:      -8.0      0.000      0.000
REMARK  Name = *****
REMARK                            x       y       z     vdW  Elec       q    Type
REMARK                         _______ _______ _______ _____ _____    ______ ____
ROOT
ATOM      1  N   LIG    1       30.475 -18.571   8.717  0.00  0.00    -0.234 N 
ATOM      2  C   LIG    1       31.581 -19.231   9.232  0.00  0.00    +0.408 C 
ATOM      3  O   LIG    1       31.989 -20.353   8.990  0.00  0.00    -0.226 OA
ATOM      4  O   LIG    1       32.246 -18.414  10.112  0.00  0.00    -0.443 OA
ATOM      5  C   LIG    1       31.478 -17.221  10.318  0.00  0.00    +0.221 C 
ATOM      6  C   LIG    1       30.414 -17.241   9.245  0.00  0.00    +0.164 C 
ENDROOT
BRANCH   1  10
ATOM      7  C   LIG    1       26.595 -21.421   7.470  0.00  0.00    +0.044 C 
ATOM      8  C   LIG    1       27.660 -20.440   7.077  0.00  0.00    -0.049 A 
ATOM      9  C   LIG    1       28.570 -19.966   8.039  0.00  0.00    +0.027 A 
ATOM     10  C   LIG    1       29.579 -19.040   7.716  0.00  0.00    +0.040 A 
ATOM     11  C   LIG    1       29.649 -18.600   6.389  0.00  0.00    +0.024 A 
ATOM     12  C   LIG    1       28.742 -19.055   5.426  0.00  0.00    +0.002 A 
ATOM     13  C   LIG    1       27.750 -19.969   5.767  0.00  0.00    +0.003 A 
ENDBRANCH   1  10
BRANCH   5  14
ATOM     14  C   LIG    1       32.396 -16.007  10.206  0.00  0.00    +0.202 C 
BRANCH  14  15
ATOM     15  O   LIG    1       32.765 -15.785   8.848  0.00  0.00    -0.391 OA
ATOM     16  H   LIG    1       31.995 -15.373   8.411  0.00  0.00    +0.210 HD
ENDBRANCH  14  15
ENDBRANCH   5  14
TORSDOF 3
ENDMDL
MODEL 2
REMARK VINA RESULT:      -7.6      2.378      3.797
REMARK  Name = *****
REMARK                            x       y       z     vdW  Elec       q    Type
REMARK                         _______ _______ _______ _____ _____    ______ ____
ROOT
ATOM      1  N   LIG    1       28.682 -19.764   6.809  0.00  0.00    -0.234 N 
ATOM      2  C   LIG    1       29.277 -18.839   5.963  0.00  0.00    +0.408 C 
ATOM      3  O   LIG    1       28.788 -18.215   5.038  0.00  0.00    -0.226 OA
ATOM      4  O   LIG    1       30.592 -18.663   6.315  0.00  0.00    -0.443 OA
ATOM      5  C   LIG    1       30.939 -19.614   7.330  0.00  0.00    +0.221 C 
ATOM      6  C   LIG    1       29.626 -20.202   7.792  0.00  0.00    +0.164 C 
ENDROOT
BRANCH   1  10
ATOM      7  C   LIG    1       24.517 -20.831   4.309  0.00  0.00    +0.044 C 
ATOM      8  C   LIG    1       25.244 -20.694   5.614  0.00  0.00    -0.049 A 
ATOM      9  C   LIG    1       26.592 -20.293   5.629  0.00  0.00    +0.027 A 
ATOM     10  C   LIG    1       27.315 -20.159   6.830  0.00  0.00    +0.040 A 
ATOM     11  C   LIG    1       26.639 -20.440   8.022  0.00  0.00    +0.024 A 
ATOM     12  C   LIG    1       25.302 -20.852   8.020  0.00  0.00    +0.002 A 
ATOM     13  C   LIG    1       24.607 -20.981   6.821  0.00  0.00    +0.003 A 
ENDBRANCH   1  10
BRANCH   5  14
ATOM     14  C   LIG    1       31.687 -18.902   8.453  0.00  0.00    +0.202 C 
BRANCH  14  15
ATOM     15  O   LIG    1       32.186 -19.847   9.396  0.00  0.00    -0.391 OA
ATOM     16  H   LIG    1       31.441 -20.435   9.625  0.00  0.00    +0.210 HD
ENDBRANCH  14  15
ENDBRANCH   5  14
TORSDOF 3
ENDMDL
MODEL 3
REMARK VINA RESULT:      -7.6      3.560      5.757
REMARK  Name = *****
REMARK                            x       y       z     vdW  Elec       q    Type
REMARK                         _______ _______ _______ _____ _____    ______ ____
ROOT
ATOM      1  N   LIG    1       26.297 -21.357   7.351  0.00  0.00    -0.234 N 
ATOM      2  C   LIG    1       26.514 -20.656   8.528  0.00  0.00    +0.408 C 
ATOM      3  O   LIG    1       25.861 -20.658   9.557  0.00  0.00    -0.226 OA
ATOM      4  O   LIG    1       27.655 -19.900   8.419  0.00  0.00    -0.443 OA
ATOM      5  C   LIG    1       28.138 -19.970   7.071  0.00  0.00    +0.221 C 
ATOM      6  C   LIG    1       27.355 -21.089   6.425  0.00  0.00    +0.164 C 
ENDROOT
BRANCH   1  10
ATOM      7  C   LIG    1       25.006 -26.063   6.389  0.00  0.00    +0.044 C 
ATOM      8  C   LIG    1       24.612 -24.633   6.619  0.00  0.00    -0.049 A 
ATOM      9  C   LIG    1       25.600 -23.662   6.864  0.00  0.00    +0.027 A 
ATOM     10  C   LIG    1       25.275 -22.312   7.092  0.00  0.00    +0.040 A 
ATOM     11  C   LIG    1       23.919 -21.963   7.067  0.00  0.00    +0.024 A 
ATOM     12  C   LIG    1       22.927 -22.922   6.836  0.00  0.00    +0.002 A 
ATOM     13  C   LIG    1       23.270 -24.252   6.615  0.00  0.00    +0.003 A 
ENDBRANCH   1  10
BRANCH   5  14
ATOM     14  C   LIG    1       29.639 -20.242   7.089  0.00  0.00    +0.202 C 
BRANCH  14  15
ATOM     15  O   LIG    1       29.923 -21.417   7.844  0.00  0.00    -0.391 OA
ATOM     16  H   LIG    1       29.119 -21.622   8.357  0.00  0.00    +0.210 HD
ENDBRANCH  14  15
ENDBRANCH   5  14
TORSDOF 3
ENDMDL
MODEL 4
REMARK VINA RESULT:      -7.2      2.245      3.597
REMARK  Name = *****
REMARK                            x       y       z     vdW  Elec       q    Type
REMARK                         _______ _______ _______ _____ _____    ______ ____
ROOT
ATOM      1  N   LIG    1       28.769 -19.785   6.520  0.00  0.00    -0.234 N 
ATOM      2  C   LIG    1       29.548 -18.710   6.120  0.00  0.00    +0.408 C 
ATOM      3  O   LIG    1       29.278 -17.810   5.343  0.00  0.00    -0.226 OA
ATOM      4  O   LIG    1       30.762 -18.748   6.760  0.00  0.00    -0.443 OA
ATOM      5  C   LIG    1       30.867 -19.974   7.495  0.00  0.00    +0.221 C 
ATOM      6  C   LIG    1       29.475 -20.560   7.496  0.00  0.00    +0.164 C 
ENDROOT
BRANCH   1  10
ATOM      7  C   LIG    1       24.249 -21.408   7.812  0.00  0.00    +0.044 C 
ATOM      8  C   LIG    1       25.176 -20.852   6.772  0.00  0.00    -0.049 A 
ATOM      9  C   LIG    1       26.518 -20.585   7.097  0.00  0.00    +0.027 A 
ATOM     10  C   LIG    1       27.421 -20.057   6.155  0.00  0.00    +0.040 A 
ATOM     11  C   LIG    1       26.933 -19.802   4.868  0.00  0.00    +0.024 A 
ATOM     12  C   LIG    1       25.597 -20.052   4.536  0.00  0.00    +0.002 A 
ATOM     13  C   LIG    1       24.721 -20.573   5.483  0.00  0.00    +0.003 A 
ENDBRANCH   1  10
BRANCH   5  14
ATOM     14  C   LIG    1       31.375 -19.674   8.903  0.00  0.00    +0.202 C 
BRANCH  14  15
ATOM     15  O   LIG    1       32.223 -20.724   9.360  0.00  0.00    -0.391 OA
ATOM     16  H   LIG    1       31.706 -21.241  10.006  0.00  0.00    +0.210 HD
ENDBRANCH  14  15
ENDBRANCH   5  14
TORSDOF 3
ENDMDL
MODEL 5
REMARK VINA RESULT:      -7.2      6.338      8.765
REMARK  Name = *****
REMARK                            x       y       z     vdW  Elec       q    Type
REMARK                         _______ _______ _______ _____ _____    ______ ____
ROOT
ATOM      1  N   LIG    1       25.070 -24.318   6.819  0.00  0.00    -0.234 N 
ATOM      2  C   LIG    1       23.792 -24.787   6.551  0.00  0.00    +0.408 C 
ATOM      3  O   LIG    1       22.725 -24.203   6.631  0.00  0.00    -0.226 OA
ATOM      4  O   LIG    1       23.851 -26.091   6.127  0.00  0.00    -0.443 OA
ATOM      5  C   LIG    1       25.196 -26.569   6.264  0.00  0.00    +0.221 C 
ATOM      6  C   LIG    1       26.032 -25.338   6.530  0.00  0.00    +0.164 C 
ENDROOT
BRANCH   1  10
ATOM      7  C   LIG    1       28.656 -20.960   7.592  0.00  0.00    +0.044 C 
ATOM      8  C   LIG    1       27.199 -21.320   7.582  0.00  0.00    -0.049 A 
ATOM      9  C   LIG    1       26.798 -22.620   7.227  0.00  0.00    +0.027 A 
ATOM     10  C   LIG    1       25.442 -22.998   7.197  0.00  0.00    +0.040 A 
ATOM     11  C   LIG    1       24.495 -22.026   7.537  0.00  0.00    +0.024 A 
ATOM     12  C   LIG    1       24.881 -20.725   7.881  0.00  0.00    +0.002 A 
ATOM     13  C   LIG    1       26.227 -20.372   7.902  0.00  0.00    +0.003 A 
ENDBRANCH   1  10
BRANCH   5  14
ATOM     14  C   LIG    1       25.607 -27.288   4.982  0.00  0.00    +0.202 C 
BRANCH  14  15
ATOM     15  O   LIG    1       27.021 -27.235   4.814  0.00  0.00    -0.391 OA
ATOM     16  H   LIG    1       27.382 -28.048   5.215  0.00  0.00    +0.210 HD
ENDBRANCH  14  15
ENDBRANCH   5  14
TORSDOF 3
ENDMDL
MODEL 6
REMARK VINA RESULT:      -7.1      3.711      5.703
REMARK  Name = *****
REMARK                            x       y       z     vdW  Elec       q    Type
REMARK                         _______ _______ _______ _____ _____    ______ ____
ROOT
ATOM      1  N   LIG    1       26.086 -20.549   7.114  0.00  0.00    -0.234 N 
ATOM      2  C   LIG    1       26.514 -20.490   8.432  0.00  0.00    +0.408 C 
ATOM      3  O   LIG    1       25.880 -20.674   9.456  0.00  0.00    -0.226 OA
ATOM      4  O   LIG    1       27.854 -20.195   8.476  0.00  0.00    -0.443 OA
ATOM      5  C   LIG    1       28.311 -19.889   7.152  0.00  0.00    +0.221 C 
ATOM      6  C   LIG    1       27.191 -20.318   6.234  0.00  0.00    +0.164 C 
ENDROOT
BRANCH   1  10
ATOM      7  C   LIG    1       22.043 -19.387   4.461  0.00  0.00    +0.044 C 
ATOM      8  C   LIG    1       22.784 -20.356   5.334  0.00  0.00    -0.049 A 
ATOM      9  C   LIG    1       24.059 -20.026   5.827  0.00  0.00    +0.027 A 
ATOM     10  C   LIG    1       24.792 -20.908   6.643  0.00  0.00    +0.040 A 
ATOM     11  C   LIG    1       24.204 -22.140   6.950  0.00  0.00    +0.024 A 
ATOM     12  C   LIG    1       22.941 -22.485   6.456  0.00  0.00    +0.002 A 
ATOM     13  C   LIG    1       22.234 -21.599   5.649  0.00  0.00    +0.003 A 
ENDBRANCH   1  10
BRANCH   5  14
ATOM     14  C   LIG    1       29.609 -20.644   6.882  0.00  0.00    +0.202 C 
BRANCH  14  15
ATOM     15  O   LIG    1       30.011 -21.373   8.038  0.00  0.00    -0.391 OA
ATOM     16  H   LIG    1       29.553 -20.969   8.799  0.00  0.00    +0.210 HD
ENDBRANCH  14  15
ENDBRANCH   5  14
TORSDOF 3
ENDMDL
MODEL 7
REMARK VINA RESULT:      -7.1      6.690      8.336
REMARK  Name = *****
REMARK                            x       y       z     vdW  Elec       q    Type
REMARK                         _______ _______ _______ _____ _____    ______ ____
ROOT
ATOM      1  N   LIG    1       24.776 -22.448   5.874  0.00  0.00    -0.234 N 
ATOM      2  C   LIG    1       25.252 -22.629   7.165  0.00  0.00    +0.408 C 
ATOM      3  O   LIG    1       25.352 -21.818   8.069  0.00  0.00    -0.226 OA
ATOM      4  O   LIG    1       25.615 -23.940   7.350  0.00  0.00    -0.443 OA
ATOM      5  C   LIG    1       25.531 -24.632   6.098  0.00  0.00    +0.221 C 
ATOM      6  C   LIG    1       24.787 -23.697   5.173  0.00  0.00    +0.164 C 
ENDROOT
BRANCH   1  10
ATOM      7  C   LIG    1       25.425 -18.275   3.248  0.00  0.00    +0.044 C 
ATOM      8  C   LIG    1       24.522 -19.193   4.018  0.00  0.00    -0.049 A 
ATOM      9  C   LIG    1       25.038 -20.368   4.593  0.00  0.00    +0.027 A 
ATOM     10  C   LIG    1       24.225 -21.261   5.317  0.00  0.00    +0.040 A 
ATOM     11  C   LIG    1       22.870 -20.937   5.447  0.00  0.00    +0.024 A 
ATOM     12  C   LIG    1       22.342 -19.777   4.869  0.00  0.00    +0.002 A 
ATOM     13  C   LIG    1       23.163 -18.909   4.155  0.00  0.00    +0.003 A 
ENDBRANCH   1  10
BRANCH   5  14
ATOM     14  C   LIG    1       24.798 -25.955   6.303  0.00  0.00    +0.202 C 
BRANCH  14  15
ATOM     15  O   LIG    1       23.634 -26.010   5.483  0.00  0.00    -0.391 OA
ATOM     16  H   LIG    1       23.843 -25.521   4.665  0.00  0.00    +0.210 HD
ENDBRANCH  14  15
ENDBRANCH   5  14
TORSDOF 3
ENDMDL
MODEL 8
REMARK VINA RESULT:      -7.1      4.185      6.405
REMARK  Name = *****
REMARK                            x       y       z     vdW  Elec       q    Type
REMARK                         _______ _______ _______ _____ _____    ______ ____
ROOT
ATOM      1  N   LIG    1       26.615 -20.648   7.182  0.00  0.00    -0.234 N 
ATOM      2  C   LIG    1       25.735 -20.645   8.254  0.00  0.00    +0.408 C 
ATOM      3  O   LIG    1       25.960 -20.446   9.435  0.00  0.00    -0.226 OA
ATOM      4  O   LIG    1       24.459 -20.891   7.812  0.00  0.00    -0.443 OA
ATOM      5  C   LIG    1       24.501 -21.228   6.419  0.00  0.00    +0.221 C 
ATOM      6  C   LIG    1       25.897 -20.871   5.964  0.00  0.00    +0.164 C 
ENDROOT
BRANCH   1  10
ATOM      7  C   LIG    1       31.147 -21.625   8.984  0.00  0.00    +0.044 C 
ATOM      8  C   LIG    1       30.258 -20.819   8.084  0.00  0.00    -0.049 A 
ATOM      9  C   LIG    1       28.876 -21.078   8.044  0.00  0.00    +0.027 A 
ATOM     10  C   LIG    1       28.006 -20.351   7.209  0.00  0.00    +0.040 A 
ATOM     11  C   LIG    1       28.569 -19.350   6.409  0.00  0.00    +0.024 A 
ATOM     12  C   LIG    1       29.944 -19.091   6.431  0.00  0.00    +0.002 A 
ATOM     13  C   LIG    1       30.786 -19.823   7.262  0.00  0.00    +0.003 A 
ENDBRANCH   1  10
BRANCH   5  14
ATOM     14  C   LIG    1       23.426 -20.438   5.678  0.00  0.00    +0.202 C 
BRANCH  14  15
ATOM     15  O   LIG    1       22.460 -21.320   5.114  0.00  0.00    -0.391 OA
ATOM     16  H   LIG    1       22.432 -21.132   4.157  0.00  0.00    +0.210 HD
ENDBRANCH  14  15
ENDBRANCH   5  14
TORSDOF 3
ENDMDL
MODEL 9
REMARK VINA RESULT:      -7.1      2.618      4.481
REMARK  Name = *****
REMARK                            x       y       z     vdW  Elec       q    Type
REMARK                         _______ _______ _______ _____ _____    ______ ____
ROOT
ATOM      1  N   LIG    1       27.923 -20.976   7.145  0.00  0.00    -0.234 N 
ATOM      2  C   LIG    1       28.492 -20.089   6.243  0.00  0.00    +0.408 C 
ATOM      3  O   LIG    1       27.995 -19.560   5.264  0.00  0.00    -0.226 OA
ATOM      4  O   LIG    1       29.789 -19.821   6.605  0.00  0.00    -0.443 OA
ATOM      5  C   LIG    1       30.159 -20.676   7.695  0.00  0.00    +0.221 C 
ATOM      6  C   LIG    1       28.865 -21.291   8.176  0.00  0.00    +0.164 C 
ENDROOT
BRANCH   1  10
ATOM      7  C   LIG    1       24.687 -24.717   6.633  0.00  0.00    +0.044 C 
ATOM      8  C   LIG    1       24.958 -23.271   6.925  0.00  0.00    -0.049 A 
ATOM      9  C   LIG    1       26.277 -22.782   6.895  0.00  0.00    +0.027 A 
ATOM     10  C   LIG    1       26.577 -21.435   7.170  0.00  0.00    +0.040 A 
ATOM     11  C   LIG    1       25.507 -20.587   7.478  0.00  0.00    +0.024 A 
ATOM     12  C   LIG    1       24.192 -21.063   7.523  0.00  0.00    +0.002 A 
ATOM     13  C   LIG    1       23.918 -22.400   7.250  0.00  0.00    +0.003 A 
ENDBRANCH   1  10
BRANCH   5  14
ATOM     14  C   LIG    1       30.847 -19.846   8.774  0.00  0.00    +0.202 C 
BRANCH  14  15
ATOM     15  O   LIG    1       32.065 -20.465   9.178  0.00  0.00    -0.391 OA
ATOM     16  H   LIG    1       32.301 -20.083  10.044  0.00  0.00    +0.210 HD
ENDBRANCH  14  15
ENDBRANCH   5  14
TORSDOF 3
ENDMDL
