MODEL 1
REMARK VINA RESULT:      -3.2      0.000      0.000
REMARK  Name = *****
REMARK                            x       y       z     vdW  Elec       q    Type
REMARK                         _______ _______ _______ _____ _____    ______ ____
ROOT
ATOM      1  N   LIG    1       26.012 -18.973   4.154  0.00  0.00    -0.298 N 
ATOM      2  C   LIG    1       26.221 -17.597   3.904  0.00  0.00    +0.048 A 
ATOM      3  C   LIG    1       27.459 -16.982   4.173  0.00  0.00    +0.034 A 
ATOM      4  C   LIG    1       27.651 -15.622   3.882  0.00  0.00    +0.017 A 
ATOM      5  C   LIG    1       26.610 -14.856   3.361  0.00  0.00    +0.001 A 
ATOM      6  C   LIG    1       25.369 -15.437   3.137  0.00  0.00    +0.002 A 
ATOM      7  S   LIG    1       28.852 -17.889   4.829  0.00  0.00    -0.086 S 
ATOM      8  C   LIG    1       28.038 -19.324   5.514  0.00  0.00    +0.034 A 
ATOM      9  C   LIG    1       28.742 -20.078   6.467  0.00  0.00    +0.017 A 
ATOM     10  C   LIG    1       28.156 -21.195   7.062  0.00  0.00    +0.001 A 
ATOM     11  C   LIG    1       26.865 -21.564   6.712  0.00  0.00    +0.002 A 
ATOM     12  C   LIG    1       26.170 -20.833   5.744  0.00  0.00    +0.024 A 
ATOM     13  C   LIG    1       25.176 -16.794   3.409  0.00  0.00    +0.024 A 
ATOM     14  C   LIG    1       26.750 -19.717   5.108  0.00  0.00    +0.048 A 
ENDROOT
BRANCH   1  15
ATOM     15  C   LIG    1       25.345 -19.770   3.091  0.00  0.00    +0.116 C 
BRANCH  15  19
ATOM     16  C   LIG    1       22.734 -21.572   6.308  0.00  0.00    +0.105 C 
ATOM     17  N   LIG    1       23.401 -20.647   5.403  0.00  0.00    -0.305 NA
ATOM     18  C   LIG    1       23.352 -21.109   4.015  0.00  0.00    +0.089 C 
ATOM     19  C   LIG    1       23.808 -19.878   3.238  0.00  0.00    +0.022 C 
ATOM     20  C   LIG    1       23.256 -18.710   4.074  0.00  0.00    +0.021 C 
ATOM     21  C   LIG    1       22.781 -19.325   5.388  0.00  0.00    +0.084 C 
ENDBRANCH  15  19
ENDBRANCH   1  15
TORSDOF 2
ENDMDL
MODEL 2
REMARK VINA RESULT:      -2.3      2.055      5.500
REMARK  Name = *****
REMARK                            x       y       z     vdW  Elec       q    Type
REMARK                         _______ _______ _______ _____ _____    ______ ____
ROOT
ATOM      1  N   LIG    1       25.995 -17.683   4.050  0.00  0.00    -0.298 N 
ATOM      2  C   LIG    1       27.076 -18.360   4.657  0.00  0.00    +0.048 A 
ATOM      3  C   LIG    1       27.006 -19.733   4.959  0.00  0.00    +0.034 A 
ATOM      4  C   LIG    1       28.108 -20.390   5.531  0.00  0.00    +0.017 A 
ATOM      5  C   LIG    1       29.269 -19.684   5.841  0.00  0.00    +0.001 A 
ATOM      6  C   LIG    1       29.335 -18.319   5.594  0.00  0.00    +0.002 A 
ATOM      7  S   LIG    1       25.563 -20.719   4.586  0.00  0.00    -0.086 S 
ATOM      8  C   LIG    1       24.316 -19.453   4.407  0.00  0.00    +0.034 A 
ATOM      9  C   LIG    1       22.971 -19.845   4.507  0.00  0.00    +0.017 A 
ATOM     10  C   LIG    1       21.948 -18.903   4.404  0.00  0.00    +0.001 A 
ATOM     11  C   LIG    1       22.260 -17.566   4.203  0.00  0.00    +0.002 A 
ATOM     12  C   LIG    1       23.596 -17.174   4.076  0.00  0.00    +0.024 A 
ATOM     13  C   LIG    1       28.247 -17.664   5.011  0.00  0.00    +0.024 A 
ATOM     14  C   LIG    1       24.646 -18.110   4.149  0.00  0.00    +0.048 A 
ENDROOT
BRANCH   1  15
ATOM     15  C   LIG    1       26.303 -16.784   2.906  0.00  0.00    +0.116 C 
BRANCH  15  19
ATOM     16  C   LIG    1       24.841 -12.630   1.895  0.00  0.00    +0.105 C 
ATOM     17  N   LIG    1       25.195 -13.856   2.595  0.00  0.00    -0.305 NA
ATOM     18  C   LIG    1       26.548 -14.305   2.261  0.00  0.00    +0.089 C 
ATOM     19  C   LIG    1       26.811 -15.379   3.311  0.00  0.00    +0.022 C 
ATOM     20  C   LIG    1       26.051 -14.859   4.545  0.00  0.00    +0.021 C 
ATOM     21  C   LIG    1       25.193 -13.699   4.047  0.00  0.00    +0.084 C 
ENDBRANCH  15  19
ENDBRANCH   1  15
TORSDOF 2
ENDMDL
MODEL 3
REMARK VINA RESULT:      -1.5      1.960      5.561
REMARK  Name = *****
REMARK                            x       y       z     vdW  Elec       q    Type
REMARK                         _______ _______ _______ _____ _____    ______ ____
ROOT
ATOM      1  N   LIG    1       25.755 -17.612   3.998  0.00  0.00    -0.298 N 
ATOM      2  C   LIG    1       26.854 -18.296   4.566  0.00  0.00    +0.048 A 
ATOM      3  C   LIG    1       26.801 -19.676   4.835  0.00  0.00    +0.034 A 
ATOM      4  C   LIG    1       27.920 -20.338   5.366  0.00  0.00    +0.017 A 
ATOM      5  C   LIG    1       29.082 -19.630   5.669  0.00  0.00    +0.001 A 
ATOM      6  C   LIG    1       29.132 -18.260   5.454  0.00  0.00    +0.002 A 
ATOM      7  S   LIG    1       25.358 -20.665   4.468  0.00  0.00    -0.086 S 
ATOM      8  C   LIG    1       24.098 -19.404   4.347  0.00  0.00    +0.034 A 
ATOM      9  C   LIG    1       22.758 -19.810   4.466  0.00  0.00    +0.017 A 
ATOM     10  C   LIG    1       21.726 -18.873   4.408  0.00  0.00    +0.001 A 
ATOM     11  C   LIG    1       22.024 -17.529   4.234  0.00  0.00    +0.002 A 
ATOM     12  C   LIG    1       23.353 -17.124   4.088  0.00  0.00    +0.024 A 
ATOM     13  C   LIG    1       28.028 -17.599   4.911  0.00  0.00    +0.024 A 
ATOM     14  C   LIG    1       24.412 -18.053   4.116  0.00  0.00    +0.048 A 
ENDROOT
BRANCH   1  15
ATOM     15  C   LIG    1       26.031 -16.683   2.870  0.00  0.00    +0.116 C 
BRANCH  15  19
ATOM     16  C   LIG    1       27.799 -13.302   5.291  0.00  0.00    +0.105 C 
ATOM     17  N   LIG    1       27.318 -14.141   4.203  0.00  0.00    -0.305 NA
ATOM     18  C   LIG    1       25.978 -14.667   4.468  0.00  0.00    +0.089 C 
ATOM     19  C   LIG    1       25.566 -15.226   3.110  0.00  0.00    +0.022 C 
ATOM     20  C   LIG    1       26.241 -14.267   2.114  0.00  0.00    +0.021 C 
ATOM     21  C   LIG    1       27.201 -13.416   2.940  0.00  0.00    +0.084 C 
ENDBRANCH  15  19
ENDBRANCH   1  15
TORSDOF 2
ENDMDL
MODEL 4
REMARK VINA RESULT:      -1.1      1.729      4.911
REMARK  Name = *****
REMARK                            x       y       z     vdW  Elec       q    Type
REMARK                         _______ _______ _______ _____ _____    ______ ____
ROOT
ATOM      1  N   LIG    1       25.931 -19.210   4.079  0.00  0.00    -0.298 N 
ATOM      2  C   LIG    1       24.769 -20.004   4.216  0.00  0.00    +0.048 A 
ATOM      3  C   LIG    1       24.409 -20.573   5.452  0.00  0.00    +0.034 A 
ATOM      4  C   LIG    1       23.231 -21.327   5.568  0.00  0.00    +0.017 A 
ATOM      5  C   LIG    1       22.424 -21.554   4.454  0.00  0.00    +0.001 A 
ATOM      6  C   LIG    1       22.791 -21.039   3.218  0.00  0.00    +0.002 A 
ATOM      7  S   LIG    1       25.377 -20.325   6.934  0.00  0.00    -0.086 S 
ATOM      8  C   LIG    1       26.946 -19.823   6.241  0.00  0.00    +0.034 A 
ATOM      9  C   LIG    1       28.082 -19.924   7.062  0.00  0.00    +0.017 A 
ATOM     10  C   LIG    1       29.341 -19.573   6.576  0.00  0.00    +0.001 A 
ATOM     11  C   LIG    1       29.475 -19.124   5.270  0.00  0.00    +0.002 A 
ATOM     12  C   LIG    1       28.344 -18.997   4.457  0.00  0.00    +0.024 A 
ATOM     13  C   LIG    1       23.954 -20.275   3.100  0.00  0.00    +0.024 A 
ATOM     14  C   LIG    1       27.057 -19.318   4.934  0.00  0.00    +0.048 A 
ENDROOT
BRANCH   1  15
ATOM     15  C   LIG    1       25.804 -17.928   3.338  0.00  0.00    +0.116 C 
BRANCH  15  19
ATOM     16  C   LIG    1       27.233 -13.721   2.512  0.00  0.00    +0.105 C 
ATOM     17  N   LIG    1       26.414 -14.886   2.816  0.00  0.00    -0.305 NA
ATOM     18  C   LIG    1       27.011 -15.717   3.863  0.00  0.00    +0.089 C 
ATOM     19  C   LIG    1       25.871 -16.663   4.228  0.00  0.00    +0.022 C 
ATOM     20  C   LIG    1       24.616 -15.792   4.035  0.00  0.00    +0.021 C 
ATOM     21  C   LIG    1       25.090 -14.531   3.319  0.00  0.00    +0.084 C 
ENDBRANCH  15  19
ENDBRANCH   1  15
TORSDOF 2
ENDMDL
MODEL 5
REMARK VINA RESULT:      -0.4      3.475      6.149
REMARK  Name = *****
REMARK                            x       y       z     vdW  Elec       q    Type
REMARK                         _______ _______ _______ _____ _____    ______ ____
ROOT
ATOM      1  N   LIG    1       25.418 -15.525   3.150  0.00  0.00    -0.298 N 
ATOM      2  C   LIG    1       24.986 -14.194   2.951  0.00  0.00    +0.048 A 
ATOM      3  C   LIG    1       23.885 -13.667   3.652  0.00  0.00    +0.034 A 
ATOM      4  C   LIG    1       23.499 -12.330   3.462  0.00  0.00    +0.017 A 
ATOM      5  C   LIG    1       24.175 -11.522   2.550  0.00  0.00    +0.001 A 
ATOM      6  C   LIG    1       25.232 -12.042   1.816  0.00  0.00    +0.002 A 
ATOM      7  S   LIG    1       22.967 -14.627   4.848  0.00  0.00    -0.086 S 
ATOM      8  C   LIG    1       23.421 -16.290   4.378  0.00  0.00    +0.034 A 
ATOM      9  C   LIG    1       22.596 -17.338   4.818  0.00  0.00    +0.017 A 
ATOM     10  C   LIG    1       22.878 -18.658   4.465  0.00  0.00    +0.001 A 
ATOM     11  C   LIG    1       23.978 -18.938   3.668  0.00  0.00    +0.002 A 
ATOM     12  C   LIG    1       24.817 -17.901   3.249  0.00  0.00    +0.024 A 
ATOM     13  C   LIG    1       25.631 -13.367   2.012  0.00  0.00    +0.024 A 
ATOM     14  C   LIG    1       24.570 -16.563   3.615  0.00  0.00    +0.048 A 
ENDROOT
BRANCH   1  15
ATOM     15  C   LIG    1       26.876 -15.756   3.329  0.00  0.00    +0.116 C 
BRANCH  15  19
ATOM     16  C   LIG    1       29.251 -12.014   4.208  0.00  0.00    +0.105 C 
ATOM     17  N   LIG    1       28.209 -13.029   4.155  0.00  0.00    -0.305 NA
ATOM     18  C   LIG    1       28.731 -14.366   4.444  0.00  0.00    +0.089 C 
ATOM     19  C   LIG    1       27.459 -15.184   4.643  0.00  0.00    +0.022 C 
ATOM     20  C   LIG    1       26.487 -14.174   5.279  0.00  0.00    +0.021 C 
ATOM     21  C   LIG    1       27.155 -12.809   5.142  0.00  0.00    +0.084 C 
ENDBRANCH  15  19
ENDBRANCH   1  15
TORSDOF 2
ENDMDL
