MODEL 1
REMARK VINA RESULT:      -4.1      0.000      0.000
REMARK  Name = *****
REMARK                            x       y       z     vdW  Elec       q    Type
REMARK                         _______ _______ _______ _____ _____    ______ ____
ROOT
ATOM      1  O   LIG    1       24.301 -17.283   3.875  0.00  0.00    -0.247 OA
ATOM      2  C   LIG    1       25.408 -17.796   3.687  0.00  0.00    +0.349 C 
ENDROOT
BRANCH   2   3
ATOM      3  C   LIG    1       25.780 -19.264   4.092  0.00  0.00    +0.213 C 
BRANCH   3   4
ATOM      4  C   LIG    1       24.597 -20.014   4.737  0.00  0.00    -0.001 A 
ATOM      5  C   LIG    1       23.444 -20.358   4.005  0.00  0.00    +0.007 A 
ATOM      6  C   LIG    1       22.371 -21.019   4.612  0.00  0.00    +0.000 A 
ATOM      7  C   LIG    1       22.421 -21.346   5.964  0.00  0.00    +0.000 A 
ATOM      8  C   LIG    1       23.545 -21.010   6.713  0.00  0.00    +0.000 A 
ATOM      9  C   LIG    1       24.619 -20.349   6.108  0.00  0.00    +0.007 A 
ENDBRANCH   3   4
BRANCH   3  10
ATOM     10  C   LIG    1       27.075 -19.289   4.928  0.00  0.00    -0.001 A 
ATOM     11  C   LIG    1       27.307 -20.313   5.867  0.00  0.00    +0.007 A 
ATOM     12  C   LIG    1       28.489 -20.360   6.612  0.00  0.00    +0.000 A 
ATOM     13  C   LIG    1       29.475 -19.399   6.418  0.00  0.00    +0.000 A 
ATOM     14  C   LIG    1       29.282 -18.393   5.477  0.00  0.00    +0.000 A 
ATOM     15  C   LIG    1       28.095 -18.338   4.737  0.00  0.00    +0.007 A 
ENDBRANCH   3  10
BRANCH   3  16
ATOM     16  O   LIG    1       26.058 -19.938   2.841  0.00  0.00    -0.370 OA
ATOM     17  H   LIG    1       26.086 -19.244   2.157  0.00  0.00    +0.212 HD
ENDBRANCH   3  16
ENDBRANCH   2   3
BRANCH   2  18
ATOM     18  O   LIG    1       26.455 -17.125   3.117  0.00  0.00    -0.459 OA
BRANCH  18  19
ATOM     19  C   LIG    1       26.846 -15.856   3.681  0.00  0.00    +0.187 C 
ATOM     20  C   LIG    1       25.722 -15.414   4.630  0.00  0.00    +0.099 C 
ATOM     21  C   LIG    1       25.652 -13.898   4.839  0.00  0.00    +0.070 C 
ATOM     22  N   LIG    1       25.478 -13.210   3.475  0.00  0.00    +0.248 N 
ATOM     23  C   LIG    1       26.894 -13.412   2.895  0.00  0.00    +0.070 C 
ATOM     24  C   LIG    1       27.795 -13.008   4.073  0.00  0.00    +0.060 C 
ATOM     25  C   LIG    1       25.140 -11.686   3.629  0.00  0.00    +0.134 C 
ATOM     26  C   LIG    1       23.812 -11.482   2.922  0.00  0.00    +0.056 C 
ATOM     27  C   LIG    1       23.806 -12.552   1.859  0.00  0.00    +0.056 C 
ATOM     28  C   LIG    1       24.311 -13.753   2.626  0.00  0.00    +0.134 C 
ATOM     29  C   LIG    1       26.993 -13.338   5.335  0.00  0.00    +0.060 C 
ATOM     30  C   LIG    1       27.114 -14.885   2.526  0.00  0.00    +0.099 C 
ENDBRANCH  18  19
ENDBRANCH   2  18
TORSDOF 6
ENDMDL
MODEL 2
REMARK VINA RESULT:      -3.3      1.139      2.532
REMARK  Name = *****
REMARK                            x       y       z     vdW  Elec       q    Type
REMARK                         _______ _______ _______ _____ _____    ______ ____
ROOT
ATOM      1  O   LIG    1       26.914 -17.347   3.311  0.00  0.00    -0.247 OA
ATOM      2  C   LIG    1       25.828 -17.803   3.676  0.00  0.00    +0.349 C 
ENDROOT
BRANCH   2   3
ATOM      3  C   LIG    1       25.561 -19.320   3.970  0.00  0.00    +0.213 C 
BRANCH   3   4
ATOM      4  C   LIG    1       24.068 -19.615   4.224  0.00  0.00    -0.001 A 
ATOM      5  C   LIG    1       23.055 -18.714   3.843  0.00  0.00    +0.007 A 
ATOM      6  C   LIG    1       21.708 -18.989   4.101  0.00  0.00    +0.000 A 
ATOM      7  C   LIG    1       21.341 -20.164   4.749  0.00  0.00    +0.000 A 
ATOM      8  C   LIG    1       22.323 -21.068   5.143  0.00  0.00    +0.000 A 
ATOM      9  C   LIG    1       23.672 -20.796   4.887  0.00  0.00    +0.007 A 
ENDBRANCH   3   4
BRANCH   3  10
ATOM     10  C   LIG    1       26.504 -19.837   5.074  0.00  0.00    -0.001 A 
ATOM     11  C   LIG    1       26.065 -20.802   6.003  0.00  0.00    +0.007 A 
ATOM     12  C   LIG    1       26.920 -21.298   6.992  0.00  0.00    +0.000 A 
ATOM     13  C   LIG    1       28.238 -20.858   7.060  0.00  0.00    +0.000 A 
ATOM     14  C   LIG    1       28.703 -19.925   6.137  0.00  0.00    +0.000 A 
ATOM     15  C   LIG    1       27.847 -19.421   5.153  0.00  0.00    +0.007 A 
ENDBRANCH   3  10
BRANCH   3  16
ATOM     16  O   LIG    1       25.910 -20.007   2.744  0.00  0.00    -0.370 OA
ATOM     17  H   LIG    1       25.226 -19.767   2.092  0.00  0.00    +0.212 HD
ENDBRANCH   3  16
ENDBRANCH   2   3
BRANCH   2  18
ATOM     18  O   LIG    1       24.712 -17.030   3.847  0.00  0.00    -0.459 OA
BRANCH  18  19
ATOM     19  C   LIG    1       24.729 -15.680   3.339  0.00  0.00    +0.187 C 
ATOM     20  C   LIG    1       26.058 -15.490   2.593  0.00  0.00    +0.099 C 
ATOM     21  C   LIG    1       26.520 -14.031   2.520  0.00  0.00    +0.070 C 
ATOM     22  N   LIG    1       26.642 -13.469   3.946  0.00  0.00    +0.248 N 
ATOM     23  C   LIG    1       25.147 -13.338   4.305  0.00  0.00    +0.070 C 
ATOM     24  C   LIG    1       24.562 -12.671   3.050  0.00  0.00    +0.060 C 
ATOM     25  C   LIG    1       27.355 -12.072   3.964  0.00  0.00    +0.134 C 
ATOM     26  C   LIG    1       28.568 -12.237   4.862  0.00  0.00    +0.056 C 
ATOM     27  C   LIG    1       28.154 -13.321   5.825  0.00  0.00    +0.056 C 
ATOM     28  C   LIG    1       27.499 -14.323   4.901  0.00  0.00    +0.134 C 
ATOM     29  C   LIG    1       25.446 -13.134   1.889  0.00  0.00    +0.060 C 
ATOM     30  C   LIG    1       24.526 -14.725   4.520  0.00  0.00    +0.099 C 
ENDBRANCH  18  19
ENDBRANCH   2  18
TORSDOF 6
ENDMDL
MODEL 3
REMARK VINA RESULT:      -2.2      0.935      2.438
REMARK  Name = *****
REMARK                            x       y       z     vdW  Elec       q    Type
REMARK                         _______ _______ _______ _____ _____    ______ ____
ROOT
ATOM      1  O   LIG    1       23.704 -17.502   3.960  0.00  0.00    -0.247 OA
ATOM      2  C   LIG    1       24.845 -17.877   3.679  0.00  0.00    +0.349 C 
ENDROOT
BRANCH   2   3
ATOM      3  C   LIG    1       25.439 -19.273   4.075  0.00  0.00    +0.213 C 
BRANCH   3   4
ATOM      4  C   LIG    1       24.468 -20.098   4.944  0.00  0.00    -0.001 A 
ATOM      5  C   LIG    1       23.187 -20.463   4.490  0.00  0.00    +0.007 A 
ATOM      6  C   LIG    1       22.312 -21.195   5.301  0.00  0.00    +0.000 A 
ATOM      7  C   LIG    1       22.693 -21.572   6.585  0.00  0.00    +0.000 A 
ATOM      8  C   LIG    1       23.951 -21.217   7.062  0.00  0.00    +0.000 A 
ATOM      9  C   LIG    1       24.828 -20.486   6.253  0.00  0.00    +0.007 A 
ENDBRANCH   3   4
BRANCH   3  10
ATOM     10  C   LIG    1       26.849 -19.116   4.677  0.00  0.00    -0.001 A 
ATOM     11  C   LIG    1       27.590 -17.934   4.477  0.00  0.00    +0.007 A 
ATOM     12  C   LIG    1       28.858 -17.769   5.041  0.00  0.00    +0.000 A 
ATOM     13  C   LIG    1       29.404 -18.771   5.836  0.00  0.00    +0.000 A 
ATOM     14  C   LIG    1       28.681 -19.936   6.072  0.00  0.00    +0.000 A 
ATOM     15  C   LIG    1       27.415 -20.107   5.501  0.00  0.00    +0.007 A 
ENDBRANCH   3  10
BRANCH   3  16
ATOM     16  O   LIG    1       25.578 -19.990   2.824  0.00  0.00    -0.370 OA
ATOM     17  H   LIG    1       26.526 -19.963   2.599  0.00  0.00    +0.212 HD
ENDBRANCH   3  16
ENDBRANCH   2   3
BRANCH   2  18
ATOM     18  O   LIG    1       25.740 -17.099   2.998  0.00  0.00    -0.459 OA
BRANCH  18  19
ATOM     19  C   LIG    1       25.462 -15.689   2.866  0.00  0.00    +0.187 C 
ATOM     20  C   LIG    1       26.708 -15.035   2.250  0.00  0.00    +0.099 C 
ATOM     21  C   LIG    1       26.852 -13.547   2.583  0.00  0.00    +0.070 C 
ATOM     22  N   LIG    1       26.879 -13.374   4.111  0.00  0.00    +0.248 N 
ATOM     23  C   LIG    1       25.396 -13.657   4.434  0.00  0.00    +0.070 C 
ATOM     24  C   LIG    1       24.661 -12.815   3.379  0.00  0.00    +0.060 C 
ATOM     25  C   LIG    1       27.282 -11.916   4.526  0.00  0.00    +0.134 C 
ATOM     26  C   LIG    1       28.518 -12.059   5.395  0.00  0.00    +0.056 C 
ATOM     27  C   LIG    1       28.359 -13.422   6.020  0.00  0.00    +0.056 C 
ATOM     28  C   LIG    1       27.914 -14.254   4.839  0.00  0.00    +0.134 C 
ATOM     29  C   LIG    1       25.601 -12.757   2.171  0.00  0.00    +0.060 C 
ATOM     30  C   LIG    1       25.085 -15.148   4.250  0.00  0.00    +0.099 C 
ENDBRANCH  18  19
ENDBRANCH   2  18
TORSDOF 6
ENDMDL
