MODEL 1
REMARK VINA RESULT:     -10.1      0.000      0.000
REMARK  Name = *****
REMARK                            x       y       z     vdW  Elec       q    Type
REMARK                         _______ _______ _______ _____ _____    ______ ____
ROOT
ATOM      1  C   LIG    1       25.884 -20.671   6.483  0.00  0.00    +0.087 C 
ATOM      2  C   LIG    1       26.016 -20.780   7.963  0.00  0.00    +0.345 C 
ATOM      3  O   LIG    1       25.126 -21.218   8.672  0.00  0.00    -0.245 OA
ATOM      4  O   LIG    1       27.196 -20.350   8.545  0.00  0.00    -0.422 OA
ATOM      5  C   LIG    1       28.237 -19.800   7.791  0.00  0.00    +0.143 A 
ATOM      6  C   LIG    1       28.140 -19.689   6.409  0.00  0.00    +0.059 A 
ATOM      7  C   LIG    1       29.195 -19.052   5.740  0.00  0.00    +0.015 A 
ATOM      8  C   LIG    1       30.323 -18.607   6.441  0.00  0.00    +0.001 A 
ATOM      9  C   LIG    1       30.406 -18.771   7.823  0.00  0.00    +0.004 A 
ATOM     10  C   LIG    1       29.349 -19.359   8.506  0.00  0.00    +0.047 A 
ATOM     11  C   LIG    1       26.924 -20.205   5.769  0.00  0.00    +0.138 C 
ENDROOT
BRANCH  11  12
ATOM     12  O   LIG    1       26.902 -20.230   4.384  0.00  0.00    -0.505 OA
ATOM     13  H   LIG    1       27.752 -20.584   4.068  0.00  0.00    +0.292 HD
ENDBRANCH  11  12
BRANCH   1  14
ATOM     14  C   LIG    1       24.554 -21.101   5.853  0.00  0.00    +0.067 C 
BRANCH  14  15
ATOM     15  C   LIG    1       24.339 -22.618   5.926  0.00  0.00    -0.039 A 
ATOM     16  C   LIG    1       25.229 -23.519   5.319  0.00  0.00    +0.004 A 
ATOM     17  C   LIG    1       25.055 -24.898   5.441  0.00  0.00    +0.000 A 
ATOM     18  C   LIG    1       23.986 -25.407   6.171  0.00  0.00    +0.000 A 
ATOM     19  C   LIG    1       23.077 -24.532   6.762  0.00  0.00    +0.000 A 
ATOM     20  C   LIG    1       23.244 -23.149   6.631  0.00  0.00    +0.004 A 
ENDBRANCH  14  15
BRANCH  14  21
ATOM     21  C   LIG    1       23.296 -20.334   6.340  0.00  0.00    +0.087 C 
BRANCH  21  23
ATOM     22  C   LIG    1       22.380 -18.563   4.705  0.00  0.00    +0.086 C 
ATOM     23  C   LIG    1       22.349 -19.983   5.214  0.00  0.00    +0.131 C 
ATOM     24  O   LIG    1       21.581 -20.818   4.736  0.00  0.00    -0.298 OA
ENDBRANCH  21  23
ENDBRANCH  14  21
ENDBRANCH   1  14
TORSDOF 5
ENDMDL
MODEL 2
REMARK VINA RESULT:     -10.0      0.317      1.024
REMARK  Name = *****
REMARK                            x       y       z     vdW  Elec       q    Type
REMARK                         _______ _______ _______ _____ _____    ______ ____
ROOT
ATOM      1  C   LIG    1       26.036 -20.762   6.602  0.00  0.00    +0.087 C 
ATOM      2  C   LIG    1       26.241 -20.881   8.073  0.00  0.00    +0.345 C 
ATOM      3  O   LIG    1       25.410 -21.375   8.815  0.00  0.00    -0.245 OA
ATOM      4  O   LIG    1       27.422 -20.393   8.606  0.00  0.00    -0.422 OA
ATOM      5  C   LIG    1       28.396 -19.778   7.814  0.00  0.00    +0.143 A 
ATOM      6  C   LIG    1       28.229 -19.656   6.439  0.00  0.00    +0.059 A 
ATOM      7  C   LIG    1       29.216 -18.955   5.732  0.00  0.00    +0.015 A 
ATOM      8  C   LIG    1       30.350 -18.457   6.388  0.00  0.00    +0.001 A 
ATOM      9  C   LIG    1       30.504 -18.632   7.762  0.00  0.00    +0.004 A 
ATOM     10  C   LIG    1       29.514 -19.285   8.484  0.00  0.00    +0.047 A 
ATOM     11  C   LIG    1       27.015 -20.232   5.848  0.00  0.00    +0.138 C 
ENDROOT
BRANCH  11  12
ATOM     12  O   LIG    1       26.931 -20.243   4.465  0.00  0.00    -0.505 OA
ATOM     13  H   LIG    1       27.199 -21.122   4.147  0.00  0.00    +0.292 HD
ENDBRANCH  11  12
BRANCH   1  14
ATOM     14  C   LIG    1       24.704 -21.258   6.027  0.00  0.00    +0.067 C 
BRANCH  14  15
ATOM     15  C   LIG    1       24.523 -22.772   6.198  0.00  0.00    -0.039 A 
ATOM     16  C   LIG    1       23.284 -23.331   6.548  0.00  0.00    +0.004 A 
ATOM     17  C   LIG    1       23.117 -24.713   6.644  0.00  0.00    +0.000 A 
ATOM     18  C   LIG    1       24.188 -25.566   6.396  0.00  0.00    +0.000 A 
ATOM     19  C   LIG    1       25.433 -25.033   6.071  0.00  0.00    +0.000 A 
ATOM     20  C   LIG    1       25.604 -23.647   5.985  0.00  0.00    +0.004 A 
ENDBRANCH  14  15
BRANCH  14  21
ATOM     21  C   LIG    1       23.439 -20.487   6.491  0.00  0.00    +0.087 C 
BRANCH  21  23
ATOM     22  C   LIG    1       22.550 -18.726   4.831  0.00  0.00    +0.086 C 
ATOM     23  C   LIG    1       22.509 -20.142   5.349  0.00  0.00    +0.131 C 
ATOM     24  O   LIG    1       21.747 -20.979   4.865  0.00  0.00    -0.298 OA
ENDBRANCH  21  23
ENDBRANCH  14  21
ENDBRANCH   1  14
TORSDOF 5
ENDMDL
MODEL 3
REMARK VINA RESULT:      -9.5      1.235      3.525
REMARK  Name = *****
REMARK                            x       y       z     vdW  Elec       q    Type
REMARK                         _______ _______ _______ _____ _____    ______ ____
ROOT
ATOM      1  C   LIG    1       26.030 -21.105   6.708  0.00  0.00    +0.087 C 
ATOM      2  C   LIG    1       26.353 -21.258   8.154  0.00  0.00    +0.345 C 
ATOM      3  O   LIG    1       25.617 -21.837   8.934  0.00  0.00    -0.245 OA
ATOM      4  O   LIG    1       27.532 -20.703   8.620  0.00  0.00    -0.422 OA
ATOM      5  C   LIG    1       28.398 -19.992   7.785  0.00  0.00    +0.143 A 
ATOM      6  C   LIG    1       28.121 -19.836   6.431  0.00  0.00    +0.059 A 
ATOM      7  C   LIG    1       29.001 -19.040   5.683  0.00  0.00    +0.015 A 
ATOM      8  C   LIG    1       30.142 -18.483   6.274  0.00  0.00    +0.001 A 
ATOM      9  C   LIG    1       30.410 -18.692   7.626  0.00  0.00    +0.004 A 
ATOM     10  C   LIG    1       29.526 -19.441   8.391  0.00  0.00    +0.047 A 
ATOM     11  C   LIG    1       26.910 -20.479   5.906  0.00  0.00    +0.138 C 
ENDROOT
BRANCH  11  12
ATOM     12  O   LIG    1       26.724 -20.449   4.535  0.00  0.00    -0.505 OA
ATOM     13  H   LIG    1       26.702 -19.520   4.247  0.00  0.00    +0.292 HD
ENDBRANCH  11  12
BRANCH   1  14
ATOM     14  C   LIG    1       24.698 -21.678   6.211  0.00  0.00    +0.067 C 
BRANCH  14  15
ATOM     15  C   LIG    1       23.893 -20.657   5.396  0.00  0.00    -0.039 A 
ATOM     16  C   LIG    1       22.907 -19.853   5.990  0.00  0.00    +0.004 A 
ATOM     17  C   LIG    1       22.222 -18.887   5.251  0.00  0.00    +0.000 A 
ATOM     18  C   LIG    1       22.507 -18.708   3.901  0.00  0.00    +0.000 A 
ATOM     19  C   LIG    1       23.463 -19.511   3.285  0.00  0.00    +0.000 A 
ATOM     20  C   LIG    1       24.143 -20.486   4.023  0.00  0.00    +0.004 A 
ENDBRANCH  14  15
BRANCH  14  21
ATOM     21  C   LIG    1       24.781 -23.042   5.474  0.00  0.00    +0.087 C 
BRANCH  21  23
ATOM     22  C   LIG    1       25.581 -25.087   6.824  0.00  0.00    +0.086 C 
ATOM     23  C   LIG    1       24.440 -24.214   6.367  0.00  0.00    +0.131 C 
ATOM     24  O   LIG    1       23.279 -24.450   6.702  0.00  0.00    -0.298 OA
ENDBRANCH  21  23
ENDBRANCH  14  21
ENDBRANCH   1  14
TORSDOF 5
ENDMDL
MODEL 4
REMARK VINA RESULT:      -8.8      0.914      2.297
REMARK  Name = *****
REMARK                            x       y       z     vdW  Elec       q    Type
REMARK                         _______ _______ _______ _____ _____    ______ ____
ROOT
ATOM      1  C   LIG    1       25.912 -20.664   5.757  0.00  0.00    +0.087 C 
ATOM      2  C   LIG    1       26.499 -19.665   4.820  0.00  0.00    +0.345 C 
ATOM      3  O   LIG    1       25.895 -19.238   3.851  0.00  0.00    -0.245 OA
ATOM      4  O   LIG    1       27.789 -19.225   5.062  0.00  0.00    -0.422 OA
ATOM      5  C   LIG    1       28.549 -19.708   6.131  0.00  0.00    +0.143 A 
ATOM      6  C   LIG    1       28.024 -20.638   7.021  0.00  0.00    +0.059 A 
ATOM      7  C   LIG    1       28.881 -21.130   8.017  0.00  0.00    +0.015 A 
ATOM      8  C   LIG    1       30.191 -20.647   8.136  0.00  0.00    +0.001 A 
ATOM      9  C   LIG    1       30.672 -19.683   7.251  0.00  0.00    +0.004 A 
ATOM     10  C   LIG    1       29.851 -19.220   6.232  0.00  0.00    +0.047 A 
ATOM     11  C   LIG    1       26.633 -21.063   6.820  0.00  0.00    +0.138 C 
ENDROOT
BRANCH  11  12
ATOM     12  O   LIG    1       26.072 -21.869   7.796  0.00  0.00    -0.505 OA
ATOM     13  H   LIG    1       25.489 -22.516   7.363  0.00  0.00    +0.292 HD
ENDBRANCH  11  12
BRANCH   1  14
ATOM     14  C   LIG    1       24.503 -21.185   5.451  0.00  0.00    +0.067 C 
BRANCH  14  15
ATOM     15  C   LIG    1       24.369 -22.690   5.716  0.00  0.00    -0.039 A 
ATOM     16  C   LIG    1       23.397 -23.200   6.591  0.00  0.00    +0.004 A 
ATOM     17  C   LIG    1       23.246 -24.575   6.779  0.00  0.00    +0.000 A 
ATOM     18  C   LIG    1       24.066 -25.469   6.098  0.00  0.00    +0.000 A 
ATOM     19  C   LIG    1       25.053 -24.984   5.244  0.00  0.00    +0.000 A 
ATOM     20  C   LIG    1       25.212 -23.606   5.062  0.00  0.00    +0.004 A 
ENDBRANCH  14  15
BRANCH  14  21
ATOM     21  C   LIG    1       23.335 -20.396   6.102  0.00  0.00    +0.087 C 
BRANCH  21  23
ATOM     22  C   LIG    1       22.292 -18.555   4.628  0.00  0.00    +0.086 C 
ATOM     23  C   LIG    1       22.275 -19.987   5.103  0.00  0.00    +0.131 C 
ATOM     24  O   LIG    1       21.430 -20.786   4.699  0.00  0.00    -0.298 OA
ENDBRANCH  21  23
ENDBRANCH  14  21
ENDBRANCH   1  14
TORSDOF 5
ENDMDL
MODEL 5
REMARK VINA RESULT:      -8.0      1.637      5.516
REMARK  Name = *****
REMARK                            x       y       z     vdW  Elec       q    Type
REMARK                         _______ _______ _______ _____ _____    ______ ____
ROOT
ATOM      1  C   LIG    1       25.399 -22.453   6.457  0.00  0.00    +0.087 C 
ATOM      2  C   LIG    1       25.759 -23.046   7.776  0.00  0.00    +0.345 C 
ATOM      3  O   LIG    1       25.987 -22.366   8.761  0.00  0.00    -0.245 OA
ATOM      4  O   LIG    1       25.848 -24.425   7.867  0.00  0.00    -0.422 OA
ATOM      5  C   LIG    1       25.639 -25.256   6.763  0.00  0.00    +0.143 A 
ATOM      6  C   LIG    1       25.301 -24.728   5.522  0.00  0.00    +0.059 A 
ATOM      7  C   LIG    1       25.188 -25.627   4.451  0.00  0.00    +0.015 A 
ATOM      8  C   LIG    1       25.352 -27.004   4.651  0.00  0.00    +0.001 A 
ATOM      9  C   LIG    1       25.651 -27.503   5.918  0.00  0.00    +0.004 A 
ATOM     10  C   LIG    1       25.810 -26.622   6.980  0.00  0.00    +0.047 A 
ATOM     11  C   LIG    1       25.132 -23.273   5.425  0.00  0.00    +0.138 C 
ENDROOT
BRANCH  11  12
ATOM     12  O   LIG    1       24.647 -22.773   4.228  0.00  0.00    -0.505 OA
ATOM     13  H   LIG    1       23.675 -22.805   4.252  0.00  0.00    +0.292 HD
ENDBRANCH  11  12
BRANCH   1  14
ATOM     14  C   LIG    1       25.354 -20.925   6.352  0.00  0.00    +0.067 C 
BRANCH  14  15
ATOM     15  C   LIG    1       26.745 -20.291   6.480  0.00  0.00    -0.039 A 
ATOM     16  C   LIG    1       27.417 -20.233   7.711  0.00  0.00    +0.004 A 
ATOM     17  C   LIG    1       28.706 -19.706   7.805  0.00  0.00    +0.000 A 
ATOM     18  C   LIG    1       29.349 -19.223   6.670  0.00  0.00    +0.000 A 
ATOM     19  C   LIG    1       28.692 -19.248   5.443  0.00  0.00    +0.000 A 
ATOM     20  C   LIG    1       27.395 -19.766   5.349  0.00  0.00    +0.004 A 
ENDBRANCH  14  15
BRANCH  14  21
ATOM     21  C   LIG    1       24.589 -20.354   5.127  0.00  0.00    +0.087 C 
BRANCH  21  23
ATOM     22  C   LIG    1       22.431 -18.962   4.893  0.00  0.00    +0.086 C 
ATOM     23  C   LIG    1       23.102 -20.227   5.369  0.00  0.00    +0.131 C 
ATOM     24  O   LIG    1       22.465 -21.115   5.936  0.00  0.00    -0.298 OA
ENDBRANCH  21  23
ENDBRANCH  14  21
ENDBRANCH   1  14
TORSDOF 5
ENDMDL
MODEL 6
REMARK VINA RESULT:      -8.0      1.595      4.722
REMARK  Name = *****
REMARK                            x       y       z     vdW  Elec       q    Type
REMARK                         _______ _______ _______ _____ _____    ______ ____
ROOT
ATOM      1  C   LIG    1       24.765 -21.707   6.617  0.00  0.00    +0.087 C 
ATOM      2  C   LIG    1       23.401 -21.490   7.178  0.00  0.00    +0.345 C 
ATOM      3  O   LIG    1       22.979 -22.113   8.137  0.00  0.00    -0.245 OA
ATOM      4  O   LIG    1       22.588 -20.551   6.568  0.00  0.00    -0.422 OA
ATOM      5  C   LIG    1       22.999 -19.834   5.441  0.00  0.00    +0.143 A 
ATOM      6  C   LIG    1       24.267 -20.016   4.899  0.00  0.00    +0.059 A 
ATOM      7  C   LIG    1       24.568 -19.317   3.721  0.00  0.00    +0.015 A 
ATOM      8  C   LIG    1       23.643 -18.426   3.160  0.00  0.00    +0.001 A 
ATOM      9  C   LIG    1       22.396 -18.237   3.753  0.00  0.00    +0.004 A 
ATOM     10  C   LIG    1       22.065 -18.956   4.894  0.00  0.00    +0.047 A 
ATOM     11  C   LIG    1       25.167 -20.956   5.576  0.00  0.00    +0.138 C 
ENDROOT
BRANCH  11  12
ATOM     12  O   LIG    1       26.474 -21.016   5.122  0.00  0.00    -0.505 OA
ATOM     13  H   LIG    1       26.606 -20.309   4.467  0.00  0.00    +0.292 HD
ENDBRANCH  11  12
BRANCH   1  14
ATOM     14  C   LIG    1       25.639 -22.786   7.266  0.00  0.00    +0.067 C 
BRANCH  14  15
ATOM     15  C   LIG    1       25.549 -24.129   6.531  0.00  0.00    -0.039 A 
ATOM     16  C   LIG    1       25.040 -24.221   5.226  0.00  0.00    +0.004 A 
ATOM     17  C   LIG    1       25.017 -25.440   4.545  0.00  0.00    +0.000 A 
ATOM     18  C   LIG    1       25.499 -26.592   5.157  0.00  0.00    +0.000 A 
ATOM     19  C   LIG    1       25.985 -26.529   6.460  0.00  0.00    +0.000 A 
ATOM     20  C   LIG    1       26.000 -25.310   7.147  0.00  0.00    +0.004 A 
ENDBRANCH  14  15
BRANCH  14  21
ATOM     21  C   LIG    1       27.117 -22.390   7.529  0.00  0.00    +0.087 C 
BRANCH  21  23
ATOM     22  C   LIG    1       28.362 -20.150   7.813  0.00  0.00    +0.086 C 
ATOM     23  C   LIG    1       27.252 -21.070   8.255  0.00  0.00    +0.131 C 
ATOM     24  O   LIG    1       26.491 -20.760   9.172  0.00  0.00    -0.298 OA
ENDBRANCH  21  23
ENDBRANCH  14  21
ENDBRANCH   1  14
TORSDOF 5
ENDMDL
MODEL 7
REMARK VINA RESULT:      -7.7      1.769      5.884
REMARK  Name = *****
REMARK                            x       y       z     vdW  Elec       q    Type
REMARK                         _______ _______ _______ _____ _____    ______ ____
ROOT
ATOM      1  C   LIG    1       25.704 -22.639   6.341  0.00  0.00    +0.087 C 
ATOM      2  C   LIG    1       26.020 -23.206   7.682  0.00  0.00    +0.345 C 
ATOM      3  O   LIG    1       26.402 -22.518   8.613  0.00  0.00    -0.245 OA
ATOM      4  O   LIG    1       25.885 -24.573   7.859  0.00  0.00    -0.422 OA
ATOM      5  C   LIG    1       25.492 -25.420   6.819  0.00  0.00    +0.143 A 
ATOM      6  C   LIG    1       25.189 -24.915   5.559  0.00  0.00    +0.059 A 
ATOM      7  C   LIG    1       24.882 -25.843   4.553  0.00  0.00    +0.015 A 
ATOM      8  C   LIG    1       24.825 -27.214   4.836  0.00  0.00    +0.001 A 
ATOM      9  C   LIG    1       25.095 -27.682   6.121  0.00  0.00    +0.004 A 
ATOM     10  C   LIG    1       25.444 -26.780   7.118  0.00  0.00    +0.047 A 
ATOM     11  C   LIG    1       25.259 -23.461   5.374  0.00  0.00    +0.138 C 
ENDROOT
BRANCH  11  12
ATOM     12  O   LIG    1       24.810 -22.957   4.165  0.00  0.00    -0.505 OA
ATOM     13  H   LIG    1       25.572 -22.862   3.568  0.00  0.00    +0.292 HD
ENDBRANCH  11  12
BRANCH   1  14
ATOM     14  C   LIG    1       25.907 -21.133   6.139  0.00  0.00    +0.067 C 
BRANCH  14  15
ATOM     15  C   LIG    1       24.679 -20.459   5.514  0.00  0.00    -0.039 A 
ATOM     16  C   LIG    1       23.425 -20.481   6.144  0.00  0.00    +0.004 A 
ATOM     17  C   LIG    1       22.329 -19.814   5.594  0.00  0.00    +0.000 A 
ATOM     18  C   LIG    1       22.463 -19.115   4.400  0.00  0.00    +0.000 A 
ATOM     19  C   LIG    1       23.691 -19.100   3.744  0.00  0.00    +0.000 A 
ATOM     20  C   LIG    1       24.788 -19.776   4.289  0.00  0.00    +0.004 A 
ENDBRANCH  14  15
BRANCH  14  21
ATOM     21  C   LIG    1       26.405 -20.346   7.381  0.00  0.00    +0.087 C 
BRANCH  21  23
ATOM     22  C   LIG    1       28.478 -19.845   5.932  0.00  0.00    +0.086 C 
ATOM     23  C   LIG    1       27.875 -19.999   7.306  0.00  0.00    +0.131 C 
ATOM     24  O   LIG    1       28.555 -19.854   8.323  0.00  0.00    -0.298 OA
ENDBRANCH  21  23
ENDBRANCH  14  21
ENDBRANCH   1  14
TORSDOF 5
ENDMDL
MODEL 8
REMARK VINA RESULT:      -7.3      1.390      3.822
REMARK  Name = *****
REMARK                            x       y       z     vdW  Elec       q    Type
REMARK                         _______ _______ _______ _____ _____    ______ ____
ROOT
ATOM      1  C   LIG    1       26.626 -21.144   6.603  0.00  0.00    +0.087 C 
ATOM      2  C   LIG    1       26.958 -20.206   5.494  0.00  0.00    +0.345 C 
ATOM      3  O   LIG    1       26.204 -20.002   4.558  0.00  0.00    -0.245 OA
ATOM      4  O   LIG    1       28.180 -19.557   5.534  0.00  0.00    -0.422 OA
ATOM      5  C   LIG    1       29.104 -19.779   6.559  0.00  0.00    +0.143 A 
ATOM      6  C   LIG    1       28.818 -20.648   7.606  0.00  0.00    +0.059 A 
ATOM      7  C   LIG    1       29.832 -20.875   8.548  0.00  0.00    +0.015 A 
ATOM      8  C   LIG    1       31.056 -20.198   8.460  0.00  0.00    +0.001 A 
ATOM      9  C   LIG    1       31.294 -19.302   7.419  0.00  0.00    +0.004 A 
ATOM     10  C   LIG    1       30.317 -19.101   6.453  0.00  0.00    +0.047 A 
ATOM     11  C   LIG    1       27.498 -21.290   7.616  0.00  0.00    +0.138 C 
ENDROOT
BRANCH  11  12
ATOM     12  O   LIG    1       27.165 -22.031   8.738  0.00  0.00    -0.505 OA
ATOM     13  H   LIG    1       26.241 -21.837   8.972  0.00  0.00    +0.292 HD
ENDBRANCH  11  12
BRANCH   1  14
ATOM     14  C   LIG    1       25.293 -21.897   6.523  0.00  0.00    +0.067 C 
BRANCH  14  15
ATOM     15  C   LIG    1       24.218 -21.100   5.774  0.00  0.00    -0.039 A 
ATOM     16  C   LIG    1       23.441 -20.124   6.418  0.00  0.00    +0.004 A 
ATOM     17  C   LIG    1       22.506 -19.364   5.714  0.00  0.00    +0.000 A 
ATOM     18  C   LIG    1       22.326 -19.567   4.349  0.00  0.00    +0.000 A 
ATOM     19  C   LIG    1       23.067 -20.547   3.694  0.00  0.00    +0.000 A 
ATOM     20  C   LIG    1       23.997 -21.316   4.402  0.00  0.00    +0.004 A 
ENDBRANCH  14  15
BRANCH  14  21
ATOM     21  C   LIG    1       25.372 -23.357   6.001  0.00  0.00    +0.087 C 
BRANCH  21  23
ATOM     22  C   LIG    1       24.253 -25.677   6.128  0.00  0.00    +0.086 C 
ATOM     23  C   LIG    1       24.195 -24.201   6.436  0.00  0.00    +0.131 C 
ATOM     24  O   LIG    1       23.226 -23.706   7.012  0.00  0.00    -0.298 OA
ENDBRANCH  21  23
ENDBRANCH  14  21
ENDBRANCH   1  14
TORSDOF 5
ENDMDL
