MODEL 1
REMARK VINA RESULT:      -3.7      0.000      0.000
REMARK  Name = *****
REMARK                            x       y       z     vdW  Elec       q    Type
REMARK                         _______ _______ _______ _____ _____    ______ ____
ROOT
ATOM      1  S   LIG    1       22.336 -18.033   4.104  0.00  0.00    +0.095 S 
ATOM      2  O   LIG    1       22.161 -18.373   5.558  0.00  0.00    -0.249 OA
ENDROOT
BRANCH   1   8
ATOM      3  C   LIG    1       26.414 -13.356   3.457  0.00  0.00    +0.122 A 
ATOM      4  C   LIG    1       26.300 -14.743   3.289  0.00  0.00    +0.073 A 
ATOM      5  C   LIG    1       25.090 -15.326   3.672  0.00  0.00    +0.070 A 
ATOM      6  C   LIG    1       24.036 -14.607   4.223  0.00  0.00    +0.090 A 
ATOM      7  N   LIG    1       22.977 -15.429   4.500  0.00  0.00    -0.220 NA
ATOM      8  C   LIG    1       23.345 -16.620   4.092  0.00  0.00    +0.198 A 
ATOM      9  C   LIG    1       24.162 -13.224   4.396  0.00  0.00    +0.033 A 
ATOM     10  N   LIG    1       24.628 -16.617   3.615  0.00  0.00    -0.331 N 
ATOM     11  H   LIG    1       25.101 -17.425   3.240  0.00  0.00    +0.168 HD
ATOM     12  C   LIG    1       25.359 -12.613   4.002  0.00  0.00    +0.048 A 
BRANCH   3  14
ATOM     13  C   LIG    1       28.724 -12.916   3.795  0.00  0.00    +0.277 C 
ATOM     14  O   LIG    1       27.513 -12.611   3.115  0.00  0.00    -0.495 OA
ENDBRANCH   3  14
ENDBRANCH   1   8
BRANCH   1  15
ATOM     15  C   LIG    1       23.544 -19.185   3.366  0.00  0.00    +0.167 C 
BRANCH  15  16
ATOM     16  C   LIG    1       24.591 -19.659   4.345  0.00  0.00    +0.060 A 
ATOM     17  C   LIG    1       25.937 -19.265   4.276  0.00  0.00    +0.014 A 
ATOM     18  C   LIG    1       26.421 -18.268   3.253  0.00  0.00    +0.049 C 
ATOM     19  C   LIG    1       26.866 -19.882   5.151  0.00  0.00    +0.129 A 
ATOM     20  C   LIG    1       26.419 -20.808   6.103  0.00  0.00    +0.009 A 
ATOM     21  C   LIG    1       27.278 -21.572   7.062  0.00  0.00    +0.049 C 
ATOM     22  C   LIG    1       25.050 -21.057   6.130  0.00  0.00    +0.118 A 
ATOM     23  N   LIG    1       24.140 -20.513   5.295  0.00  0.00    -0.258 NA
BRANCH  19  24
ATOM     24  O   LIG    1       28.171 -19.550   4.885  0.00  0.00    -0.494 OA
ATOM     25  C   LIG    1       28.953 -18.908   5.877  0.00  0.00    +0.277 C 
ENDBRANCH  19  24
ENDBRANCH  15  16
ENDBRANCH   1  15
TORSDOF 5
ENDMDL
MODEL 2
REMARK VINA RESULT:      -3.5      2.162      3.894
REMARK  Name = *****
REMARK                            x       y       z     vdW  Elec       q    Type
REMARK                         _______ _______ _______ _____ _____    ______ ____
ROOT
ATOM      1  S   LIG    1       28.004 -18.210   5.134  0.00  0.00    +0.095 S 
ATOM      2  O   LIG    1       29.475 -18.369   4.867  0.00  0.00    -0.249 OA
ENDROOT
BRANCH   1   8
ATOM      3  C   LIG    1       25.639 -13.058   2.529  0.00  0.00    +0.122 A 
ATOM      4  C   LIG    1       25.340 -14.408   2.756  0.00  0.00    +0.073 A 
ATOM      5  C   LIG    1       26.326 -15.175   3.381  0.00  0.00    +0.070 A 
ATOM      6  C   LIG    1       27.567 -14.669   3.750  0.00  0.00    +0.090 A 
ATOM      7  N   LIG    1       28.332 -15.638   4.343  0.00  0.00    -0.220 NA
ATOM      8  C   LIG    1       27.571 -16.706   4.382  0.00  0.00    +0.198 A 
ATOM      9  C   LIG    1       27.861 -13.322   3.510  0.00  0.00    +0.033 A 
ATOM     10  N   LIG    1       26.361 -16.486   3.781  0.00  0.00    -0.331 N 
ATOM     11  H   LIG    1       25.623 -17.171   3.714  0.00  0.00    +0.168 HD
ATOM     12  C   LIG    1       26.881 -12.527   2.902  0.00  0.00    +0.048 A 
BRANCH   3  14
ATOM     13  C   LIG    1       23.746 -11.644   2.779  0.00  0.00    +0.277 C 
ATOM     14  O   LIG    1       24.787 -12.151   1.953  0.00  0.00    -0.495 OA
ENDBRANCH   3  14
ENDBRANCH   1   8
BRANCH   1  15
ATOM     15  C   LIG    1       27.074 -19.306   4.009  0.00  0.00    +0.167 C 
BRANCH  15  16
ATOM     16  C   LIG    1       25.874 -19.949   4.662  0.00  0.00    +0.060 A 
ATOM     17  C   LIG    1       24.573 -19.845   4.144  0.00  0.00    +0.014 A 
ATOM     18  C   LIG    1       24.292 -19.140   2.841  0.00  0.00    +0.049 C 
ATOM     19  C   LIG    1       23.498 -20.360   4.911  0.00  0.00    +0.129 A 
ATOM     20  C   LIG    1       23.757 -21.016   6.122  0.00  0.00    +0.009 A 
ATOM     21  C   LIG    1       22.732 -21.571   7.062  0.00  0.00    +0.049 C 
ATOM     22  C   LIG    1       25.094 -21.129   6.493  0.00  0.00    +0.118 A 
ATOM     23  N   LIG    1       26.140 -20.627   5.804  0.00  0.00    -0.258 NA
BRANCH  19  24
ATOM     24  O   LIG    1       22.264 -20.056   4.395  0.00  0.00    -0.494 OA
ATOM     25  C   LIG    1       21.750 -18.741   4.517  0.00  0.00    +0.277 C 
ENDBRANCH  19  24
ENDBRANCH  15  16
ENDBRANCH   1  15
TORSDOF 5
ENDMDL
MODEL 3
REMARK VINA RESULT:      -1.3      1.737      2.020
REMARK  Name = *****
REMARK                            x       y       z     vdW  Elec       q    Type
REMARK                         _______ _______ _______ _____ _____    ______ ____
ROOT
ATOM      1  S   LIG    1       22.313 -20.023   4.187  0.00  0.00    +0.095 S 
ATOM      2  O   LIG    1       22.234 -20.592   5.576  0.00  0.00    -0.249 OA
ENDROOT
BRANCH   1   8
ATOM      3  C   LIG    1       24.095 -14.044   4.209  0.00  0.00    +0.122 A 
ATOM      4  C   LIG    1       24.422 -15.284   3.644  0.00  0.00    +0.073 A 
ATOM      5  C   LIG    1       23.675 -16.385   4.066  0.00  0.00    +0.070 A 
ATOM      6  C   LIG    1       22.665 -16.304   5.017  0.00  0.00    +0.090 A 
ATOM      7  N   LIG    1       22.101 -17.532   5.235  0.00  0.00    -0.220 NA
ATOM      8  C   LIG    1       22.711 -18.348   4.410  0.00  0.00    +0.198 A 
ATOM      9  C   LIG    1       22.351 -15.064   5.584  0.00  0.00    +0.033 A 
ATOM     10  N   LIG    1       23.696 -17.709   3.705  0.00  0.00    -0.331 N 
ATOM     11  H   LIG    1       24.277 -18.148   3.008  0.00  0.00    +0.168 HD
ATOM     12  C   LIG    1       23.074 -13.940   5.163  0.00  0.00    +0.048 A 
BRANCH   3  14
ATOM     13  C   LIG    1       23.894 -11.880   3.249  0.00  0.00    +0.277 C 
ATOM     14  O   LIG    1       24.701 -12.854   3.899  0.00  0.00    -0.495 OA
ENDBRANCH   3  14
ENDBRANCH   1   8
BRANCH   1  15
ATOM     15  C   LIG    1       23.890 -20.536   3.424  0.00  0.00    +0.167 C 
BRANCH  15  16
ATOM     16  C   LIG    1       25.053 -20.512   4.387  0.00  0.00    +0.060 A 
ATOM     17  C   LIG    1       26.101 -19.581   4.299  0.00  0.00    +0.014 A 
ATOM     18  C   LIG    1       26.098 -18.477   3.271  0.00  0.00    +0.049 C 
ATOM     19  C   LIG    1       27.217 -19.738   5.160  0.00  0.00    +0.129 A 
ATOM     20  C   LIG    1       27.221 -20.761   6.116  0.00  0.00    +0.009 A 
ATOM     21  C   LIG    1       28.337 -21.081   7.061  0.00  0.00    +0.049 C 
ATOM     22  C   LIG    1       26.090 -21.572   6.163  0.00  0.00    +0.118 A 
ATOM     23  N   LIG    1       25.024 -21.472   5.342  0.00  0.00    -0.258 NA
BRANCH  19  24
ATOM     24  O   LIG    1       28.250 -18.881   4.875  0.00  0.00    -0.494 OA
ATOM     25  C   LIG    1       29.307 -18.715   5.805  0.00  0.00    +0.277 C 
ENDBRANCH  19  24
ENDBRANCH  15  16
ENDBRANCH   1  15
TORSDOF 5
ENDMDL
