MODEL 1
REMARK VINA RESULT:      -9.1      0.000      0.000
REMARK  Name = *****
REMARK                            x       y       z     vdW  Elec       q    Type
REMARK                         _______ _______ _______ _____ _____    ______ ____
ROOT
ATOM      1  C   LIG    1       24.654 -23.557   5.884  0.00  0.00    +0.100 C 
ENDROOT
BRANCH   1   2
ATOM      2  C   LIG    1       24.030 -24.937   6.357  0.00  0.00    +0.100 C 
BRANCH   2   3
ATOM      3  N   LIG    1       24.875 -26.111   6.702  0.00  0.00    -0.287 NA
BRANCH   3   4
ATOM      4  C   LIG    1       24.284 -27.547   6.542  0.00  0.00    +0.124 C 
BRANCH   4   5
ATOM      5  C   LIG    1       25.009 -29.451   6.995  0.00  0.00    +0.012 A 
ATOM      6  C   LIG    1       24.296 -31.031   6.635  0.00  0.00    +0.142 A 
ATOM      7  C   LIG    1       23.818 -32.013   7.880  0.00  0.00    +0.080 A 
ATOM      8  C   LIG    1       22.750 -33.072   7.778  0.00  0.00    +0.069 C 
ATOM      9  N   LIG    1       24.575 -31.751   9.129  0.00  0.00    -0.251 NA
ATOM     10  C   LIG    1       25.594 -30.363   9.403  0.00  0.00    +0.068 A 
ATOM     11  C   LIG    1       25.787 -29.077   8.378  0.00  0.00    +0.034 A 
BRANCH   6  12
ATOM     12  O   LIG    1       23.290 -31.629   5.637  0.00  0.00    -0.505 OA
ATOM     13  H   LIG    1       22.351 -31.304   5.633  0.00  0.00    +0.292 HD
ENDBRANCH   6  12
BRANCH  10  14
ATOM     14  C   LIG    1       26.841 -30.857   9.720  0.00  0.00    +0.227 C 
BRANCH  14  15
ATOM     15  O   LIG    1       27.716 -29.816  10.130  0.00  0.00    -0.281 OA
BRANCH  15  16
ATOM     16  P   LIG    1       27.951 -29.369  11.656  0.00  0.00    +0.473 P 
ATOM     17  O   LIG    1       27.409 -30.231  12.744  0.00  0.00    -0.228 OA
BRANCH  16  18
ATOM     18  O   LIG    1       29.540 -29.247  11.714  0.00  0.00    -0.303 OA
ATOM     19  H   LIG    1       29.968 -29.913  11.157  0.00  0.00    +0.222 HD
ENDBRANCH  16  18
BRANCH  16  20
ATOM     20  O   LIG    1       27.547 -27.839  11.814  0.00  0.00    -0.303 OA
ATOM     21  H   LIG    1       28.311 -27.262  11.632  0.00  0.00    +0.222 HD
ENDBRANCH  16  20
ENDBRANCH  15  16
ENDBRANCH  14  15
ENDBRANCH  10  14
ENDBRANCH   4   5
ENDBRANCH   3   4
BRANCH   3  22
ATOM     22  C   LIG    1       26.284 -25.958   6.295  0.00  0.00    +0.205 C 
BRANCH  22  23
ATOM     23  C   LIG    1       26.699 -26.698   4.846  0.00  0.00    +0.319 C 
ATOM     24  O   LIG    1       25.986 -26.741   3.846  0.00  0.00    -0.250 OA
BRANCH  23  25
ATOM     25  O   LIG    1       27.877 -27.411   4.753  0.00  0.00    -0.480 OA
ATOM     26  H   LIG    1       27.692 -28.373   4.584  0.00  0.00    +0.295 HD
ENDBRANCH  23  25
ENDBRANCH  22  23
ENDBRANCH   3  22
ENDBRANCH   2   3
ENDBRANCH   1   2
BRANCH   1  27
ATOM     27  N   LIG    1       24.246 -22.302   6.550  0.00  0.00    -0.287 NA
BRANCH  27  28
ATOM     28  C   LIG    1       22.895 -21.786   6.301  0.00  0.00    +0.205 C 
BRANCH  28  29
ATOM     29  C   LIG    1       22.775 -20.766   5.157  0.00  0.00    +0.319 C 
ATOM     30  O   LIG    1       22.176 -19.700   5.159  0.00  0.00    -0.250 OA
BRANCH  29  31
ATOM     31  O   LIG    1       23.262 -21.284   3.999  0.00  0.00    -0.480 OA
ATOM     32  H   LIG    1       23.230 -20.560   3.342  0.00  0.00    +0.295 HD
ENDBRANCH  29  31
ENDBRANCH  28  29
ENDBRANCH  27  28
BRANCH  27  33
ATOM     33  C   LIG    1       25.191 -21.366   7.181  0.00  0.00    +0.124 C 
BRANCH  33  37
ATOM     34  C   LIG    1       29.094 -18.251   5.156  0.00  0.00    +0.069 C 
ATOM     35  C   LIG    1       28.243 -19.605   6.254  0.00  0.00    +0.080 A 
ATOM     36  C   LIG    1       26.996 -20.665   5.703  0.00  0.00    +0.142 A 
ATOM     37  C   LIG    1       26.645 -21.285   6.789  0.00  0.00    +0.012 A 
ATOM     38  C   LIG    1       27.763 -21.450   7.810  0.00  0.00    +0.034 A 
ATOM     39  C   LIG    1       29.117 -20.796   7.841  0.00  0.00    +0.068 A 
ATOM     40  N   LIG    1       29.187 -19.745   7.182  0.00  0.00    -0.251 NA
BRANCH  36  41
ATOM     41  O   LIG    1       25.796 -20.281   4.715  0.00  0.00    -0.505 OA
ATOM     42  H   LIG    1       24.899 -20.068   5.104  0.00  0.00    +0.292 HD
ENDBRANCH  36  41
BRANCH  39  43
ATOM     43  C   LIG    1       30.597 -21.040   8.571  0.00  0.00    +0.227 C 
BRANCH  43  44
ATOM     44  O   LIG    1       31.813 -20.131   9.280  0.00  0.00    -0.281 OA
BRANCH  44  45
ATOM     45  P   LIG    1       31.682 -18.425   9.473  0.00  0.00    +0.473 P 
ATOM     46  O   LIG    1       32.058 -17.603   8.286  0.00  0.00    -0.228 OA
BRANCH  45  47
ATOM     47  O   LIG    1       30.170 -18.053   9.858  0.00  0.00    -0.303 OA
ATOM     48  H   LIG    1       30.084 -17.081   9.913  0.00  0.00    +0.222 HD
ENDBRANCH  45  47
BRANCH  45  49
ATOM     49  O   LIG    1       32.553 -17.615  10.581  0.00  0.00    -0.303 OA
ATOM     50  H   LIG    1       33.312 -17.237  10.045  0.00  0.00    +0.222 HD
ENDBRANCH  45  49
ENDBRANCH  44  45
ENDBRANCH  43  44
ENDBRANCH  39  43
ENDBRANCH  33  37
ENDBRANCH  27  33
ENDBRANCH   1  27
TORSDOF 25
ENDMDL
MODEL 2
REMARK VINA RESULT:      -9.1      1.700      2.238
REMARK  Name = *****
REMARK                            x       y       z     vdW  Elec       q    Type
REMARK                         _______ _______ _______ _____ _____    ______ ____
ROOT
ATOM      1  C   LIG    1       25.885 -24.058   7.215  0.00  0.00    +0.100 C 
ENDROOT
BRANCH   1   2
ATOM      2  C   LIG    1       25.531 -25.137   6.108  0.00  0.00    +0.100 C 
BRANCH   2   3
ATOM      3  N   LIG    1       25.514 -26.595   6.400  0.00  0.00    -0.287 NA
BRANCH   3   4
ATOM      4  C   LIG    1       26.233 -27.123   7.681  0.00  0.00    +0.124 C 
BRANCH   4   5
ATOM      5  C   LIG    1       25.989 -28.828   8.859  0.00  0.00    +0.012 A 
ATOM      6  C   LIG    1       24.624 -29.954   8.923  0.00  0.00    +0.142 A 
ATOM      7  C   LIG    1       23.741 -30.088  10.317  0.00  0.00    +0.080 A 
ATOM      8  C   LIG    1       22.303 -30.536  10.385  0.00  0.00    +0.069 C 
ATOM      9  N   LIG    1       24.529 -29.729  11.522  0.00  0.00    -0.251 NA
ATOM     10  C   LIG    1       26.075 -28.924  11.497  0.00  0.00    +0.068 A 
ATOM     11  C   LIG    1       26.847 -28.336  10.155  0.00  0.00    +0.034 A 
BRANCH   6  12
ATOM     12  O   LIG    1       23.459 -30.387   8.018  0.00  0.00    -0.505 OA
ATOM     13  H   LIG    1       22.531 -30.114   8.247  0.00  0.00    +0.292 HD
ENDBRANCH   6  12
BRANCH  10  14
ATOM     14  C   LIG    1       26.949 -29.747  12.175  0.00  0.00    +0.227 C 
BRANCH  14  15
ATOM     15  O   LIG    1       27.549 -29.069  13.269  0.00  0.00    -0.281 OA
BRANCH  15  16
ATOM     16  P   LIG    1       28.969 -29.456  13.915  0.00  0.00    +0.473 P 
ATOM     17  O   LIG    1       29.061 -30.684  14.753  0.00  0.00    -0.228 OA
BRANCH  16  18
ATOM     18  O   LIG    1       29.899 -29.534  12.622  0.00  0.00    -0.303 OA
ATOM     19  H   LIG    1       29.874 -28.709  12.116  0.00  0.00    +0.222 HD
ENDBRANCH  16  18
BRANCH  16  20
ATOM     20  O   LIG    1       29.581 -28.171  14.623  0.00  0.00    -0.303 OA
ATOM     21  H   LIG    1       29.719 -28.335  15.574  0.00  0.00    +0.222 HD
ENDBRANCH  16  20
ENDBRANCH  15  16
ENDBRANCH  14  15
ENDBRANCH  10  14
ENDBRANCH   4   5
ENDBRANCH   3   4
BRANCH   3  22
ATOM     22  C   LIG    1       24.224 -27.239   6.088  0.00  0.00    +0.205 C 
BRANCH  22  23
ATOM     23  C   LIG    1       24.327 -28.808   5.498  0.00  0.00    +0.319 C 
ATOM     24  O   LIG    1       25.349 -29.331   5.060  0.00  0.00    -0.250 OA
BRANCH  23  25
ATOM     25  O   LIG    1       23.184 -29.573   5.384  0.00  0.00    -0.480 OA
ATOM     26  H   LIG    1       23.403 -30.477   5.031  0.00  0.00    +0.295 HD
ENDBRANCH  23  25
ENDBRANCH  22  23
ENDBRANCH   3  22
ENDBRANCH   2   3
ENDBRANCH   1   2
BRANCH   1  27
ATOM     27  N   LIG    1       25.129 -22.788   7.268  0.00  0.00    -0.287 NA
BRANCH  27  28
ATOM     28  C   LIG    1       23.718 -22.797   6.867  0.00  0.00    +0.205 C 
BRANCH  28  29
ATOM     29  C   LIG    1       23.352 -21.860   5.705  0.00  0.00    +0.319 C 
ATOM     30  O   LIG    1       22.485 -20.999   5.678  0.00  0.00    -0.250 OA
BRANCH  29  31
ATOM     31  O   LIG    1       23.988 -22.238   4.565  0.00  0.00    -0.480 OA
ATOM     32  H   LIG    1       24.077 -21.430   4.022  0.00  0.00    +0.295 HD
ENDBRANCH  29  31
ENDBRANCH  28  29
ENDBRANCH  27  28
BRANCH  27  33
ATOM     33  C   LIG    1       25.763 -21.463   7.379  0.00  0.00    +0.124 C 
BRANCH  33  37
ATOM     34  C   LIG    1       29.206 -17.993   5.112  0.00  0.00    +0.069 C 
ATOM     35  C   LIG    1       28.543 -19.363   6.314  0.00  0.00    +0.080 A 
ATOM     36  C   LIG    1       27.467 -20.631   5.850  0.00  0.00    +0.142 A 
ATOM     37  C   LIG    1       27.195 -21.207   6.982  0.00  0.00    +0.012 A 
ATOM     38  C   LIG    1       28.313 -21.128   8.014  0.00  0.00    +0.034 A 
ATOM     39  C   LIG    1       29.560 -20.286   7.992  0.00  0.00    +0.068 A 
ATOM     40  N   LIG    1       29.487 -19.292   7.251  0.00  0.00    -0.251 NA
BRANCH  36  41
ATOM     41  O   LIG    1       26.237 -20.503   4.833  0.00  0.00    -0.505 OA
ATOM     42  H   LIG    1       26.423 -20.487   3.850  0.00  0.00    +0.292 HD
ENDBRANCH  36  41
BRANCH  39  43
ATOM     43  C   LIG    1       31.050 -20.258   8.740  0.00  0.00    +0.227 C 
BRANCH  43  44
ATOM     44  O   LIG    1       32.168 -19.127   9.268  0.00  0.00    -0.281 OA
BRANCH  44  45
ATOM     45  P   LIG    1       31.724 -17.502   9.625  0.00  0.00    +0.473 P 
ATOM     46  O   LIG    1       31.922 -17.067  11.039  0.00  0.00    -0.228 OA
BRANCH  45  47
ATOM     47  O   LIG    1       32.567 -16.508   8.690  0.00  0.00    -0.303 OA
ATOM     48  H   LIG    1       32.600 -15.626   9.109  0.00  0.00    +0.222 HD
ENDBRANCH  45  47
BRANCH  45  49
ATOM     49  O   LIG    1       30.199 -16.968   9.446  0.00  0.00    -0.303 OA
ATOM     50  H   LIG    1       30.222 -16.061   9.874  0.00  0.00    +0.222 HD
ENDBRANCH  45  49
ENDBRANCH  44  45
ENDBRANCH  43  44
ENDBRANCH  39  43
ENDBRANCH  33  37
ENDBRANCH  27  33
ENDBRANCH   1  27
TORSDOF 25
ENDMDL
MODEL 3
REMARK VINA RESULT:      -8.8      2.532      3.293
REMARK  Name = *****
REMARK                            x       y       z     vdW  Elec       q    Type
REMARK                         _______ _______ _______ _____ _____    ______ ____
ROOT
ATOM      1  C   LIG    1       25.015 -24.201   6.092  0.00  0.00    +0.100 C 
ENDROOT
BRANCH   1   2
ATOM      2  C   LIG    1       25.902 -25.254   6.881  0.00  0.00    +0.100 C 
BRANCH   2   3
ATOM      3  N   LIG    1       25.687 -26.720   6.758  0.00  0.00    -0.287 NA
BRANCH   3   4
ATOM      4  C   LIG    1       26.141 -27.656   7.923  0.00  0.00    +0.124 C 
BRANCH   4   5
ATOM      5  C   LIG    1       25.680 -29.624   8.439  0.00  0.00    +0.012 A 
ATOM      6  C   LIG    1       25.804 -31.093   7.458  0.00  0.00    +0.142 A 
ATOM      7  C   LIG    1       24.430 -31.933   7.070  0.00  0.00    +0.080 A 
ATOM      8  C   LIG    1       24.277 -32.821   5.862  0.00  0.00    +0.069 C 
ATOM      9  N   LIG    1       23.345 -31.732   8.062  0.00  0.00    -0.251 NA
ATOM     10  C   LIG    1       23.343 -30.503   9.300  0.00  0.00    +0.068 A 
ATOM     11  C   LIG    1       24.475 -29.310   9.491  0.00  0.00    +0.034 A 
BRANCH   6  12
ATOM     12  O   LIG    1       26.576 -31.577   6.219  0.00  0.00    -0.505 OA
ATOM     13  H   LIG    1       26.856 -32.528   6.156  0.00  0.00    +0.292 HD
ENDBRANCH   6  12
BRANCH  10  14
ATOM     14  C   LIG    1       23.203 -31.165  10.501  0.00  0.00    +0.227 C 
BRANCH  14  15
ATOM     15  O   LIG    1       21.982 -30.820  11.138  0.00  0.00    -0.281 OA
BRANCH  15  16
ATOM     16  P   LIG    1       20.595 -31.608  10.940  0.00  0.00    +0.473 P 
ATOM     17  O   LIG    1       19.908 -32.157  12.143  0.00  0.00    -0.228 OA
BRANCH  16  18
ATOM     18  O   LIG    1       19.711 -30.518  10.183  0.00  0.00    -0.303 OA
ATOM     19  H   LIG    1       18.765 -30.664  10.329  0.00  0.00    +0.222 HD
ENDBRANCH  16  18
BRANCH  16  20
ATOM     20  O   LIG    1       20.771 -32.681   9.780  0.00  0.00    -0.303 OA
ATOM     21  H   LIG    1       21.454 -32.392   9.147  0.00  0.00    +0.222 HD
ENDBRANCH  16  20
ENDBRANCH  15  16
ENDBRANCH  14  15
ENDBRANCH  10  14
ENDBRANCH   4   5
ENDBRANCH   3   4
BRANCH   3  22
ATOM     22  C   LIG    1       24.401 -27.072   6.129  0.00  0.00    +0.205 C 
BRANCH  22  23
ATOM     23  C   LIG    1       24.351 -28.579   5.389  0.00  0.00    +0.319 C 
ATOM     24  O   LIG    1       25.287 -29.101   4.786  0.00  0.00    -0.250 OA
BRANCH  23  25
ATOM     25  O   LIG    1       23.163 -29.280   5.342  0.00  0.00    -0.480 OA
ATOM     26  H   LIG    1       22.406 -28.705   5.632  0.00  0.00    +0.295 HD
ENDBRANCH  23  25
ENDBRANCH  22  23
ENDBRANCH   3  22
ENDBRANCH   2   3
ENDBRANCH   1   2
BRANCH   1  27
ATOM     27  N   LIG    1       24.522 -22.992   6.787  0.00  0.00    -0.287 NA
BRANCH  27  28
ATOM     28  C   LIG    1       23.134 -22.573   6.560  0.00  0.00    +0.205 C 
BRANCH  28  29
ATOM     29  C   LIG    1       22.957 -21.275   5.756  0.00  0.00    +0.319 C 
ATOM     30  O   LIG    1       22.766 -20.146   6.184  0.00  0.00    -0.250 OA
BRANCH  29  31
ATOM     31  O   LIG    1       22.821 -21.545   4.432  0.00  0.00    -0.480 OA
ATOM     32  H   LIG    1       22.724 -20.681   3.985  0.00  0.00    +0.295 HD
ENDBRANCH  29  31
ENDBRANCH  28  29
ENDBRANCH  27  28
BRANCH  27  33
ATOM     33  C   LIG    1       25.403 -22.000   7.427  0.00  0.00    +0.124 C 
BRANCH  33  37
ATOM     34  C   LIG    1       28.807 -18.414   5.284  0.00  0.00    +0.069 C 
ATOM     35  C   LIG    1       28.177 -19.878   6.390  0.00  0.00    +0.080 A 
ATOM     36  C   LIG    1       27.034 -21.067   5.878  0.00  0.00    +0.142 A 
ATOM     37  C   LIG    1       26.815 -21.743   6.965  0.00  0.00    +0.012 A 
ATOM     38  C   LIG    1       27.997 -21.794   7.924  0.00  0.00    +0.034 A 
ATOM     39  C   LIG    1       29.266 -20.986   7.903  0.00  0.00    +0.068 A 
ATOM     40  N   LIG    1       29.179 -19.923   7.267  0.00  0.00    -0.251 NA
BRANCH  36  41
ATOM     41  O   LIG    1       25.748 -20.808   4.960  0.00  0.00    -0.505 OA
ATOM     42  H   LIG    1       25.717 -21.217   4.046  0.00  0.00    +0.292 HD
ENDBRANCH  36  41
BRANCH  39  43
ATOM     43  C   LIG    1       30.800 -21.069   8.552  0.00  0.00    +0.227 C 
BRANCH  43  44
ATOM     44  O   LIG    1       31.921 -20.044   9.260  0.00  0.00    -0.281 OA
BRANCH  44  45
ATOM     45  P   LIG    1       31.538 -18.415   9.666  0.00  0.00    +0.473 P 
ATOM     46  O   LIG    1       32.580 -17.672  10.435  0.00  0.00    -0.228 OA
BRANCH  45  47
ATOM     47  O   LIG    1       31.251 -17.590   8.321  0.00  0.00    -0.303 OA
ATOM     48  H   LIG    1       31.132 -16.646   8.544  0.00  0.00    +0.222 HD
ENDBRANCH  45  47
BRANCH  45  49
ATOM     49  O   LIG    1       30.267 -18.039  10.606  0.00  0.00    -0.303 OA
ATOM     50  H   LIG    1       30.485 -17.114  10.929  0.00  0.00    +0.222 HD
ENDBRANCH  45  49
ENDBRANCH  44  45
ENDBRANCH  43  44
ENDBRANCH  39  43
ENDBRANCH  33  37
ENDBRANCH  27  33
ENDBRANCH   1  27
TORSDOF 25
ENDMDL
MODEL 4
REMARK VINA RESULT:      -8.7      1.846      3.511
REMARK  Name = *****
REMARK                            x       y       z     vdW  Elec       q    Type
REMARK                         _______ _______ _______ _____ _____    ______ ____
ROOT
ATOM      1  C   LIG    1       24.931 -23.712   6.086  0.00  0.00    +0.100 C 
ENDROOT
BRANCH   1   2
ATOM      2  C   LIG    1       25.693 -24.830   6.914  0.00  0.00    +0.100 C 
BRANCH   2   3
ATOM      3  N   LIG    1       25.706 -26.256   6.493  0.00  0.00    -0.287 NA
BRANCH   3   4
ATOM      4  C   LIG    1       26.557 -27.282   7.307  0.00  0.00    +0.124 C 
BRANCH   4   5
ATOM      5  C   LIG    1       26.134 -28.523   8.930  0.00  0.00    +0.012 A 
ATOM      6  C   LIG    1       26.671 -28.384  10.611  0.00  0.00    +0.142 A 
ATOM      7  C   LIG    1       27.647 -29.557  11.255  0.00  0.00    +0.080 A 
ATOM      8  C   LIG    1       28.603 -29.347  12.402  0.00  0.00    +0.069 C 
ATOM      9  N   LIG    1       27.472 -30.869  10.585  0.00  0.00    -0.251 NA
ATOM     10  C   LIG    1       26.625 -31.114   9.081  0.00  0.00    +0.068 A 
ATOM     11  C   LIG    1       25.991 -29.927   8.114  0.00  0.00    +0.034 A 
BRANCH   6  12
ATOM     12  O   LIG    1       27.186 -27.287  11.558  0.00  0.00    -0.505 OA
ATOM     13  H   LIG    1       26.803 -26.372  11.503  0.00  0.00    +0.292 HD
ENDBRANCH   6  12
BRANCH  10  14
ATOM     14  C   LIG    1       25.634 -32.036   9.341  0.00  0.00    +0.227 C 
BRANCH  14  15
ATOM     15  O   LIG    1       25.068 -32.535   8.137  0.00  0.00    -0.281 OA
BRANCH  15  16
ATOM     16  P   LIG    1       23.494 -32.566   7.813  0.00  0.00    +0.473 P 
ATOM     17  O   LIG    1       22.738 -33.825   8.064  0.00  0.00    -0.228 OA
BRANCH  16  18
ATOM     18  O   LIG    1       22.960 -31.353   8.700  0.00  0.00    -0.303 OA
ATOM     19  H   LIG    1       21.994 -31.365   8.775  0.00  0.00    +0.222 HD
ENDBRANCH  16  18
BRANCH  16  20
ATOM     20  O   LIG    1       23.255 -31.974   6.357  0.00  0.00    -0.303 OA
ATOM     21  H   LIG    1       22.699 -32.575   5.830  0.00  0.00    +0.222 HD
ENDBRANCH  16  20
ENDBRANCH  15  16
ENDBRANCH  14  15
ENDBRANCH  10  14
ENDBRANCH   4   5
ENDBRANCH   3   4
BRANCH   3  22
ATOM     22  C   LIG    1       24.391 -26.745   6.040  0.00  0.00    +0.205 C 
BRANCH  22  23
ATOM     23  C   LIG    1       24.385 -28.289   5.379  0.00  0.00    +0.319 C 
ATOM     24  O   LIG    1       25.237 -28.731   4.612  0.00  0.00    -0.250 OA
BRANCH  23  25
ATOM     25  O   LIG    1       23.313 -29.128   5.608  0.00  0.00    -0.480 OA
ATOM     26  H   LIG    1       22.474 -28.726   5.258  0.00  0.00    +0.295 HD
ENDBRANCH  23  25
ENDBRANCH  22  23
ENDBRANCH   3  22
ENDBRANCH   2   3
ENDBRANCH   1   2
BRANCH   1  27
ATOM     27  N   LIG    1       24.495 -22.470   6.761  0.00  0.00    -0.287 NA
BRANCH  27  28
ATOM     28  C   LIG    1       23.112 -22.019   6.568  0.00  0.00    +0.205 C 
BRANCH  28  29
ATOM     29  C   LIG    1       22.921 -20.880   5.554  0.00  0.00    +0.319 C 
ATOM     30  O   LIG    1       22.534 -19.740   5.767  0.00  0.00    -0.250 OA
BRANCH  29  31
ATOM     31  O   LIG    1       23.038 -21.345   4.282  0.00  0.00    -0.480 OA
ATOM     32  H   LIG    1       23.943 -21.708   4.206  0.00  0.00    +0.295 HD
ENDBRANCH  29  31
ENDBRANCH  28  29
ENDBRANCH  27  28
BRANCH  27  33
ATOM     33  C   LIG    1       25.423 -21.486   7.342  0.00  0.00    +0.124 C 
BRANCH  33  37
ATOM     34  C   LIG    1       29.002 -18.175   5.047  0.00  0.00    +0.069 C 
ATOM     35  C   LIG    1       28.301 -19.558   6.213  0.00  0.00    +0.080 A 
ATOM     36  C   LIG    1       27.093 -20.704   5.752  0.00  0.00    +0.142 A 
ATOM     37  C   LIG    1       26.844 -21.323   6.866  0.00  0.00    +0.012 A 
ATOM     38  C   LIG    1       28.026 -21.399   7.823  0.00  0.00    +0.034 A 
ATOM     39  C   LIG    1       29.336 -20.662   7.766  0.00  0.00    +0.068 A 
ATOM     40  N   LIG    1       29.303 -19.622   7.087  0.00  0.00    -0.251 NA
BRANCH  36  41
ATOM     41  O   LIG    1       25.819 -20.414   4.828  0.00  0.00    -0.505 OA
ATOM     42  H   LIG    1       25.213 -19.653   5.066  0.00  0.00    +0.292 HD
ENDBRANCH  36  41
BRANCH  39  43
ATOM     43  C   LIG    1       30.868 -20.800   8.413  0.00  0.00    +0.227 C 
BRANCH  43  44
ATOM     44  O   LIG    1       31.898 -19.921   9.397  0.00  0.00    -0.281 OA
BRANCH  44  45
ATOM     45  P   LIG    1       31.703 -18.227   9.641  0.00  0.00    +0.473 P 
ATOM     46  O   LIG    1       31.861 -17.371   8.429  0.00  0.00    -0.228 OA
BRANCH  45  47
ATOM     47  O   LIG    1       30.244 -17.946  10.245  0.00  0.00    -0.303 OA
ATOM     48  H   LIG    1       29.981 -17.030  10.033  0.00  0.00    +0.222 HD
ENDBRANCH  45  47
BRANCH  45  49
ATOM     49  O   LIG    1       32.678 -17.382  10.631  0.00  0.00    -0.303 OA
ATOM     50  H   LIG    1       32.035 -16.839  11.177  0.00  0.00    +0.222 HD
ENDBRANCH  45  49
ENDBRANCH  44  45
ENDBRANCH  43  44
ENDBRANCH  39  43
ENDBRANCH  33  37
ENDBRANCH  27  33
ENDBRANCH   1  27
TORSDOF 25
ENDMDL
MODEL 5
REMARK VINA RESULT:      -8.6      3.741     10.039
REMARK  Name = *****
REMARK                            x       y       z     vdW  Elec       q    Type
REMARK                         _______ _______ _______ _____ _____    ______ ____
ROOT
ATOM      1  C   LIG    1       25.343 -28.790   8.401  0.00  0.00    +0.100 C 
ENDROOT
BRANCH   1   2
ATOM      2  C   LIG    1       26.171 -27.835   7.443  0.00  0.00    +0.100 C 
BRANCH   2   3
ATOM      3  N   LIG    1       25.512 -26.926   6.468  0.00  0.00    -0.287 NA
BRANCH   3   4
ATOM      4  C   LIG    1       25.955 -25.430   6.403  0.00  0.00    +0.124 C 
BRANCH   4   5
ATOM      5  C   LIG    1       25.114 -23.657   7.115  0.00  0.00    +0.012 A 
ATOM      6  C   LIG    1       23.507 -22.982   6.806  0.00  0.00    +0.142 A 
ATOM      7  C   LIG    1       23.368 -21.544   5.995  0.00  0.00    +0.080 A 
ATOM      8  C   LIG    1       22.162 -21.121   5.196  0.00  0.00    +0.069 C 
ATOM      9  N   LIG    1       24.570 -20.689   6.150  0.00  0.00    -0.251 NA
ATOM     10  C   LIG    1       26.098 -21.227   6.795  0.00  0.00    +0.068 A 
ATOM     11  C   LIG    1       26.484 -22.780   7.223  0.00  0.00    +0.034 A 
BRANCH   6  12
ATOM     12  O   LIG    1       22.122 -23.486   6.365  0.00  0.00    -0.505 OA
ATOM     13  H   LIG    1       21.583 -24.046   6.985  0.00  0.00    +0.292 HD
ENDBRANCH   6  12
BRANCH  10  14
ATOM     14  C   LIG    1       26.379 -20.401   7.862  0.00  0.00    +0.227 C 
BRANCH  14  15
ATOM     15  O   LIG    1       27.707 -20.596   8.326  0.00  0.00    -0.281 OA
BRANCH  15  16
ATOM     16  P   LIG    1       29.017 -19.974   7.632  0.00  0.00    +0.473 P 
ATOM     17  O   LIG    1       28.873 -19.298   6.313  0.00  0.00    -0.228 OA
BRANCH  16  18
ATOM     18  O   LIG    1       29.542 -18.984   8.766  0.00  0.00    -0.303 OA
ATOM     19  H   LIG    1       30.448 -18.690   8.590  0.00  0.00    +0.222 HD
ENDBRANCH  16  18
BRANCH  16  20
ATOM     20  O   LIG    1       30.177 -21.062   7.651  0.00  0.00    -0.303 OA
ATOM     21  H   LIG    1       30.800 -20.886   8.379  0.00  0.00    +0.222 HD
ENDBRANCH  16  20
ENDBRANCH  15  16
ENDBRANCH  14  15
ENDBRANCH  10  14
ENDBRANCH   4   5
ENDBRANCH   3   4
BRANCH   3  22
ATOM     22  C   LIG    1       25.240 -27.562   5.166  0.00  0.00    +0.205 C 
BRANCH  22  23
ATOM     23  C   LIG    1       24.643 -29.129   5.241  0.00  0.00    +0.319 C 
ATOM     24  O   LIG    1       25.318 -30.148   5.110  0.00  0.00    -0.250 OA
BRANCH  23  25
ATOM     25  O   LIG    1       23.285 -29.340   5.361  0.00  0.00    -0.480 OA
ATOM     26  H   LIG    1       22.805 -28.990   4.564  0.00  0.00    +0.295 HD
ENDBRANCH  23  25
ENDBRANCH  22  23
ENDBRANCH   3  22
ENDBRANCH   2   3
ENDBRANCH   1   2
BRANCH   1  27
ATOM     27  N   LIG    1       25.957 -30.040   8.899  0.00  0.00    -0.287 NA
BRANCH  27  28
ATOM     28  C   LIG    1       25.397 -31.320   8.450  0.00  0.00    +0.205 C 
BRANCH  28  29
ATOM     29  C   LIG    1       23.870 -31.351   8.276  0.00  0.00    +0.319 C 
ATOM     30  O   LIG    1       23.013 -31.219   9.137  0.00  0.00    -0.250 OA
BRANCH  29  31
ATOM     31  O   LIG    1       23.538 -31.768   7.026  0.00  0.00    -0.480 OA
ATOM     32  H   LIG    1       23.530 -30.967   6.465  0.00  0.00    +0.295 HD
ENDBRANCH  29  31
ENDBRANCH  28  29
ENDBRANCH  27  28
BRANCH  27  33
ATOM     33  C   LIG    1       26.870 -30.100  10.053  0.00  0.00    +0.124 C 
BRANCH  33  37
ATOM     34  C   LIG    1       27.350 -25.938  13.442  0.00  0.00    +0.069 C 
ATOM     35  C   LIG    1       26.545 -27.450  12.533  0.00  0.00    +0.080 A 
ATOM     36  C   LIG    1       27.389 -28.895  12.105  0.00  0.00    +0.142 A 
ATOM     37  C   LIG    1       26.508 -29.548  11.409  0.00  0.00    +0.012 A 
ATOM     38  C   LIG    1       25.063 -29.278  11.809  0.00  0.00    +0.034 A 
ATOM     39  C   LIG    1       24.518 -28.201  12.707  0.00  0.00    +0.068 A 
ATOM     40  N   LIG    1       25.268 -27.220  12.835  0.00  0.00    -0.251 NA
BRANCH  36  41
ATOM     41  O   LIG    1       28.894 -28.985  11.566  0.00  0.00    -0.505 OA
ATOM     42  H   LIG    1       29.060 -28.902  10.582  0.00  0.00    +0.292 HD
ENDBRANCH  36  41
BRANCH  39  43
ATOM     43  C   LIG    1       23.125 -27.896  13.573  0.00  0.00    +0.227 C 
BRANCH  43  44
ATOM     44  O   LIG    1       21.968 -26.691  13.705  0.00  0.00    -0.281 OA
BRANCH  44  45
ATOM     45  P   LIG    1       20.282 -27.041  13.697  0.00  0.00    +0.473 P 
ATOM     46  O   LIG    1       19.557 -26.786  14.976  0.00  0.00    -0.228 OA
BRANCH  45  47
ATOM     47  O   LIG    1       19.568 -26.169  12.555  0.00  0.00    -0.303 OA
ATOM     48  H   LIG    1       18.635 -26.020  12.803  0.00  0.00    +0.222 HD
ENDBRANCH  45  47
BRANCH  45  49
ATOM     49  O   LIG    1       19.715 -28.540  13.422  0.00  0.00    -0.303 OA
ATOM     50  H   LIG    1       19.193 -28.743  14.254  0.00  0.00    +0.222 HD
ENDBRANCH  45  49
ENDBRANCH  44  45
ENDBRANCH  43  44
ENDBRANCH  39  43
ENDBRANCH  33  37
ENDBRANCH  27  33
ENDBRANCH   1  27
TORSDOF 25
ENDMDL
MODEL 6
REMARK VINA RESULT:      -8.6      3.614     10.480
REMARK  Name = *****
REMARK                            x       y       z     vdW  Elec       q    Type
REMARK                         _______ _______ _______ _____ _____    ______ ____
ROOT
ATOM      1  C   LIG    1       25.698 -28.551   8.470  0.00  0.00    +0.100 C 
ENDROOT
BRANCH   1   2
ATOM      2  C   LIG    1       26.175 -27.424   7.459  0.00  0.00    +0.100 C 
BRANCH   2   3
ATOM      3  N   LIG    1       25.370 -27.033   6.272  0.00  0.00    -0.287 NA
BRANCH   3   4
ATOM      4  C   LIG    1       25.307 -25.528   5.858  0.00  0.00    +0.124 C 
BRANCH   4   5
ATOM      5  C   LIG    1       24.735 -23.792   6.863  0.00  0.00    +0.012 A 
ATOM      6  C   LIG    1       23.318 -22.763   6.598  0.00  0.00    +0.142 A 
ATOM      7  C   LIG    1       23.528 -21.200   6.093  0.00  0.00    +0.080 A 
ATOM      8  C   LIG    1       22.508 -20.401   5.321  0.00  0.00    +0.069 C 
ATOM      9  N   LIG    1       24.844 -20.647   6.497  0.00  0.00    -0.251 NA
ATOM     10  C   LIG    1       26.174 -21.591   7.115  0.00  0.00    +0.068 A 
ATOM     11  C   LIG    1       26.224 -23.242   7.237  0.00  0.00    +0.034 A 
BRANCH   6  12
ATOM     12  O   LIG    1       21.918 -22.888   5.974  0.00  0.00    -0.505 OA
ATOM     13  H   LIG    1       21.828 -23.117   5.012  0.00  0.00    +0.292 HD
ENDBRANCH   6  12
BRANCH  10  14
ATOM     14  C   LIG    1       26.489 -21.055   8.345  0.00  0.00    +0.227 C 
BRANCH  14  15
ATOM     15  O   LIG    1       27.458 -20.024   8.222  0.00  0.00    -0.281 OA
BRANCH  15  16
ATOM     16  P   LIG    1       28.993 -20.258   7.809  0.00  0.00    +0.473 P 
ATOM     17  O   LIG    1       29.369 -20.161   6.371  0.00  0.00    -0.228 OA
BRANCH  16  18
ATOM     18  O   LIG    1       29.736 -19.167   8.704  0.00  0.00    -0.303 OA
ATOM     19  H   LIG    1       29.622 -18.275   8.345  0.00  0.00    +0.222 HD
ENDBRANCH  16  18
BRANCH  16  20
ATOM     20  O   LIG    1       29.516 -21.590   8.502  0.00  0.00    -0.303 OA
ATOM     21  H   LIG    1       29.595 -22.309   7.849  0.00  0.00    +0.222 HD
ENDBRANCH  16  20
ENDBRANCH  15  16
ENDBRANCH  14  15
ENDBRANCH  10  14
ENDBRANCH   4   5
ENDBRANCH   3   4
BRANCH   3  22
ATOM     22  C   LIG    1       25.469 -27.992   5.156  0.00  0.00    +0.205 C 
BRANCH  22  23
ATOM     23  C   LIG    1       24.630 -29.431   5.369  0.00  0.00    +0.319 C 
ATOM     24  O   LIG    1       25.139 -30.550   5.382  0.00  0.00    -0.250 OA
BRANCH  23  25
ATOM     25  O   LIG    1       23.251 -29.417   5.440  0.00  0.00    -0.480 OA
ATOM     26  H   LIG    1       22.918 -30.223   5.917  0.00  0.00    +0.295 HD
ENDBRANCH  23  25
ENDBRANCH  22  23
ENDBRANCH   3  22
ENDBRANCH   2   3
ENDBRANCH   1   2
BRANCH   1  27
ATOM     27  N   LIG    1       26.611 -29.011   9.538  0.00  0.00    -0.287 NA
BRANCH  27  28
ATOM     28  C   LIG    1       27.045 -30.413   9.531  0.00  0.00    +0.205 C 
BRANCH  28  29
ATOM     29  C   LIG    1       26.231 -31.354   8.628  0.00  0.00    +0.319 C 
ATOM     30  O   LIG    1       25.228 -31.991   8.916  0.00  0.00    -0.250 OA
BRANCH  29  31
ATOM     31  O   LIG    1       26.888 -31.587   7.461  0.00  0.00    -0.480 OA
ATOM     32  H   LIG    1       26.637 -32.490   7.183  0.00  0.00    +0.295 HD
ENDBRANCH  29  31
ENDBRANCH  28  29
ENDBRANCH  27  28
BRANCH  27  33
ATOM     33  C   LIG    1       26.857 -28.263  10.782  0.00  0.00    +0.124 C 
BRANCH  33  37
ATOM     34  C   LIG    1       24.166 -25.612  14.626  0.00  0.00    +0.069 C 
ATOM     35  C   LIG    1       24.575 -26.988  13.321  0.00  0.00    +0.080 A 
ATOM     36  C   LIG    1       26.158 -27.611  13.022  0.00  0.00    +0.142 A 
ATOM     37  C   LIG    1       25.973 -28.387  11.998  0.00  0.00    +0.012 A 
ATOM     38  C   LIG    1       24.588 -29.014  11.924  0.00  0.00    +0.034 A 
ATOM     39  C   LIG    1       23.354 -28.674  12.716  0.00  0.00    +0.068 A 
ATOM     40  N   LIG    1       23.366 -27.534  13.207  0.00  0.00    -0.251 NA
BRANCH  36  41
ATOM     41  O   LIG    1       27.519 -26.767  13.008  0.00  0.00    -0.505 OA
ATOM     42  H   LIG    1       28.084 -26.777  12.182  0.00  0.00    +0.292 HD
ENDBRANCH  36  41
BRANCH  39  43
ATOM     43  C   LIG    1       21.892 -29.381  13.099  0.00  0.00    +0.227 C 
BRANCH  43  44
ATOM     44  O   LIG    1       20.486 -29.855  12.324  0.00  0.00    -0.281 OA
BRANCH  44  45
ATOM     45  P   LIG    1       20.512 -30.803  10.886  0.00  0.00    +0.473 P 
ATOM     46  O   LIG    1       20.443 -32.282  11.078  0.00  0.00    -0.228 OA
BRANCH  45  47
ATOM     47  O   LIG    1       19.277 -30.380   9.953  0.00  0.00    -0.303 OA
ATOM     48  H   LIG    1       18.460 -30.376  10.487  0.00  0.00    +0.222 HD
ENDBRANCH  45  47
BRANCH  45  49
ATOM     49  O   LIG    1       21.773 -30.776   9.861  0.00  0.00    -0.303 OA
ATOM     50  H   LIG    1       21.927 -29.796   9.712  0.00  0.00    +0.222 HD
ENDBRANCH  45  49
ENDBRANCH  44  45
ENDBRANCH  43  44
ENDBRANCH  39  43
ENDBRANCH  33  37
ENDBRANCH  27  33
ENDBRANCH   1  27
TORSDOF 25
ENDMDL
MODEL 7
REMARK VINA RESULT:      -8.5      3.213      4.838
REMARK  Name = *****
REMARK                            x       y       z     vdW  Elec       q    Type
REMARK                         _______ _______ _______ _____ _____    ______ ____
ROOT
ATOM      1  C   LIG    1       24.728 -24.451   6.520  0.00  0.00    +0.100 C 
ENDROOT
BRANCH   1   2
ATOM      2  C   LIG    1       25.859 -25.528   6.241  0.00  0.00    +0.100 C 
BRANCH   2   3
ATOM      3  N   LIG    1       25.701 -26.958   6.617  0.00  0.00    -0.287 NA
BRANCH   3   4
ATOM      4  C   LIG    1       26.325 -27.466   7.956  0.00  0.00    +0.124 C 
BRANCH   4   5
ATOM      5  C   LIG    1       25.927 -29.102   9.189  0.00  0.00    +0.012 A 
ATOM      6  C   LIG    1       24.494 -30.141   9.238  0.00  0.00    +0.142 A 
ATOM      7  C   LIG    1       23.548 -30.162  10.597  0.00  0.00    +0.080 A 
ATOM      8  C   LIG    1       22.084 -30.520  10.620  0.00  0.00    +0.069 C 
ATOM      9  N   LIG    1       24.307 -29.801  11.819  0.00  0.00    -0.251 NA
ATOM     10  C   LIG    1       25.900 -29.092  11.830  0.00  0.00    +0.068 A 
ATOM     11  C   LIG    1       26.761 -28.609  10.500  0.00  0.00    +0.034 A 
BRANCH   6  12
ATOM     12  O   LIG    1       23.342 -30.540   8.301  0.00  0.00    -0.505 OA
ATOM     13  H   LIG    1       22.556 -29.940   8.205  0.00  0.00    +0.292 HD
ENDBRANCH   6  12
BRANCH  10  14
ATOM     14  C   LIG    1       26.693 -29.937  12.576  0.00  0.00    +0.227 C 
BRANCH  14  15
ATOM     15  O   LIG    1       27.438 -29.217  13.548  0.00  0.00    -0.281 OA
BRANCH  15  16
ATOM     16  P   LIG    1       28.958 -29.540  13.956  0.00  0.00    +0.473 P 
ATOM     17  O   LIG    1       29.227 -30.710  14.839  0.00  0.00    -0.228 OA
BRANCH  16  18
ATOM     18  O   LIG    1       29.650 -29.689  12.527  0.00  0.00    -0.303 OA
ATOM     19  H   LIG    1       30.493 -30.162  12.587  0.00  0.00    +0.222 HD
ENDBRANCH  16  18
BRANCH  16  20
ATOM     20  O   LIG    1       29.652 -28.203  14.465  0.00  0.00    -0.303 OA
ATOM     21  H   LIG    1       29.669 -28.174  15.439  0.00  0.00    +0.222 HD
ENDBRANCH  16  20
ENDBRANCH  15  16
ENDBRANCH  14  15
ENDBRANCH  10  14
ENDBRANCH   4   5
ENDBRANCH   3   4
BRANCH   3  22
ATOM     22  C   LIG    1       24.371 -27.506   6.291  0.00  0.00    +0.205 C 
BRANCH  22  23
ATOM     23  C   LIG    1       24.370 -29.053   5.639  0.00  0.00    +0.319 C 
ATOM     24  O   LIG    1       25.347 -29.611   5.143  0.00  0.00    -0.250 OA
BRANCH  23  25
ATOM     25  O   LIG    1       23.186 -29.755   5.542  0.00  0.00    -0.480 OA
ATOM     26  H   LIG    1       23.348 -30.731   5.642  0.00  0.00    +0.295 HD
ENDBRANCH  23  25
ENDBRANCH  22  23
ENDBRANCH   3  22
ENDBRANCH   2   3
ENDBRANCH   1   2
BRANCH   1  27
ATOM     27  N   LIG    1       25.085 -23.019   6.602  0.00  0.00    -0.287 NA
BRANCH  27  28
ATOM     28  C   LIG    1       26.375 -22.653   7.199  0.00  0.00    +0.205 C 
BRANCH  28  29
ATOM     29  C   LIG    1       26.347 -21.444   8.149  0.00  0.00    +0.319 C 
ATOM     30  O   LIG    1       26.896 -20.362   8.005  0.00  0.00    -0.250 OA
BRANCH  29  31
ATOM     31  O   LIG    1       25.783 -21.781   9.339  0.00  0.00    -0.480 OA
ATOM     32  H   LIG    1       24.904 -21.353   9.355  0.00  0.00    +0.295 HD
ENDBRANCH  29  31
ENDBRANCH  28  29
ENDBRANCH  27  28
BRANCH  27  33
ATOM     33  C   LIG    1       24.117 -21.923   6.429  0.00  0.00    +0.124 C 
BRANCH  33  37
ATOM     34  C   LIG    1       21.240 -18.282   3.689  0.00  0.00    +0.069 C 
ATOM     35  C   LIG    1       22.792 -19.246   4.342  0.00  0.00    +0.080 A 
ATOM     36  C   LIG    1       22.846 -20.954   4.591  0.00  0.00    +0.142 A 
ATOM     37  C   LIG    1       24.004 -21.127   5.153  0.00  0.00    +0.012 A 
ATOM     38  C   LIG    1       25.061 -20.110   4.743  0.00  0.00    +0.034 A 
ATOM     39  C   LIG    1       24.888 -18.820   3.988  0.00  0.00    +0.068 A 
ATOM     40  N   LIG    1       23.735 -18.360   4.029  0.00  0.00    -0.251 NA
BRANCH  36  41
ATOM     41  O   LIG    1       21.661 -21.864   5.167  0.00  0.00    -0.505 OA
ATOM     42  H   LIG    1       21.046 -21.476   5.856  0.00  0.00    +0.292 HD
ENDBRANCH  36  41
BRANCH  39  43
ATOM     43  C   LIG    1       25.834 -17.752   3.124  0.00  0.00    +0.227 C 
BRANCH  43  44
ATOM     44  O   LIG    1       27.038 -16.624   3.413  0.00  0.00    -0.281 OA
BRANCH  44  45
ATOM     45  P   LIG    1       26.720 -14.931   3.422  0.00  0.00    +0.473 P 
ATOM     46  O   LIG    1       27.733 -14.080   4.112  0.00  0.00    -0.228 OA
BRANCH  45  47
ATOM     47  O   LIG    1       26.600 -14.410   1.910  0.00  0.00    -0.303 OA
ATOM     48  H   LIG    1       27.283 -13.730   1.751  0.00  0.00    +0.222 HD
ENDBRANCH  45  47
BRANCH  45  49
ATOM     49  O   LIG    1       25.396 -14.309   4.132  0.00  0.00    -0.303 OA
ATOM     50  H   LIG    1       24.968 -15.108   4.560  0.00  0.00    +0.222 HD
ENDBRANCH  45  49
ENDBRANCH  44  45
ENDBRANCH  43  44
ENDBRANCH  39  43
ENDBRANCH  33  37
ENDBRANCH  27  33
ENDBRANCH   1  27
TORSDOF 25
ENDMDL
MODEL 8
REMARK VINA RESULT:      -8.2      4.053     10.560
REMARK  Name = *****
REMARK                            x       y       z     vdW  Elec       q    Type
REMARK                         _______ _______ _______ _____ _____    ______ ____
ROOT
ATOM      1  C   LIG    1       25.079 -29.032   8.397  0.00  0.00    +0.100 C 
ENDROOT
BRANCH   1   2
ATOM      2  C   LIG    1       25.939 -27.853   7.777  0.00  0.00    +0.100 C 
BRANCH   2   3
ATOM      3  N   LIG    1       25.501 -27.102   6.571  0.00  0.00    -0.287 NA
BRANCH   3   4
ATOM      4  C   LIG    1       25.914 -25.604   6.415  0.00  0.00    +0.124 C 
BRANCH   4   5
ATOM      5  C   LIG    1       25.107 -23.817   7.129  0.00  0.00    +0.012 A 
ATOM      6  C   LIG    1       23.510 -23.114   6.827  0.00  0.00    +0.142 A 
ATOM      7  C   LIG    1       23.392 -21.675   6.016  0.00  0.00    +0.080 A 
ATOM      8  C   LIG    1       22.190 -21.232   5.222  0.00  0.00    +0.069 C 
ATOM      9  N   LIG    1       24.610 -20.841   6.164  0.00  0.00    -0.251 NA
ATOM     10  C   LIG    1       26.132 -21.404   6.802  0.00  0.00    +0.068 A 
ATOM     11  C   LIG    1       26.493 -22.963   7.229  0.00  0.00    +0.034 A 
BRANCH   6  12
ATOM     12  O   LIG    1       22.115 -23.594   6.394  0.00  0.00    -0.505 OA
ATOM     13  H   LIG    1       22.028 -24.423   5.852  0.00  0.00    +0.292 HD
ENDBRANCH   6  12
BRANCH  10  14
ATOM     14  C   LIG    1       26.432 -20.582   7.867  0.00  0.00    +0.227 C 
BRANCH  14  15
ATOM     15  O   LIG    1       27.777 -20.757   8.287  0.00  0.00    -0.281 OA
BRANCH  15  16
ATOM     16  P   LIG    1       29.041 -20.008   7.634  0.00  0.00    +0.473 P 
ATOM     17  O   LIG    1       28.861 -19.306   6.332  0.00  0.00    -0.228 OA
BRANCH  16  18
ATOM     18  O   LIG    1       29.465 -19.013   8.805  0.00  0.00    -0.303 OA
ATOM     19  H   LIG    1       28.774 -18.358   8.983  0.00  0.00    +0.222 HD
ENDBRANCH  16  18
BRANCH  16  20
ATOM     20  O   LIG    1       30.287 -20.997   7.642  0.00  0.00    -0.303 OA
ATOM     21  H   LIG    1       31.119 -20.501   7.536  0.00  0.00    +0.222 HD
ENDBRANCH  16  20
ENDBRANCH  15  16
ENDBRANCH  14  15
ENDBRANCH  10  14
ENDBRANCH   4   5
ENDBRANCH   3   4
BRANCH   3  22
ATOM     22  C   LIG    1       25.549 -27.902   5.334  0.00  0.00    +0.205 C 
BRANCH  22  23
ATOM     23  C   LIG    1       24.655 -29.324   5.361  0.00  0.00    +0.319 C 
ATOM     24  O   LIG    1       25.127 -30.456   5.292  0.00  0.00    -0.250 OA
BRANCH  23  25
ATOM     25  O   LIG    1       23.276 -29.266   5.363  0.00  0.00    -0.480 OA
ATOM     26  H   LIG    1       22.914 -29.513   4.470  0.00  0.00    +0.295 HD
ENDBRANCH  23  25
ENDBRANCH  22  23
ENDBRANCH   3  22
ENDBRANCH   2   3
ENDBRANCH   1   2
BRANCH   1  27
ATOM     27  N   LIG    1       25.589 -29.772   9.572  0.00  0.00    -0.287 NA
BRANCH  27  28
ATOM     28  C   LIG    1       27.038 -29.962   9.702  0.00  0.00    +0.205 C 
BRANCH  28  29
ATOM     29  C   LIG    1       27.684 -29.311  10.936  0.00  0.00    +0.319 C 
ATOM     30  O   LIG    1       28.361 -29.847  11.801  0.00  0.00    -0.250 OA
BRANCH  29  31
ATOM     31  O   LIG    1       27.235 -28.038  11.097  0.00  0.00    -0.480 OA
ATOM     32  H   LIG    1       26.360 -28.110  11.527  0.00  0.00    +0.295 HD
ENDBRANCH  29  31
ENDBRANCH  28  29
ENDBRANCH  27  28
BRANCH  27  33
ATOM     33  C   LIG    1       24.744 -30.607  10.443  0.00  0.00    +0.124 C 
BRANCH  33  37
ATOM     34  C   LIG    1       26.202 -28.861  15.328  0.00  0.00    +0.069 C 
ATOM     35  C   LIG    1       25.154 -29.038  13.706  0.00  0.00    +0.080 A 
ATOM     36  C   LIG    1       24.888 -30.527  12.873  0.00  0.00    +0.142 A 
ATOM     37  C   LIG    1       24.266 -30.148  11.798  0.00  0.00    +0.012 A 
ATOM     38  C   LIG    1       23.416 -28.896  11.969  0.00  0.00    +0.034 A 
ATOM     39  C   LIG    1       23.392 -27.921  13.114  0.00  0.00    +0.068 A 
ATOM     40  N   LIG    1       24.421 -27.930  13.809  0.00  0.00    -0.251 NA
BRANCH  36  41
ATOM     41  O   LIG    1       25.957 -31.701  12.670  0.00  0.00    -0.505 OA
ATOM     42  H   LIG    1       26.881 -31.582  13.039  0.00  0.00    +0.292 HD
ENDBRANCH  36  41
BRANCH  39  43
ATOM     43  C   LIG    1       22.377 -26.744  13.720  0.00  0.00    +0.227 C 
BRANCH  43  44
ATOM     44  O   LIG    1       21.054 -26.631  14.741  0.00  0.00    -0.281 OA
BRANCH  44  45
ATOM     45  P   LIG    1       19.460 -27.013  14.214  0.00  0.00    +0.473 P 
ATOM     46  O   LIG    1       18.383 -26.875  15.239  0.00  0.00    -0.228 OA
BRANCH  45  47
ATOM     47  O   LIG    1       19.073 -26.067  12.977  0.00  0.00    -0.303 OA
ATOM     48  H   LIG    1       18.758 -26.622  12.238  0.00  0.00    +0.222 HD
ENDBRANCH  45  47
BRANCH  45  49
ATOM     49  O   LIG    1       19.062 -28.496  13.681  0.00  0.00    -0.303 OA
ATOM     50  H   LIG    1       19.115 -29.060  14.509  0.00  0.00    +0.222 HD
ENDBRANCH  45  49
ENDBRANCH  44  45
ENDBRANCH  43  44
ENDBRANCH  39  43
ENDBRANCH  33  37
ENDBRANCH  27  33
ENDBRANCH   1  27
TORSDOF 25
ENDMDL
MODEL 9
REMARK VINA RESULT:      -8.2      2.468      3.448
REMARK  Name = *****
REMARK                            x       y       z     vdW  Elec       q    Type
REMARK                         _______ _______ _______ _____ _____    ______ ____
ROOT
ATOM      1  C   LIG    1       23.321 -23.817   6.897  0.00  0.00    +0.100 C 
ENDROOT
BRANCH   1   2
ATOM      2  C   LIG    1       23.908 -24.970   5.980  0.00  0.00    +0.100 C 
BRANCH   2   3
ATOM      3  N   LIG    1       24.722 -26.085   6.532  0.00  0.00    -0.287 NA
BRANCH   3   4
ATOM      4  C   LIG    1       24.151 -27.538   6.488  0.00  0.00    +0.124 C 
BRANCH   4   5
ATOM      5  C   LIG    1       24.958 -29.406   6.947  0.00  0.00    +0.012 A 
ATOM      6  C   LIG    1       24.306 -31.018   6.610  0.00  0.00    +0.142 A 
ATOM      7  C   LIG    1       23.885 -32.007   7.870  0.00  0.00    +0.080 A 
ATOM      8  C   LIG    1       22.859 -33.109   7.792  0.00  0.00    +0.069 C 
ATOM      9  N   LIG    1       24.647 -31.703   9.106  0.00  0.00    -0.251 NA
ATOM     10  C   LIG    1       25.613 -30.273   9.355  0.00  0.00    +0.068 A 
ATOM     11  C   LIG    1       25.740 -28.989   8.316  0.00  0.00    +0.034 A 
BRANCH   6  12
ATOM     12  O   LIG    1       23.312 -31.665   5.632  0.00  0.00    -0.505 OA
ATOM     13  H   LIG    1       22.337 -31.508   5.747  0.00  0.00    +0.292 HD
ENDBRANCH   6  12
BRANCH  10  14
ATOM     14  C   LIG    1       26.883 -30.713   9.658  0.00  0.00    +0.227 C 
BRANCH  14  15
ATOM     15  O   LIG    1       27.701 -29.644  10.113  0.00  0.00    -0.281 OA
BRANCH  15  16
ATOM     16  P   LIG    1       27.960 -29.288  11.659  0.00  0.00    +0.473 P 
ATOM     17  O   LIG    1       27.391 -30.185  12.704  0.00  0.00    -0.228 OA
BRANCH  16  18
ATOM     18  O   LIG    1       29.553 -29.230  11.712  0.00  0.00    -0.303 OA
ATOM     19  H   LIG    1       29.915 -29.918  12.291  0.00  0.00    +0.222 HD
ENDBRANCH  16  18
BRANCH  16  20
ATOM     20  O   LIG    1       27.617 -27.754  11.900  0.00  0.00    -0.303 OA
ATOM     21  H   LIG    1       28.031 -27.198  11.216  0.00  0.00    +0.222 HD
ENDBRANCH  16  20
ENDBRANCH  15  16
ENDBRANCH  14  15
ENDBRANCH  10  14
ENDBRANCH   4   5
ENDBRANCH   3   4
BRANCH   3  22
ATOM     22  C   LIG    1       26.161 -25.962   6.236  0.00  0.00    +0.205 C 
BRANCH  22  23
ATOM     23  C   LIG    1       26.670 -26.706   4.819  0.00  0.00    +0.319 C 
ATOM     24  O   LIG    1       26.011 -26.782   3.785  0.00  0.00    -0.250 OA
BRANCH  23  25
ATOM     25  O   LIG    1       27.872 -27.384   4.795  0.00  0.00    -0.480 OA
ATOM     26  H   LIG    1       28.214 -27.524   5.718  0.00  0.00    +0.295 HD
ENDBRANCH  23  25
ENDBRANCH  22  23
ENDBRANCH   3  22
ENDBRANCH   2   3
ENDBRANCH   1   2
BRANCH   1  27
ATOM     27  N   LIG    1       24.018 -22.515   6.974  0.00  0.00    -0.287 NA
BRANCH  27  28
ATOM     28  C   LIG    1       23.212 -21.298   7.125  0.00  0.00    +0.205 C 
BRANCH  28  29
ATOM     29  C   LIG    1       22.668 -20.698   5.818  0.00  0.00    +0.319 C 
ATOM     30  O   LIG    1       22.616 -19.520   5.496  0.00  0.00    -0.250 OA
BRANCH  29  31
ATOM     31  O   LIG    1       22.021 -21.644   5.088  0.00  0.00    -0.480 OA
ATOM     32  H   LIG    1       22.213 -21.444   4.151  0.00  0.00    +0.295 HD
ENDBRANCH  29  31
ENDBRANCH  28  29
ENDBRANCH  27  28
BRANCH  27  33
ATOM     33  C   LIG    1       25.426 -22.317   6.588  0.00  0.00    +0.124 C 
BRANCH  33  37
ATOM     34  C   LIG    1       30.066 -19.674   7.310  0.00  0.00    +0.069 C 
ATOM     35  C   LIG    1       28.314 -20.095   6.593  0.00  0.00    +0.080 A 
ATOM     36  C   LIG    1       26.999 -20.712   7.527  0.00  0.00    +0.142 A 
ATOM     37  C   LIG    1       26.100 -20.968   6.625  0.00  0.00    +0.012 A 
ATOM     38  C   LIG    1       26.161 -20.066   5.400  0.00  0.00    +0.034 A 
ATOM     39  C   LIG    1       27.243 -19.105   4.988  0.00  0.00    +0.068 A 
ATOM     40  N   LIG    1       28.352 -19.344   5.494  0.00  0.00    -0.251 NA
BRANCH  36  41
ATOM     41  O   LIG    1       27.102 -21.779   8.716  0.00  0.00    -0.505 OA
ATOM     42  H   LIG    1       27.578 -21.520   9.558  0.00  0.00    +0.292 HD
ENDBRANCH  36  41
BRANCH  39  43
ATOM     43  C   LIG    1       27.418 -17.795   3.970  0.00  0.00    +0.227 C 
BRANCH  43  44
ATOM     44  O   LIG    1       26.447 -16.688   3.172  0.00  0.00    -0.281 OA
BRANCH  44  45
ATOM     45  P   LIG    1       26.654 -14.989   3.362  0.00  0.00    +0.473 P 
ATOM     46  O   LIG    1       27.891 -14.558   4.076  0.00  0.00    -0.228 OA
BRANCH  45  47
ATOM     47  O   LIG    1       26.663 -14.294   1.916  0.00  0.00    -0.303 OA
ATOM     48  H   LIG    1       27.420 -13.680   1.862  0.00  0.00    +0.222 HD
ENDBRANCH  45  47
BRANCH  45  49
ATOM     49  O   LIG    1       25.595 -14.082   4.198  0.00  0.00    -0.303 OA
ATOM     50  H   LIG    1       25.504 -13.257   3.634  0.00  0.00    +0.222 HD
ENDBRANCH  45  49
ENDBRANCH  44  45
ENDBRANCH  43  44
ENDBRANCH  39  43
ENDBRANCH  33  37
ENDBRANCH  27  33
ENDBRANCH   1  27
TORSDOF 25
ENDMDL
