MODEL 1
REMARK VINA RESULT:     -10.2      0.000      0.000
REMARK  Name = *****
REMARK                            x       y       z     vdW  Elec       q    Type
REMARK                         _______ _______ _______ _____ _____    ______ ____
ROOT
ATOM      1  C   LIG    1       25.831 -29.458   7.984  0.00  0.00    +0.028 C 
ATOM      2  N   LIG    1       25.622 -29.365   6.599  0.00  0.00    -0.341 NA
ATOM      3  C   LIG    1       25.549 -28.022   6.215  0.00  0.00    +0.052 C 
ATOM      4  C   LIG    1       25.856 -27.255   7.324  0.00  0.00    +0.002 C 
ATOM      5  C   LIG    1       25.930 -25.848   7.212  0.00  0.00    +0.036 C 
ATOM      6  C   LIG    1       25.634 -25.210   6.005  0.00  0.00    +0.070 C 
ATOM      7  C   LIG    1       25.292 -26.005   4.908  0.00  0.00    +0.146 C 
ATOM      8  F   LIG    1       24.980 -25.415   3.742  0.00  0.00    -0.203 F 
ATOM      9  C   LIG    1       25.256 -27.408   4.975  0.00  0.00    +0.066 C 
ATOM     10  C   LIG    1       26.014 -28.145   8.409  0.00  0.00    +0.032 C 
ENDROOT
BRANCH   6  11
ATOM     11  N   LIG    1       25.643 -23.794   5.851  0.00  0.00    -0.282 N 
ATOM     12  H   LIG    1       25.547 -23.454   4.901  0.00  0.00    +0.155 HD
ATOM     13  C   LIG    1       25.769 -22.857   6.864  0.00  0.00    +0.228 C 
ATOM     14  O   LIG    1       25.912 -23.080   8.061  0.00  0.00    -0.275 OA
BRANCH  13  15
ATOM     15  C   LIG    1       25.733 -21.403   6.417  0.00  0.00    +0.072 C 
ATOM     16  C   LIG    1       24.775 -21.010   5.293  0.00  0.00    +0.022 C 
ATOM     17  C   LIG    1       24.395 -20.699   6.704  0.00  0.00    +0.022 C 
BRANCH  15  18
ATOM     18  C   LIG    1       27.050 -20.595   6.549  0.00  0.00    -0.029 C 
ATOM     19  C   LIG    1       27.740 -20.451   7.774  0.00  0.00    +0.054 C 
ATOM     20  C   LIG    1       28.878 -19.670   7.837  0.00  0.00    +0.173 C 
ATOM     21  O   LIG    1       29.606 -19.427   8.961  0.00  0.00    -0.395 OA
ATOM     22  C   LIG    1       30.583 -18.521   8.427  0.00  0.00    +0.589 C 
ATOM     23  O   LIG    1       30.498 -18.308   7.012  0.00  0.00    -0.396 OA
ATOM     24  F   LIG    1       31.818 -18.992   8.724  0.00  0.00    -0.125 F 
ATOM     25  F   LIG    1       30.441 -17.325   9.052  0.00  0.00    -0.125 F 
ATOM     26  C   LIG    1       29.386 -19.037   6.732  0.00  0.00    +0.173 C 
ATOM     27  C   LIG    1       28.784 -19.161   5.504  0.00  0.00    +0.050 C 
ATOM     28  C   LIG    1       27.617 -19.935   5.422  0.00  0.00    +0.008 C 
ENDBRANCH  15  18
ENDBRANCH  13  15
ENDBRANCH   6  11
BRANCH   1  30
ATOM     29  C   LIG    1       26.417 -30.346  10.298  0.00  0.00    +0.019 C 
ATOM     30  C   LIG    1       25.833 -30.713   8.902  0.00  0.00    +0.028 C 
ATOM     31  C   LIG    1       26.700 -31.869   8.383  0.00  0.00    +0.019 C 
BRANCH  30  32
ATOM     32  C   LIG    1       24.383 -31.233   9.115  0.00  0.00    +0.168 C 
BRANCH  32  33
ATOM     33  O   LIG    1       23.421 -30.273   8.666  0.00  0.00    -0.394 OA
ATOM     34  H   LIG    1       23.277 -30.424   7.717  0.00  0.00    +0.209 HD
ENDBRANCH  32  33
ENDBRANCH  30  32
ENDBRANCH   1  30
BRANCH   2  35
ATOM     35  C   LIG    1       25.607 -30.428   5.600  0.00  0.00    +0.155 C 
BRANCH  35  36
ATOM     36  C   LIG    1       24.505 -31.471   5.804  0.00  0.00    +0.159 C 
BRANCH  36  37
ATOM     37  O   LIG    1       23.206 -30.885   5.626  0.00  0.00    -0.388 OA
ATOM     38  H   LIG    1       22.612 -31.646   5.466  0.00  0.00    +0.210 HD
ENDBRANCH  36  37
BRANCH  36  39
ATOM     39  C   LIG    1       24.610 -32.606   4.779  0.00  0.00    +0.188 C 
BRANCH  39  40
ATOM     40  O   LIG    1       25.193 -32.067   3.588  0.00  0.00    -0.392 OA
ATOM     41  H   LIG    1       25.089 -31.100   3.628  0.00  0.00    +0.209 HD
ENDBRANCH  39  40
ENDBRANCH  36  39
ENDBRANCH  35  36
ENDBRANCH   2  35
TORSDOF 11
ENDMDL
MODEL 2
REMARK VINA RESULT:     -10.0      0.991      1.547
REMARK  Name = *****
REMARK                            x       y       z     vdW  Elec       q    Type
REMARK                         _______ _______ _______ _____ _____    ______ ____
ROOT
ATOM      1  C   LIG    1       25.747 -29.686   8.066  0.00  0.00    +0.028 C 
ATOM      2  N   LIG    1       25.607 -29.621   6.670  0.00  0.00    -0.341 NA
ATOM      3  C   LIG    1       25.519 -28.287   6.260  0.00  0.00    +0.052 C 
ATOM      4  C   LIG    1       25.749 -27.494   7.370  0.00  0.00    +0.002 C 
ATOM      5  C   LIG    1       25.792 -26.088   7.237  0.00  0.00    +0.036 C 
ATOM      6  C   LIG    1       25.542 -25.477   6.006  0.00  0.00    +0.070 C 
ATOM      7  C   LIG    1       25.277 -26.299   4.907  0.00  0.00    +0.146 C 
ATOM      8  F   LIG    1       25.010 -25.736   3.716  0.00  0.00    -0.203 F 
ATOM      9  C   LIG    1       25.274 -27.701   4.996  0.00  0.00    +0.066 C 
ATOM     10  C   LIG    1       25.874 -28.361   8.477  0.00  0.00    +0.032 C 
ENDROOT
BRANCH   6  11
ATOM     11  N   LIG    1       25.522 -24.064   5.828  0.00  0.00    -0.282 N 
ATOM     12  H   LIG    1       26.387 -23.648   5.504  0.00  0.00    +0.155 HD
ATOM     13  C   LIG    1       24.444 -23.222   6.053  0.00  0.00    +0.228 C 
ATOM     14  O   LIG    1       23.332 -23.541   6.459  0.00  0.00    -0.275 OA
BRANCH  13  15
ATOM     15  C   LIG    1       24.696 -21.749   5.767  0.00  0.00    +0.072 C 
ATOM     16  C   LIG    1       24.343 -21.204   4.384  0.00  0.00    +0.022 C 
ATOM     17  C   LIG    1       23.412 -20.936   5.522  0.00  0.00    +0.022 C 
BRANCH  15  18
ATOM     18  C   LIG    1       25.877 -21.080   6.519  0.00  0.00    -0.029 C 
ATOM     19  C   LIG    1       27.017 -20.574   5.856  0.00  0.00    +0.054 C 
ATOM     20  C   LIG    1       28.061 -20.042   6.588  0.00  0.00    +0.173 C 
ATOM     21  O   LIG    1       29.222 -19.558   6.068  0.00  0.00    -0.395 OA
ATOM     22  C   LIG    1       29.916 -19.233   7.282  0.00  0.00    +0.589 C 
ATOM     23  O   LIG    1       29.155 -19.427   8.481  0.00  0.00    -0.396 OA
ATOM     24  F   LIG    1       30.312 -17.938   7.220  0.00  0.00    -0.125 F 
ATOM     25  F   LIG    1       31.034 -19.999   7.353  0.00  0.00    -0.125 F 
ATOM     26  C   LIG    1       28.023 -19.965   7.956  0.00  0.00    +0.173 C 
ATOM     27  C   LIG    1       26.931 -20.408   8.662  0.00  0.00    +0.050 C 
ATOM     28  C   LIG    1       25.868 -20.968   7.938  0.00  0.00    +0.008 C 
ENDBRANCH  15  18
ENDBRANCH  13  15
ENDBRANCH   6  11
BRANCH   1  30
ATOM     29  C   LIG    1       26.111 -30.496  10.453  0.00  0.00    +0.019 C 
ATOM     30  C   LIG    1       25.735 -30.925   9.004  0.00  0.00    +0.028 C 
ATOM     31  C   LIG    1       26.747 -32.014   8.620  0.00  0.00    +0.019 C 
BRANCH  30  32
ATOM     32  C   LIG    1       24.315 -31.558   9.051  0.00  0.00    +0.168 C 
BRANCH  32  33
ATOM     33  O   LIG    1       23.315 -30.607   8.670  0.00  0.00    -0.394 OA
ATOM     34  H   LIG    1       23.653 -30.120   7.900  0.00  0.00    +0.209 HD
ENDBRANCH  32  33
ENDBRANCH  30  32
ENDBRANCH   1  30
BRANCH   2  35
ATOM     35  C   LIG    1       25.671 -30.700   5.690  0.00  0.00    +0.155 C 
BRANCH  35  36
ATOM     36  C   LIG    1       24.523 -31.708   5.786  0.00  0.00    +0.159 C 
BRANCH  36  37
ATOM     37  O   LIG    1       23.255 -31.058   5.617  0.00  0.00    -0.388 OA
ATOM     38  H   LIG    1       23.183 -30.907   4.652  0.00  0.00    +0.210 HD
ENDBRANCH  36  37
BRANCH  36  39
ATOM     39  C   LIG    1       24.616 -32.770   4.684  0.00  0.00    +0.188 C 
BRANCH  39  40
ATOM     40  O   LIG    1       25.222 -32.159   3.539  0.00  0.00    -0.392 OA
ATOM     41  H   LIG    1       24.966 -31.220   3.544  0.00  0.00    +0.209 HD
ENDBRANCH  39  40
ENDBRANCH  36  39
ENDBRANCH  35  36
ENDBRANCH   2  35
TORSDOF 11
ENDMDL
MODEL 3
REMARK VINA RESULT:      -9.0      1.479      2.938
REMARK  Name = *****
REMARK                            x       y       z     vdW  Elec       q    Type
REMARK                         _______ _______ _______ _____ _____    ______ ____
ROOT
ATOM      1  C   LIG    1       25.405 -30.150   5.491  0.00  0.00    +0.028 C 
ATOM      2  N   LIG    1       25.549 -29.552   6.753  0.00  0.00    -0.341 NA
ATOM      3  C   LIG    1       25.574 -28.160   6.622  0.00  0.00    +0.052 C 
ATOM      4  C   LIG    1       25.299 -27.861   5.300  0.00  0.00    +0.002 C 
ATOM      5  C   LIG    1       25.188 -26.513   4.889  0.00  0.00    +0.036 C 
ATOM      6  C   LIG    1       25.414 -25.469   5.789  0.00  0.00    +0.070 C 
ATOM      7  C   LIG    1       25.726 -25.797   7.111  0.00  0.00    +0.146 C 
ATOM      8  F   LIG    1       25.972 -24.812   7.991  0.00  0.00    -0.203 F 
ATOM      9  C   LIG    1       25.797 -27.125   7.562  0.00  0.00    +0.066 C 
ATOM     10  C   LIG    1       25.210 -29.089   4.610  0.00  0.00    +0.032 C 
ENDROOT
BRANCH   6  11
ATOM     11  N   LIG    1       25.366 -24.095   5.415  0.00  0.00    -0.282 N 
ATOM     12  H   LIG    1       26.052 -23.801   4.730  0.00  0.00    +0.155 HD
ATOM     13  C   LIG    1       24.483 -23.142   5.897  0.00  0.00    +0.228 C 
ATOM     14  O   LIG    1       23.604 -23.309   6.736  0.00  0.00    -0.275 OA
BRANCH  13  15
ATOM     15  C   LIG    1       24.646 -21.746   5.313  0.00  0.00    +0.072 C 
ATOM     16  C   LIG    1       23.971 -21.430   3.980  0.00  0.00    +0.022 C 
ATOM     17  C   LIG    1       23.333 -20.946   5.241  0.00  0.00    +0.022 C 
BRANCH  15  18
ATOM     18  C   LIG    1       25.965 -20.999   5.642  0.00  0.00    -0.029 C 
ATOM     19  C   LIG    1       26.710 -21.243   6.817  0.00  0.00    +0.054 C 
ATOM     20  C   LIG    1       27.847 -20.503   7.080  0.00  0.00    +0.173 C 
ATOM     21  O   LIG    1       28.625 -20.620   8.190  0.00  0.00    -0.395 OA
ATOM     22  C   LIG    1       29.572 -19.571   7.936  0.00  0.00    +0.589 C 
ATOM     23  O   LIG    1       29.420 -18.916   6.670  0.00  0.00    -0.396 OA
ATOM     24  F   LIG    1       30.822 -20.089   8.012  0.00  0.00    -0.125 F 
ATOM     25  F   LIG    1       29.454 -18.643   8.919  0.00  0.00    -0.125 F 
ATOM     26  C   LIG    1       28.300 -19.538   6.218  0.00  0.00    +0.173 C 
ATOM     27  C   LIG    1       27.642 -19.271   5.042  0.00  0.00    +0.050 C 
ATOM     28  C   LIG    1       26.476 -20.000   4.765  0.00  0.00    +0.008 C 
ENDBRANCH  15  18
ENDBRANCH  13  15
ENDBRANCH   6  11
BRANCH   1  30
ATOM     29  C   LIG    1       26.667 -32.337   5.821  0.00  0.00    +0.019 C 
ATOM     30  C   LIG    1       25.473 -31.651   5.094  0.00  0.00    +0.028 C 
ATOM     31  C   LIG    1       25.706 -31.895   3.597  0.00  0.00    +0.019 C 
BRANCH  30  32
ATOM     32  C   LIG    1       24.171 -32.387   5.523  0.00  0.00    +0.168 C 
BRANCH  32  33
ATOM     33  O   LIG    1       23.117 -31.454   5.784  0.00  0.00    -0.394 OA
ATOM     34  H   LIG    1       22.865 -31.051   4.937  0.00  0.00    +0.209 HD
ENDBRANCH  32  33
ENDBRANCH  30  32
ENDBRANCH   1  30
BRANCH   2  35
ATOM     35  C   LIG    1       25.545 -30.178   8.071  0.00  0.00    +0.155 C 
BRANCH  35  36
ATOM     36  C   LIG    1       24.243 -29.991   8.853  0.00  0.00    +0.159 C 
BRANCH  36  37
ATOM     37  O   LIG    1       23.315 -31.047   8.562  0.00  0.00    -0.388 OA
ATOM     38  H   LIG    1       23.875 -31.839   8.434  0.00  0.00    +0.210 HD
ENDBRANCH  36  37
BRANCH  36  39
ATOM     39  C   LIG    1       24.487 -30.036  10.366  0.00  0.00    +0.188 C 
BRANCH  39  40
ATOM     40  O   LIG    1       25.590 -29.170  10.657  0.00  0.00    -0.392 OA
ATOM     41  H   LIG    1       25.392 -28.725  11.501  0.00  0.00    +0.209 HD
ENDBRANCH  39  40
ENDBRANCH  36  39
ENDBRANCH  35  36
ENDBRANCH   2  35
TORSDOF 11
ENDMDL
MODEL 4
REMARK VINA RESULT:      -8.6      3.613      4.295
REMARK  Name = *****
REMARK                            x       y       z     vdW  Elec       q    Type
REMARK                         _______ _______ _______ _____ _____    ______ ____
ROOT
ATOM      1  C   LIG    1       25.117 -30.933   8.038  0.00  0.00    +0.028 C 
ATOM      2  N   LIG    1       24.832 -30.552   6.717  0.00  0.00    -0.341 NA
ATOM      3  C   LIG    1       24.990 -29.170   6.573  0.00  0.00    +0.052 C 
ATOM      4  C   LIG    1       25.516 -28.685   7.757  0.00  0.00    +0.002 C 
ATOM      5  C   LIG    1       25.849 -27.317   7.874  0.00  0.00    +0.036 C 
ATOM      6  C   LIG    1       25.596 -26.427   6.828  0.00  0.00    +0.070 C 
ATOM      7  C   LIG    1       25.031 -26.934   5.655  0.00  0.00    +0.146 C 
ATOM      8  F   LIG    1       24.755 -26.095   4.642  0.00  0.00    -0.203 F 
ATOM      9  C   LIG    1       24.732 -28.297   5.490  0.00  0.00    +0.066 C 
ATOM     10  C   LIG    1       25.578 -29.772   8.656  0.00  0.00    +0.032 C 
ENDROOT
BRANCH   6  11
ATOM     11  N   LIG    1       25.864 -25.030   6.913  0.00  0.00    -0.282 N 
ATOM     12  H   LIG    1       26.842 -24.772   6.981  0.00  0.00    +0.155 HD
ATOM     13  C   LIG    1       24.925 -24.010   6.911  0.00  0.00    +0.228 C 
ATOM     14  O   LIG    1       23.706 -24.131   6.854  0.00  0.00    -0.275 OA
BRANCH  13  15
ATOM     15  C   LIG    1       25.491 -22.601   6.999  0.00  0.00    +0.072 C 
ATOM     16  C   LIG    1       26.011 -22.107   8.348  0.00  0.00    +0.022 C 
ATOM     17  C   LIG    1       26.996 -22.555   7.318  0.00  0.00    +0.022 C 
BRANCH  15  18
ATOM     18  C   LIG    1       24.896 -21.544   6.032  0.00  0.00    -0.029 C 
ATOM     19  C   LIG    1       23.790 -20.733   6.372  0.00  0.00    +0.054 C 
ATOM     20  C   LIG    1       23.270 -19.850   5.445  0.00  0.00    +0.173 C 
ATOM     21  O   LIG    1       22.191 -19.045   5.642  0.00  0.00    -0.395 OA
ATOM     22  C   LIG    1       22.094 -18.445   4.341  0.00  0.00    +0.589 C 
ATOM     23  O   LIG    1       23.141 -18.809   3.431  0.00  0.00    -0.396 OA
ATOM     24  F   LIG    1       22.090 -17.098   4.486  0.00  0.00    -0.125 F 
ATOM     25  F   LIG    1       20.905 -18.801   3.795  0.00  0.00    -0.125 F 
ATOM     26  C   LIG    1       23.810 -19.714   4.192  0.00  0.00    +0.173 C 
ATOM     27  C   LIG    1       24.905 -20.447   3.807  0.00  0.00    +0.050 C 
ATOM     28  C   LIG    1       25.437 -21.362   4.728  0.00  0.00    +0.008 C 
ENDBRANCH  15  18
ENDBRANCH  13  15
ENDBRANCH   6  11
BRANCH   1  30
ATOM     29  C   LIG    1       25.349 -32.212  10.229  0.00  0.00    +0.019 C 
ATOM     30  C   LIG    1       24.945 -32.315   8.728  0.00  0.00    +0.028 C 
ATOM     31  C   LIG    1       25.826 -33.425   8.139  0.00  0.00    +0.019 C 
BRANCH  30  32
ATOM     32  C   LIG    1       23.459 -32.772   8.667  0.00  0.00    +0.168 C 
BRANCH  32  33
ATOM     33  O   LIG    1       22.573 -31.664   8.857  0.00  0.00    -0.394 OA
ATOM     34  H   LIG    1       21.749 -32.010   9.240  0.00  0.00    +0.209 HD
ENDBRANCH  32  33
ENDBRANCH  30  32
ENDBRANCH   1  30
BRANCH   2  35
ATOM     35  C   LIG    1       24.543 -31.395   5.562  0.00  0.00    +0.155 C 
BRANCH  35  36
ATOM     36  C   LIG    1       25.772 -31.767   4.729  0.00  0.00    +0.159 C 
BRANCH  36  37
ATOM     37  O   LIG    1       26.942 -31.859   5.555  0.00  0.00    -0.388 OA
ATOM     38  H   LIG    1       26.655 -32.382   6.331  0.00  0.00    +0.210 HD
ENDBRANCH  36  37
BRANCH  36  39
ATOM     39  C   LIG    1       25.604 -33.138   4.063  0.00  0.00    +0.188 C 
BRANCH  39  40
ATOM     40  O   LIG    1       24.541 -33.034   3.109  0.00  0.00    -0.392 OA
ATOM     41  H   LIG    1       23.720 -32.878   3.608  0.00  0.00    +0.209 HD
ENDBRANCH  39  40
ENDBRANCH  36  39
ENDBRANCH  35  36
ENDBRANCH   2  35
TORSDOF 11
ENDMDL
MODEL 5
REMARK VINA RESULT:      -8.2      3.516     10.378
REMARK  Name = *****
REMARK                            x       y       z     vdW  Elec       q    Type
REMARK                         _______ _______ _______ _____ _____    ______ ____
ROOT
ATOM      1  C   LIG    1       25.907 -22.540   6.786  0.00  0.00    +0.028 C 
ATOM      2  N   LIG    1       25.056 -23.126   5.835  0.00  0.00    -0.341 NA
ATOM      3  C   LIG    1       25.136 -24.520   5.918  0.00  0.00    +0.052 C 
ATOM      4  C   LIG    1       25.921 -24.828   7.014  0.00  0.00    +0.002 C 
ATOM      5  C   LIG    1       26.118 -26.178   7.385  0.00  0.00    +0.036 C 
ATOM      6  C   LIG    1       25.579 -27.216   6.622  0.00  0.00    +0.070 C 
ATOM      7  C   LIG    1       24.820 -26.880   5.498  0.00  0.00    +0.146 C 
ATOM      8  F   LIG    1       24.310 -27.860   4.733  0.00  0.00    -0.203 F 
ATOM      9  C   LIG    1       24.566 -25.548   5.130  0.00  0.00    +0.066 C 
ATOM     10  C   LIG    1       26.401 -23.606   7.533  0.00  0.00    +0.032 C 
ENDROOT
BRANCH   6  11
ATOM     11  N   LIG    1       25.790 -28.592   6.921  0.00  0.00    -0.282 N 
ATOM     12  H   LIG    1       26.720 -28.948   6.729  0.00  0.00    +0.155 HD
ATOM     13  C   LIG    1       24.855 -29.474   7.441  0.00  0.00    +0.228 C 
ATOM     14  O   LIG    1       23.686 -29.229   7.717  0.00  0.00    -0.275 OA
BRANCH  13  15
ATOM     15  C   LIG    1       25.355 -30.892   7.678  0.00  0.00    +0.072 C 
ATOM     16  C   LIG    1       25.884 -31.256   9.064  0.00  0.00    +0.022 C 
ATOM     17  C   LIG    1       24.506 -31.689   8.683  0.00  0.00    +0.022 C 
BRANCH  15  18
ATOM     18  C   LIG    1       25.971 -31.630   6.461  0.00  0.00    -0.029 C 
ATOM     19  C   LIG    1       25.626 -31.324   5.125  0.00  0.00    +0.054 C 
ATOM     20  C   LIG    1       26.166 -32.058   4.087  0.00  0.00    +0.173 C 
ATOM     21  O   LIG    1       25.886 -31.883   2.767  0.00  0.00    -0.395 OA
ATOM     22  C   LIG    1       26.661 -32.953   2.209  0.00  0.00    +0.589 C 
ATOM     23  O   LIG    1       27.455 -33.681   3.156  0.00  0.00    -0.396 OA
ATOM     24  F   LIG    1       27.478 -32.443   1.255  0.00  0.00    -0.125 F 
ATOM     25  F   LIG    1       25.815 -33.821   1.599  0.00  0.00    -0.125 F 
ATOM     26  C   LIG    1       27.058 -33.076   4.306  0.00  0.00    +0.173 C 
ATOM     27  C   LIG    1       27.462 -33.405   5.577  0.00  0.00    +0.050 C 
ATOM     28  C   LIG    1       26.911 -32.683   6.646  0.00  0.00    +0.008 C 
ENDBRANCH  15  18
ENDBRANCH  13  15
ENDBRANCH   6  11
BRANCH   1  30
ATOM     29  C   LIG    1       27.770 -20.928   7.431  0.00  0.00    +0.019 C 
ATOM     30  C   LIG    1       26.282 -21.045   6.989  0.00  0.00    +0.028 C 
ATOM     31  C   LIG    1       25.469 -20.337   8.083  0.00  0.00    +0.019 C 
BRANCH  30  32
ATOM     32  C   LIG    1       26.119 -20.258   5.658  0.00  0.00    +0.168 C 
BRANCH  32  33
ATOM     33  O   LIG    1       27.351 -20.218   4.930  0.00  0.00    -0.394 OA
ATOM     34  H   LIG    1       27.603 -19.285   4.830  0.00  0.00    +0.209 HD
ENDBRANCH  32  33
ENDBRANCH  30  32
ENDBRANCH   1  30
BRANCH   2  35
ATOM     35  C   LIG    1       24.094 -22.485   4.946  0.00  0.00    +0.155 C 
BRANCH  35  36
ATOM     36  C   LIG    1       22.978 -21.726   5.666  0.00  0.00    +0.159 C 
BRANCH  36  37
ATOM     37  O   LIG    1       21.793 -21.669   4.857  0.00  0.00    -0.388 OA
ATOM     38  H   LIG    1       21.069 -21.932   5.462  0.00  0.00    +0.210 HD
ENDBRANCH  36  37
BRANCH  36  39
ATOM     39  C   LIG    1       22.577 -22.423   6.971  0.00  0.00    +0.188 C 
BRANCH  39  40
ATOM     40  O   LIG    1       21.995 -23.686   6.631  0.00  0.00    -0.392 OA
ATOM     41  H   LIG    1       22.327 -24.339   7.274  0.00  0.00    +0.209 HD
ENDBRANCH  39  40
ENDBRANCH  36  39
ENDBRANCH  35  36
ENDBRANCH   2  35
TORSDOF 11
ENDMDL
MODEL 6
REMARK VINA RESULT:      -8.1      3.577      9.948
REMARK  Name = *****
REMARK                            x       y       z     vdW  Elec       q    Type
REMARK                         _______ _______ _______ _____ _____    ______ ____
ROOT
ATOM      1  C   LIG    1       26.015 -22.622   6.773  0.00  0.00    +0.028 C 
ATOM      2  N   LIG    1       25.169 -23.107   5.763  0.00  0.00    -0.341 NA
ATOM      3  C   LIG    1       25.195 -24.505   5.748  0.00  0.00    +0.052 C 
ATOM      4  C   LIG    1       25.938 -24.920   6.838  0.00  0.00    +0.002 C 
ATOM      5  C   LIG    1       26.075 -26.298   7.117  0.00  0.00    +0.036 C 
ATOM      6  C   LIG    1       25.519 -27.259   6.269  0.00  0.00    +0.070 C 
ATOM      7  C   LIG    1       24.802 -26.816   5.154  0.00  0.00    +0.146 C 
ATOM      8  F   LIG    1       24.277 -27.719   4.310  0.00  0.00    -0.203 F 
ATOM      9  C   LIG    1       24.608 -25.453   4.876  0.00  0.00    +0.066 C 
ATOM     10  C   LIG    1       26.450 -23.757   7.454  0.00  0.00    +0.032 C 
ENDROOT
BRANCH   6  11
ATOM     11  N   LIG    1       25.671 -28.660   6.475  0.00  0.00    -0.282 N 
ATOM     12  H   LIG    1       26.621 -28.985   6.611  0.00  0.00    +0.155 HD
ATOM     13  C   LIG    1       24.655 -29.602   6.505  0.00  0.00    +0.228 C 
ATOM     14  O   LIG    1       23.456 -29.399   6.344  0.00  0.00    -0.275 OA
BRANCH  13  15
ATOM     15  C   LIG    1       25.100 -31.035   6.758  0.00  0.00    +0.072 C 
ATOM     16  C   LIG    1       24.738 -32.103   5.727  0.00  0.00    +0.022 C 
ATOM     17  C   LIG    1       26.128 -31.555   5.738  0.00  0.00    +0.022 C 
BRANCH  15  18
ATOM     18  C   LIG    1       25.218 -31.482   8.239  0.00  0.00    -0.029 C 
ATOM     19  C   LIG    1       25.076 -30.585   9.322  0.00  0.00    +0.054 C 
ATOM     20  C   LIG    1       25.250 -31.034  10.617  0.00  0.00    +0.173 C 
ATOM     21  O   LIG    1       25.175 -30.263  11.735  0.00  0.00    -0.395 OA
ATOM     22  C   LIG    1       25.512 -31.242  12.729  0.00  0.00    +0.589 C 
ATOM     23  O   LIG    1       25.687 -32.574  12.228  0.00  0.00    -0.396 OA
ATOM     24  F   LIG    1       24.539 -31.254  13.672  0.00  0.00    -0.125 F 
ATOM     25  F   LIG    1       26.663 -30.856  13.336  0.00  0.00    -0.125 F 
ATOM     26  C   LIG    1       25.538 -32.345  10.898  0.00  0.00    +0.173 C 
ATOM     27  C   LIG    1       25.657 -33.276   9.895  0.00  0.00    +0.050 C 
ATOM     28  C   LIG    1       25.501 -32.836   8.572  0.00  0.00    +0.008 C 
ENDBRANCH  15  18
ENDBRANCH  13  15
ENDBRANCH   6  11
BRANCH   1  30
ATOM     29  C   LIG    1       26.449 -20.316   5.782  0.00  0.00    +0.019 C 
ATOM     30  C   LIG    1       26.440 -21.161   7.090  0.00  0.00    +0.028 C 
ATOM     31  C   LIG    1       27.853 -21.031   7.676  0.00  0.00    +0.019 C 
BRANCH  30  32
ATOM     32  C   LIG    1       25.430 -20.502   8.073  0.00  0.00    +0.168 C 
BRANCH  32  33
ATOM     33  O   LIG    1       25.881 -20.618   9.427  0.00  0.00    -0.394 OA
ATOM     34  H   LIG    1       26.168 -21.537   9.562  0.00  0.00    +0.209 HD
ENDBRANCH  32  33
ENDBRANCH  30  32
ENDBRANCH   1  30
BRANCH   2  35
ATOM     35  C   LIG    1       24.254 -22.368   4.898  0.00  0.00    +0.155 C 
BRANCH  35  36
ATOM     36  C   LIG    1       23.115 -21.666   5.639  0.00  0.00    +0.159 C 
BRANCH  36  37
ATOM     37  O   LIG    1       21.948 -21.568   4.809  0.00  0.00    -0.388 OA
ATOM     38  H   LIG    1       22.017 -20.686   4.389  0.00  0.00    +0.210 HD
ENDBRANCH  36  37
BRANCH  36  39
ATOM     39  C   LIG    1       22.692 -22.448   6.888  0.00  0.00    +0.188 C 
BRANCH  39  40
ATOM     40  O   LIG    1       22.053 -23.653   6.454  0.00  0.00    -0.392 OA
ATOM     41  H   LIG    1       22.708 -24.370   6.528  0.00  0.00    +0.209 HD
ENDBRANCH  39  40
ENDBRANCH  36  39
ENDBRANCH  35  36
ENDBRANCH   2  35
TORSDOF 11
ENDMDL
MODEL 7
REMARK VINA RESULT:      -8.0      1.801      3.402
REMARK  Name = *****
REMARK                            x       y       z     vdW  Elec       q    Type
REMARK                         _______ _______ _______ _____ _____    ______ ____
ROOT
ATOM      1  C   LIG    1       25.383 -30.605   5.330  0.00  0.00    +0.028 C 
ATOM      2  N   LIG    1       25.491 -30.105   6.637  0.00  0.00    -0.341 NA
ATOM      3  C   LIG    1       25.533 -28.707   6.612  0.00  0.00    +0.052 C 
ATOM      4  C   LIG    1       25.304 -28.307   5.308  0.00  0.00    +0.002 C 
ATOM      5  C   LIG    1       25.218 -26.931   4.995  0.00  0.00    +0.036 C 
ATOM      6  C   LIG    1       25.424 -25.960   5.977  0.00  0.00    +0.070 C 
ATOM      7  C   LIG    1       25.689 -26.389   7.281  0.00  0.00    +0.146 C 
ATOM      8  F   LIG    1       25.915 -25.475   8.240  0.00  0.00    -0.203 F 
ATOM      9  C   LIG    1       25.734 -27.748   7.633  0.00  0.00    +0.066 C 
ATOM     10  C   LIG    1       25.227 -29.479   4.525  0.00  0.00    +0.032 C 
ENDROOT
BRANCH   6  11
ATOM     11  N   LIG    1       25.400 -24.562   5.706  0.00  0.00    -0.282 N 
ATOM     12  H   LIG    1       26.206 -24.195   5.212  0.00  0.00    +0.155 HD
ATOM     13  C   LIG    1       24.394 -23.673   6.052  0.00  0.00    +0.228 C 
ATOM     14  O   LIG    1       23.362 -23.930   6.662  0.00  0.00    -0.275 OA
BRANCH  13  15
ATOM     15  C   LIG    1       24.621 -22.231   5.625  0.00  0.00    +0.072 C 
ATOM     16  C   LIG    1       24.333 -21.846   4.175  0.00  0.00    +0.022 C 
ATOM     17  C   LIG    1       23.332 -21.492   5.226  0.00  0.00    +0.022 C 
BRANCH  15  18
ATOM     18  C   LIG    1       25.738 -21.448   6.364  0.00  0.00    -0.029 C 
ATOM     19  C   LIG    1       26.807 -20.819   5.687  0.00  0.00    +0.054 C 
ATOM     20  C   LIG    1       27.802 -20.186   6.407  0.00  0.00    +0.173 C 
ATOM     21  O   LIG    1       28.896 -19.578   5.873  0.00  0.00    -0.395 OA
ATOM     22  C   LIG    1       29.573 -19.192   7.079  0.00  0.00    +0.589 C 
ATOM     23  O   LIG    1       28.858 -19.475   8.289  0.00  0.00    -0.396 OA
ATOM     24  F   LIG    1       29.829 -17.862   7.024  0.00  0.00    -0.125 F 
ATOM     25  F   LIG    1       30.766 -19.836   7.123  0.00  0.00    -0.125 F 
ATOM     26  C   LIG    1       27.780 -20.125   7.777  0.00  0.00    +0.173 C 
ATOM     27  C   LIG    1       26.754 -20.687   8.496  0.00  0.00    +0.050 C 
ATOM     28  C   LIG    1       25.743 -21.350   7.784  0.00  0.00    +0.008 C 
ENDBRANCH  15  18
ENDBRANCH  13  15
ENDBRANCH   6  11
BRANCH   1  30
ATOM     29  C   LIG    1       24.201 -32.861   5.317  0.00  0.00    +0.019 C 
ATOM     30  C   LIG    1       25.451 -32.074   4.825  0.00  0.00    +0.028 C 
ATOM     31  C   LIG    1       26.664 -32.860   5.342  0.00  0.00    +0.019 C 
BRANCH  30  32
ATOM     32  C   LIG    1       25.456 -32.114   3.270  0.00  0.00    +0.168 C 
BRANCH  32  33
ATOM     33  O   LIG    1       26.683 -32.661   2.774  0.00  0.00    -0.394 OA
ATOM     34  H   LIG    1       27.286 -32.759   3.529  0.00  0.00    +0.209 HD
ENDBRANCH  32  33
ENDBRANCH  30  32
ENDBRANCH   1  30
BRANCH   2  35
ATOM     35  C   LIG    1       25.438 -30.827   7.904  0.00  0.00    +0.155 C 
BRANCH  35  36
ATOM     36  C   LIG    1       26.802 -31.284   8.427  0.00  0.00    +0.159 C 
BRANCH  36  37
ATOM     37  O   LIG    1       27.365 -30.305   9.312  0.00  0.00    -0.388 OA
ATOM     38  H   LIG    1       28.276 -30.623   9.483  0.00  0.00    +0.210 HD
ENDBRANCH  36  37
BRANCH  36  39
ATOM     39  C   LIG    1       26.685 -32.582   9.236  0.00  0.00    +0.188 C 
BRANCH  39  40
ATOM     40  O   LIG    1       25.717 -33.415   8.588  0.00  0.00    -0.392 OA
ATOM     41  H   LIG    1       25.866 -33.337   7.628  0.00  0.00    +0.209 HD
ENDBRANCH  39  40
ENDBRANCH  36  39
ENDBRANCH  35  36
ENDBRANCH   2  35
TORSDOF 11
ENDMDL
MODEL 8
REMARK VINA RESULT:      -7.7      3.746     10.678
REMARK  Name = *****
REMARK                            x       y       z     vdW  Elec       q    Type
REMARK                         _______ _______ _______ _____ _____    ______ ____
ROOT
ATOM      1  C   LIG    1       26.158 -22.665   6.802  0.00  0.00    +0.028 C 
ATOM      2  N   LIG    1       25.225 -23.122   5.858  0.00  0.00    -0.341 NA
ATOM      3  C   LIG    1       25.110 -24.514   5.935  0.00  0.00    +0.052 C 
ATOM      4  C   LIG    1       25.854 -24.934   7.022  0.00  0.00    +0.002 C 
ATOM      5  C   LIG    1       25.864 -26.299   7.387  0.00  0.00    +0.036 C 
ATOM      6  C   LIG    1       25.179 -27.248   6.626  0.00  0.00    +0.070 C 
ATOM      7  C   LIG    1       24.463 -26.804   5.511  0.00  0.00    +0.146 C 
ATOM      8  F   LIG    1       23.814 -27.700   4.748  0.00  0.00    -0.203 F 
ATOM      9  C   LIG    1       24.395 -25.449   5.149  0.00  0.00    +0.066 C 
ATOM     10  C   LIG    1       26.506 -23.793   7.541  0.00  0.00    +0.032 C 
ENDROOT
BRANCH   6  11
ATOM     11  N   LIG    1       25.198 -28.642   6.919  0.00  0.00    -0.282 N 
ATOM     12  H   LIG    1       24.912 -29.255   6.164  0.00  0.00    +0.155 HD
ATOM     13  C   LIG    1       25.564 -29.225   8.122  0.00  0.00    +0.228 C 
ATOM     14  O   LIG    1       25.918 -28.647   9.143  0.00  0.00    -0.275 OA
BRANCH  13  15
ATOM     15  C   LIG    1       25.505 -30.745   8.156  0.00  0.00    +0.072 C 
ATOM     16  C   LIG    1       26.330 -31.530   7.136  0.00  0.00    +0.022 C 
ATOM     17  C   LIG    1       26.840 -31.410   8.535  0.00  0.00    +0.022 C 
BRANCH  15  18
ATOM     18  C   LIG    1       24.180 -31.385   8.647  0.00  0.00    -0.029 C 
ATOM     19  C   LIG    1       23.290 -30.723   9.522  0.00  0.00    +0.054 C 
ATOM     20  C   LIG    1       22.154 -31.369   9.970  0.00  0.00    +0.173 C 
ATOM     21  O   LIG    1       21.243 -30.852  10.838  0.00  0.00    -0.395 OA
ATOM     22  C   LIG    1       20.367 -31.981  10.975  0.00  0.00    +0.589 C 
ATOM     23  O   LIG    1       20.693 -33.100  10.139  0.00  0.00    -0.396 OA
ATOM     24  F   LIG    1       19.102 -31.583  10.698  0.00  0.00    -0.125 F 
ATOM     25  F   LIG    1       20.394 -32.387  12.269  0.00  0.00    -0.125 F 
ATOM     26  C   LIG    1       21.839 -32.643   9.572  0.00  0.00    +0.173 C 
ATOM     27  C   LIG    1       22.643 -33.332   8.697  0.00  0.00    +0.050 C 
ATOM     28  C   LIG    1       23.811 -32.699   8.245  0.00  0.00    +0.008 C 
ENDBRANCH  15  18
ENDBRANCH  13  15
ENDBRANCH   6  11
BRANCH   1  30
ATOM     29  C   LIG    1       25.901 -20.471   8.070  0.00  0.00    +0.019 C 
ATOM     30  C   LIG    1       26.740 -21.238   7.006  0.00  0.00    +0.028 C 
ATOM     31  C   LIG    1       26.709 -20.361   5.746  0.00  0.00    +0.019 C 
BRANCH  30  32
ATOM     32  C   LIG    1       28.205 -21.316   7.523  0.00  0.00    +0.168 C 
BRANCH  32  33
ATOM     33  O   LIG    1       29.136 -21.053   6.468  0.00  0.00    -0.394 OA
ATOM     34  H   LIG    1       28.917 -21.645   5.729  0.00  0.00    +0.209 HD
ENDBRANCH  32  33
ENDBRANCH  30  32
ENDBRANCH   1  30
BRANCH   2  35
ATOM     35  C   LIG    1       24.353 -22.349   4.980  0.00  0.00    +0.155 C 
BRANCH  35  36
ATOM     36  C   LIG    1       23.203 -21.639   5.698  0.00  0.00    +0.159 C 
BRANCH  36  37
ATOM     37  O   LIG    1       22.034 -21.588   4.867  0.00  0.00    -0.388 OA
ATOM     38  H   LIG    1       21.960 -22.489   4.490  0.00  0.00    +0.210 HD
ENDBRANCH  36  37
BRANCH  36  39
ATOM     39  C   LIG    1       22.795 -22.384   6.974  0.00  0.00    +0.188 C 
BRANCH  39  40
ATOM     40  O   LIG    1       22.028 -23.529   6.585  0.00  0.00    -0.392 OA
ATOM     41  H   LIG    1       21.372 -23.228   5.931  0.00  0.00    +0.209 HD
ENDBRANCH  39  40
ENDBRANCH  36  39
ENDBRANCH  35  36
ENDBRANCH   2  35
TORSDOF 11
ENDMDL
MODEL 9
REMARK VINA RESULT:      -7.3      3.419      9.883
REMARK  Name = *****
REMARK                            x       y       z     vdW  Elec       q    Type
REMARK                         _______ _______ _______ _____ _____    ______ ____
ROOT
ATOM      1  C   LIG    1       24.621 -20.725   4.461  0.00  0.00    +0.028 C 
ATOM      2  N   LIG    1       25.440 -20.891   5.590  0.00  0.00    -0.341 NA
ATOM      3  C   LIG    1       25.385 -22.218   6.030  0.00  0.00    +0.052 C 
ATOM      4  C   LIG    1       24.651 -22.934   5.101  0.00  0.00    +0.002 C 
ATOM      5  C   LIG    1       24.490 -24.330   5.253  0.00  0.00    +0.036 C 
ATOM      6  C   LIG    1       25.012 -24.994   6.365  0.00  0.00    +0.070 C 
ATOM      7  C   LIG    1       25.719 -24.242   7.308  0.00  0.00    +0.146 C 
ATOM      8  F   LIG    1       26.210 -24.853   8.400  0.00  0.00    -0.203 F 
ATOM      9  C   LIG    1       25.936 -22.862   7.162  0.00  0.00    +0.066 C 
ATOM     10  C   LIG    1       24.175 -22.007   4.149  0.00  0.00    +0.032 C 
ENDROOT
BRANCH   6  11
ATOM     11  N   LIG    1       24.835 -26.389   6.593  0.00  0.00    -0.282 N 
ATOM     12  H   LIG    1       24.050 -26.643   7.182  0.00  0.00    +0.155 HD
ATOM     13  C   LIG    1       25.624 -27.411   6.091  0.00  0.00    +0.228 C 
ATOM     14  O   LIG    1       26.617 -27.295   5.381  0.00  0.00    -0.275 OA
BRANCH  13  15
ATOM     15  C   LIG    1       25.198 -28.819   6.483  0.00  0.00    +0.072 C 
ATOM     16  C   LIG    1       23.916 -29.388   5.876  0.00  0.00    +0.022 C 
ATOM     17  C   LIG    1       25.232 -29.824   5.319  0.00  0.00    +0.022 C 
BRANCH  15  18
ATOM     18  C   LIG    1       25.592 -29.300   7.904  0.00  0.00    -0.029 C 
ATOM     19  C   LIG    1       26.328 -28.500   8.806  0.00  0.00    +0.054 C 
ATOM     20  C   LIG    1       26.698 -29.008  10.036  0.00  0.00    +0.173 C 
ATOM     21  O   LIG    1       27.434 -28.351  10.972  0.00  0.00    -0.395 OA
ATOM     22  C   LIG    1       27.552 -29.385  11.961  0.00  0.00    +0.589 C 
ATOM     23  O   LIG    1       26.827 -30.586  11.666  0.00  0.00    -0.396 OA
ATOM     24  F   LIG    1       27.123 -28.897  13.150  0.00  0.00    -0.125 F 
ATOM     25  F   LIG    1       28.865 -29.698  12.097  0.00  0.00    -0.125 F 
ATOM     26  C   LIG    1       26.351 -30.275  10.432  0.00  0.00    +0.173 C 
ATOM     27  C   LIG    1       25.608 -31.094   9.618  0.00  0.00    +0.050 C 
ATOM     28  C   LIG    1       25.238 -30.603   8.357  0.00  0.00    +0.008 C 
ENDBRANCH  15  18
ENDBRANCH  13  15
ENDBRANCH   6  11
BRANCH   1  30
ATOM     29  C   LIG    1       23.742 -19.774   2.269  0.00  0.00    +0.019 C 
ATOM     30  C   LIG    1       24.233 -19.425   3.704  0.00  0.00    +0.028 C 
ATOM     31  C   LIG    1       25.394 -18.438   3.516  0.00  0.00    +0.019 C 
BRANCH  30  32
ATOM     32  C   LIG    1       23.072 -18.694   4.438  0.00  0.00    +0.168 C 
BRANCH  32  33
ATOM     33  O   LIG    1       22.595 -19.469   5.544  0.00  0.00    -0.394 OA
ATOM     34  H   LIG    1       21.627 -19.390   5.562  0.00  0.00    +0.209 HD
ENDBRANCH  32  33
ENDBRANCH  30  32
ENDBRANCH   1  30
BRANCH   2  35
ATOM     35  C   LIG    1       26.354 -19.937   6.209  0.00  0.00    +0.155 C 
BRANCH  35  36
ATOM     36  C   LIG    1       27.828 -20.158   5.859  0.00  0.00    +0.159 C 
BRANCH  36  37
ATOM     37  O   LIG    1       28.338 -19.064   5.081  0.00  0.00    -0.388 OA
ATOM     38  H   LIG    1       28.855 -19.490   4.367  0.00  0.00    +0.210 HD
ENDBRANCH  36  37
BRANCH  36  39
ATOM     39  C   LIG    1       28.698 -20.235   7.119  0.00  0.00    +0.188 C 
BRANCH  39  40
ATOM     40  O   LIG    1       29.448 -21.453   7.057  0.00  0.00    -0.392 OA
ATOM     41  H   LIG    1       29.451 -21.743   6.128  0.00  0.00    +0.209 HD
ENDBRANCH  39  40
ENDBRANCH  36  39
ENDBRANCH  35  36
ENDBRANCH   2  35
TORSDOF 11
ENDMDL
