MODEL 1
REMARK VINA RESULT:       2.4      0.000      0.000
REMARK  Name = *****
REMARK                            x       y       z     vdW  Elec       q    Type
REMARK                         _______ _______ _______ _____ _____    ______ ____
ROOT
ATOM      1  C   LIG    1       27.306 -13.052   4.060  0.00  0.00    +0.030 A 
ATOM      2  C   LIG    1       27.233 -14.438   3.842  0.00  0.00    +0.040 A 
ATOM      3  C   LIG    1       26.031 -15.167   3.972  0.00  0.00    +0.040 A 
ATOM      4  C   LIG    1       24.851 -14.506   4.312  0.00  0.00    +0.078 A 
ATOM      5  N   LIG    1       23.600 -15.119   4.462  0.00  0.00    -0.246 NA
ATOM      6  C   LIG    1       23.453 -16.392   4.313  0.00  0.00    +0.079 A 
ATOM      7  C   LIG    1       24.481 -17.414   3.978  0.00  0.00    +0.044 A 
ATOM      8  C   LIG    1       24.166 -18.715   3.889  0.00  0.00    +0.095 A 
ATOM      9  C   LIG    1       22.785 -19.241   4.108  0.00  0.00    +0.203 A 
ATOM     10  N   LIG    1       22.498 -20.512   4.042  0.00  0.00    -0.234 N 
ATOM     11  C   LIG    1       21.094 -21.029   4.138  0.00  0.00    +0.432 C 
ATOM     12  C   LIG    1       23.545 -21.571   3.871  0.00  0.00    +0.432 C 
ATOM     13  C   LIG    1       21.757 -18.204   4.407  0.00  0.00    +0.080 A 
ATOM     14  C   LIG    1       22.076 -16.911   4.499  0.00  0.00    +0.035 A 
ATOM     15  C   LIG    1       24.901 -13.127   4.516  0.00  0.00    +0.030 A 
ATOM     16  S   LIG    1       26.106 -16.922   3.684  0.00  0.00    -0.085 S 
ATOM     17  C   LIG    1       26.101 -12.417   4.390  0.00  0.00    +0.025 A 
ENDROOT
BRANCH   1  19
ATOM     18  C   LIG    1       29.430 -12.664   2.850  0.00  0.00    +0.129 C 
ATOM     19  N   LIG    1       28.492 -12.323   3.918  0.00  0.00    -0.336 N 
ATOM     20  C   LIG    1       29.107 -11.806   5.143  0.00  0.00    +0.129 C 
ENDBRANCH   1  19
TORSDOF 1
ENDMDL
MODEL 2
REMARK VINA RESULT:       4.0      2.178      7.650
REMARK  Name = *****
REMARK                            x       y       z     vdW  Elec       q    Type
REMARK                         _______ _______ _______ _____ _____    ______ ____
ROOT
ATOM      1  C   LIG    1       22.995 -20.419   5.048  0.00  0.00    +0.030 A 
ATOM      2  C   LIG    1       22.645 -19.083   4.792  0.00  0.00    +0.040 A 
ATOM      3  C   LIG    1       23.568 -18.134   4.303  0.00  0.00    +0.040 A 
ATOM      4  C   LIG    1       24.883 -18.517   4.039  0.00  0.00    +0.078 A 
ATOM      5  N   LIG    1       25.884 -17.669   3.546  0.00  0.00    -0.246 NA
ATOM      6  C   LIG    1       25.655 -16.420   3.316  0.00  0.00    +0.079 A 
ATOM      7  C   LIG    1       24.391 -15.658   3.502  0.00  0.00    +0.044 A 
ATOM      8  C   LIG    1       24.327 -14.342   3.242  0.00  0.00    +0.095 A 
ATOM      9  C   LIG    1       25.491 -13.546   2.748  0.00  0.00    +0.203 A 
ATOM     10  N   LIG    1       25.420 -12.263   2.523  0.00  0.00    -0.234 N 
ATOM     11  C   LIG    1       26.548 -11.488   1.910  0.00  0.00    +0.432 C 
ATOM     12  C   LIG    1       24.209 -11.447   2.860  0.00  0.00    +0.432 C 
ATOM     13  C   LIG    1       26.741 -14.329   2.531  0.00  0.00    +0.080 A 
ATOM     14  C   LIG    1       26.802 -15.636   2.796  0.00  0.00    +0.035 A 
ATOM     15  C   LIG    1       25.246 -19.843   4.271  0.00  0.00    +0.030 A 
ATOM     16  S   LIG    1       22.976 -16.475   4.049  0.00  0.00    -0.085 S 
ATOM     17  C   LIG    1       24.321 -20.772   4.762  0.00  0.00    +0.025 A 
ENDROOT
BRANCH   1  19
ATOM     18  C   LIG    1       20.817 -21.571   4.810  0.00  0.00    +0.129 C 
ATOM     19  N   LIG    1       22.080 -21.366   5.518  0.00  0.00    -0.336 N 
ATOM     20  C   LIG    1       22.018 -21.571   6.969  0.00  0.00    +0.129 C 
ENDBRANCH   1  19
TORSDOF 1
ENDMDL
