MODEL 1
REMARK VINA RESULT:      -5.7      0.000      0.000
REMARK  Name = *****
REMARK                            x       y       z     vdW  Elec       q    Type
REMARK                         _______ _______ _______ _____ _____    ______ ____
ROOT
ATOM      1  C   LIG    1       23.241 -21.054   7.265  0.00  0.00    +0.067 C 
ATOM      2  C   LIG    1       24.041 -22.312   6.997  0.00  0.00    +0.061 C 
ATOM      3  N   LIG    1       25.451 -22.213   7.110  0.00  0.00    -0.351 NA
ATOM      4  C   LIG    1       26.117 -20.938   7.418  0.00  0.00    +0.149 C 
ATOM      5  C   LIG    1       26.218 -23.361   6.967  0.00  0.00    +0.089 C 
ATOM      6  C   LIG    1       25.735 -24.578   6.711  0.00  0.00    +0.072 C 
ATOM      7  C   LIG    1       24.275 -24.725   6.554  0.00  0.00    +0.223 C 
ATOM      8  O   LIG    1       23.799 -25.828   6.306  0.00  0.00    -0.284 OA
ATOM      9  C   LIG    1       23.428 -23.488   6.701  0.00  0.00    +0.183 C 
ENDROOT
BRANCH   9  10
ATOM     10  O   LIG    1       22.066 -23.651   6.529  0.00  0.00    -0.502 OA
ATOM     11  H   LIG    1       21.861 -24.596   6.493  0.00  0.00    +0.292 HD
ENDBRANCH   9  10
TORSDOF 1
ENDMDL
MODEL 2
REMARK VINA RESULT:      -5.7      6.083      7.271
REMARK  Name = *****
REMARK                            x       y       z     vdW  Elec       q    Type
REMARK                         _______ _______ _______ _____ _____    ______ ____
ROOT
ATOM      1  C   LIG    1       29.650 -18.376   5.823  0.00  0.00    +0.067 C 
ATOM      2  C   LIG    1       29.856 -19.438   6.883  0.00  0.00    +0.061 C 
ATOM      3  N   LIG    1       28.827 -20.401   7.035  0.00  0.00    -0.351 NA
ATOM      4  C   LIG    1       27.588 -20.345   6.243  0.00  0.00    +0.149 C 
ATOM      5  C   LIG    1       29.014 -21.448   7.927  0.00  0.00    +0.089 C 
ATOM      6  C   LIG    1       30.097 -21.625   8.684  0.00  0.00    +0.072 C 
ATOM      7  C   LIG    1       31.183 -20.630   8.583  0.00  0.00    +0.223 C 
ATOM      8  O   LIG    1       32.188 -20.756   9.274  0.00  0.00    -0.284 OA
ATOM      9  C   LIG    1       30.994 -19.485   7.623  0.00  0.00    +0.183 C 
ENDROOT
BRANCH   9  10
ATOM     10  O   LIG    1       32.017 -18.557   7.563  0.00  0.00    -0.502 OA
ATOM     11  H   LIG    1       32.253 -18.286   8.462  0.00  0.00    +0.292 HD
ENDBRANCH   9  10
TORSDOF 1
ENDMDL
MODEL 3
REMARK VINA RESULT:      -5.6      2.852      3.454
REMARK  Name = *****
REMARK                            x       y       z     vdW  Elec       q    Type
REMARK                         _______ _______ _______ _____ _____    ______ ____
ROOT
ATOM      1  C   LIG    1       22.817 -20.618   5.297  0.00  0.00    +0.067 C 
ATOM      2  C   LIG    1       24.142 -20.716   6.024  0.00  0.00    +0.061 C 
ATOM      3  N   LIG    1       25.302 -20.347   5.297  0.00  0.00    -0.351 NA
ATOM      4  C   LIG    1       25.235 -19.941   3.884  0.00  0.00    +0.149 C 
ATOM      5  C   LIG    1       26.526 -20.330   5.950  0.00  0.00    +0.089 C 
ATOM      6  C   LIG    1       26.716 -20.652   7.230  0.00  0.00    +0.072 C 
ATOM      7  C   LIG    1       25.542 -21.072   8.020  0.00  0.00    +0.223 C 
ATOM      8  O   LIG    1       25.684 -21.386   9.197  0.00  0.00    -0.284 OA
ATOM      9  C   LIG    1       24.207 -21.102   7.325  0.00  0.00    +0.183 C 
ENDROOT
BRANCH   9  10
ATOM     10  O   LIG    1       23.128 -21.518   8.083  0.00  0.00    -0.502 OA
ATOM     11  H   LIG    1       22.347 -21.001   7.835  0.00  0.00    +0.292 HD
ENDBRANCH   9  10
TORSDOF 1
ENDMDL
MODEL 4
REMARK VINA RESULT:      -5.6      3.488      4.389
REMARK  Name = *****
REMARK                            x       y       z     vdW  Elec       q    Type
REMARK                         _______ _______ _______ _____ _____    ______ ____
ROOT
ATOM      1  C   LIG    1       23.638 -21.026   7.440  0.00  0.00    +0.067 C 
ATOM      2  C   LIG    1       25.086 -20.755   7.086  0.00  0.00    +0.061 C 
ATOM      3  N   LIG    1       25.395 -20.614   5.710  0.00  0.00    -0.351 NA
ATOM      4  C   LIG    1       24.374 -20.778   4.665  0.00  0.00    +0.149 C 
ATOM      5  C   LIG    1       26.690 -20.272   5.345  0.00  0.00    +0.089 C 
ATOM      6  C   LIG    1       27.698 -20.073   6.196  0.00  0.00    +0.072 C 
ATOM      7  C   LIG    1       27.431 -20.239   7.638  0.00  0.00    +0.223 C 
ATOM      8  O   LIG    1       28.339 -20.075   8.446  0.00  0.00    -0.284 OA
ATOM      9  C   LIG    1       26.033 -20.616   8.051  0.00  0.00    +0.183 C 
ENDROOT
BRANCH   9  10
ATOM     10  O   LIG    1       25.815 -20.784   9.406  0.00  0.00    -0.502 OA
ATOM     11  H   LIG    1       26.605 -21.173   9.808  0.00  0.00    +0.292 HD
ENDBRANCH   9  10
TORSDOF 1
ENDMDL
MODEL 5
REMARK VINA RESULT:      -5.4      5.594      7.003
REMARK  Name = *****
REMARK                            x       y       z     vdW  Elec       q    Type
REMARK                         _______ _______ _______ _____ _____    ______ ____
ROOT
ATOM      1  C   LIG    1       27.851 -21.737   7.606  0.00  0.00    +0.067 C 
ATOM      2  C   LIG    1       29.082 -20.858   7.541  0.00  0.00    +0.061 C 
ATOM      3  N   LIG    1       29.109 -19.865   6.530  0.00  0.00    -0.351 NA
ATOM      4  C   LIG    1       28.020 -19.724   5.551  0.00  0.00    +0.149 C 
ATOM      5  C   LIG    1       30.174 -18.975   6.491  0.00  0.00    +0.089 C 
ATOM      6  C   LIG    1       31.208 -18.981   7.334  0.00  0.00    +0.072 C 
ATOM      7  C   LIG    1       31.239 -20.017   8.384  0.00  0.00    +0.223 C 
ATOM      8  O   LIG    1       32.182 -20.058   9.168  0.00  0.00    -0.284 OA
ATOM      9  C   LIG    1       30.094 -20.994   8.437  0.00  0.00    +0.183 C 
ENDROOT
BRANCH   9  10
ATOM     10  O   LIG    1       30.159 -21.966   9.418  0.00  0.00    -0.502 OA
ATOM     11  H   LIG    1       29.544 -21.739  10.130  0.00  0.00    +0.292 HD
ENDBRANCH   9  10
TORSDOF 1
ENDMDL
MODEL 6
REMARK VINA RESULT:      -5.4      3.408      4.556
REMARK  Name = *****
REMARK                            x       y       z     vdW  Elec       q    Type
REMARK                         _______ _______ _______ _____ _____    ______ ____
ROOT
ATOM      1  C   LIG    1       28.023 -19.845   5.504  0.00  0.00    +0.067 C 
ATOM      2  C   LIG    1       26.812 -20.251   6.318  0.00  0.00    +0.061 C 
ATOM      3  N   LIG    1       25.590 -20.407   5.617  0.00  0.00    -0.351 NA
ATOM      4  C   LIG    1       25.483 -20.135   4.175  0.00  0.00    +0.149 C 
ATOM      5  C   LIG    1       24.476 -20.869   6.304  0.00  0.00    +0.089 C 
ATOM      6  C   LIG    1       24.448 -21.172   7.602  0.00  0.00    +0.072 C 
ATOM      7  C   LIG    1       25.689 -20.996   8.381  0.00  0.00    +0.223 C 
ATOM      8  O   LIG    1       25.695 -21.255   9.580  0.00  0.00    -0.284 OA
ATOM      9  C   LIG    1       26.906 -20.491   7.652  0.00  0.00    +0.183 C 
ENDROOT
BRANCH   9  10
ATOM     10  O   LIG    1       28.050 -20.316   8.410  0.00  0.00    -0.502 OA
ATOM     11  H   LIG    1       27.803 -19.976   9.282  0.00  0.00    +0.292 HD
ENDBRANCH   9  10
TORSDOF 1
ENDMDL
MODEL 7
REMARK VINA RESULT:      -5.3      4.008      4.623
REMARK  Name = *****
REMARK                            x       y       z     vdW  Elec       q    Type
REMARK                         _______ _______ _______ _____ _____    ______ ____
ROOT
ATOM      1  C   LIG    1       25.248 -20.335   4.062  0.00  0.00    +0.067 C 
ATOM      2  C   LIG    1       25.546 -20.412   5.546  0.00  0.00    +0.061 C 
ATOM      3  N   LIG    1       24.446 -20.642   6.410  0.00  0.00    -0.351 NA
ATOM      4  C   LIG    1       23.069 -20.746   5.903  0.00  0.00    +0.149 C 
ATOM      5  C   LIG    1       24.684 -20.814   7.766  0.00  0.00    +0.089 C 
ATOM      6  C   LIG    1       25.884 -20.767   8.346  0.00  0.00    +0.072 C 
ATOM      7  C   LIG    1       27.056 -20.499   7.490  0.00  0.00    +0.223 C 
ATOM      8  O   LIG    1       28.173 -20.438   7.993  0.00  0.00    -0.284 OA
ATOM      9  C   LIG    1       26.816 -20.305   6.016  0.00  0.00    +0.183 C 
ENDROOT
BRANCH   9  10
ATOM     10  O   LIG    1       27.929 -20.036   5.241  0.00  0.00    -0.502 OA
ATOM     11  H   LIG    1       28.064 -19.078   5.202  0.00  0.00    +0.292 HD
ENDBRANCH   9  10
TORSDOF 1
ENDMDL
MODEL 8
REMARK VINA RESULT:      -5.2      2.974      3.564
REMARK  Name = *****
REMARK                            x       y       z     vdW  Elec       q    Type
REMARK                         _______ _______ _______ _____ _____    ______ ____
ROOT
ATOM      1  C   LIG    1       26.182 -20.902   8.371  0.00  0.00    +0.067 C 
ATOM      2  C   LIG    1       25.490 -20.685   7.041  0.00  0.00    +0.061 C 
ATOM      3  N   LIG    1       26.309 -20.324   5.943  0.00  0.00    -0.351 NA
ATOM      4  C   LIG    1       27.758 -20.114   6.091  0.00  0.00    +0.149 C 
ATOM      5  C   LIG    1       25.733 -20.208   4.685  0.00  0.00    +0.089 C 
ATOM      6  C   LIG    1       24.441 -20.395   4.415  0.00  0.00    +0.072 C 
ATOM      7  C   LIG    1       23.542 -20.742   5.534  0.00  0.00    +0.223 C 
ATOM      8  O   LIG    1       22.346 -20.910   5.322  0.00  0.00    -0.284 OA
ATOM      9  C   LIG    1       24.151 -20.868   6.906  0.00  0.00    +0.183 C 
ENDROOT
BRANCH   9  10
ATOM     10  O   LIG    1       23.283 -21.174   7.938  0.00  0.00    -0.502 OA
ATOM     11  H   LIG    1       23.491 -20.617   8.702  0.00  0.00    +0.292 HD
ENDBRANCH   9  10
TORSDOF 1
ENDMDL
MODEL 9
REMARK VINA RESULT:      -5.2      3.390      4.229
REMARK  Name = *****
REMARK                            x       y       z     vdW  Elec       q    Type
REMARK                         _______ _______ _______ _____ _____    ______ ____
ROOT
ATOM      1  C   LIG    1       27.560 -20.349   6.473  0.00  0.00    +0.067 C 
ATOM      2  C   LIG    1       26.065 -20.485   6.276  0.00  0.00    +0.061 C 
ATOM      3  N   LIG    1       25.285 -20.735   7.432  0.00  0.00    -0.351 NA
ATOM      4  C   LIG    1       25.897 -20.910   8.758  0.00  0.00    +0.149 C 
ATOM      5  C   LIG    1       23.903 -20.773   7.315  0.00  0.00    +0.089 C 
ATOM      6  C   LIG    1       23.226 -20.606   6.177  0.00  0.00    +0.072 C 
ATOM      7  C   LIG    1       23.997 -20.375   4.940  0.00  0.00    +0.223 C 
ATOM      8  O   LIG    1       23.406 -20.229   3.875  0.00  0.00    -0.284 OA
ATOM      9  C   LIG    1       25.498 -20.336   5.050  0.00  0.00    +0.183 C 
ENDROOT
BRANCH   9  10
ATOM     10  O   LIG    1       26.197 -20.137   3.873  0.00  0.00    -0.502 OA
ATOM     11  H   LIG    1       25.719 -19.498   3.325  0.00  0.00    +0.292 HD
ENDBRANCH   9  10
TORSDOF 1
ENDMDL
