MODEL 1
REMARK VINA RESULT:      -4.5      0.000      0.000
REMARK  Name = *****
REMARK                            x       y       z     vdW  Elec       q    Type
REMARK                         _______ _______ _______ _____ _____    ______ ____
ROOT
ATOM      1  C   LIG    1       24.800 -18.303   3.683  0.00  0.00    +0.016 C 
ENDROOT
BRANCH   1   2
ATOM      2  C   LIG    1       26.062 -17.522   3.295  0.00  0.00    +0.081 C 
BRANCH   2   3
ATOM      3  N   LIG    1       25.857 -16.083   3.034  0.00  0.00    -0.316 NA
ATOM      4  H   LIG    1       24.952 -15.829   3.426  0.00  0.00    +0.122 HD
BRANCH   3   5
ATOM      5  C   LIG    1       26.859 -15.164   3.605  0.00  0.00    +0.082 C 
BRANCH   5   6
ATOM      6  C   LIG    1       26.279 -13.894   4.215  0.00  0.00    +0.030 C 
BRANCH   6   7
ATOM      7  C   LIG    1       24.924 -13.489   3.673  0.00  0.00    +0.079 C 
BRANCH   7   8
ATOM      8  N   LIG    1       23.898 -14.333   4.288  0.00  0.00    -0.330 NA
ATOM      9  H   LIG    1       24.258 -14.784   5.132  0.00  0.00    +0.118 HD
ATOM     10  H   LIG    1       23.652 -15.084   3.649  0.00  0.00    +0.118 HD
ENDBRANCH   7   8
ENDBRANCH   6   7
ENDBRANCH   5   6
ENDBRANCH   3   5
ENDBRANCH   2   3
ENDBRANCH   1   2
BRANCH   1  11
ATOM     11  C   LIG    1       24.897 -19.830   3.662  0.00  0.00    +0.016 C 
BRANCH  11  12
ATOM     12  C   LIG    1       25.429 -20.418   4.978  0.00  0.00    +0.081 C 
BRANCH  12  13
ATOM     13  N   LIG    1       26.894 -20.341   5.013  0.00  0.00    -0.316 NA
ATOM     14  H   LIG    1       27.197 -19.494   4.531  0.00  0.00    +0.122 HD
BRANCH  13  15
ATOM     15  C   LIG    1       27.393 -20.317   6.398  0.00  0.00    +0.082 C 
BRANCH  15  16
ATOM     16  C   LIG    1       28.925 -20.239   6.407  0.00  0.00    +0.030 C 
BRANCH  16  17
ATOM     17  C   LIG    1       29.474 -18.807   6.401  0.00  0.00    +0.079 C 
BRANCH  17  18
ATOM     18  N   LIG    1       29.291 -18.132   5.122  0.00  0.00    -0.330 NA
ATOM     19  H   LIG    1       30.022 -17.433   4.987  0.00  0.00    +0.118 HD
ATOM     20  H   LIG    1       28.411 -17.614   5.138  0.00  0.00    +0.118 HD
ENDBRANCH  17  18
ENDBRANCH  16  17
ENDBRANCH  15  16
ENDBRANCH  13  15
ENDBRANCH  12  13
ENDBRANCH  11  12
ENDBRANCH   1  11
TORSDOF 13
ENDMDL
MODEL 2
REMARK VINA RESULT:      -4.5      1.562      1.871
REMARK  Name = *****
REMARK                            x       y       z     vdW  Elec       q    Type
REMARK                         _______ _______ _______ _____ _____    ______ ____
ROOT
ATOM      1  C   LIG    1       25.239 -19.571   3.628  0.00  0.00    +0.016 C 
ENDROOT
BRANCH   1   2
ATOM      2  C   LIG    1       25.087 -18.061   3.402  0.00  0.00    +0.081 C 
BRANCH   2   3
ATOM      3  N   LIG    1       26.352 -17.322   3.216  0.00  0.00    -0.316 NA
ATOM      4  H   LIG    1       26.714 -17.567   2.295  0.00  0.00    +0.122 HD
BRANCH   3   5
ATOM      5  C   LIG    1       26.268 -15.851   3.279  0.00  0.00    +0.082 C 
BRANCH   5   6
ATOM      6  C   LIG    1       27.470 -15.174   3.925  0.00  0.00    +0.030 C 
BRANCH   6   7
ATOM      7  C   LIG    1       27.426 -13.660   3.920  0.00  0.00    +0.079 C 
BRANCH   7   8
ATOM      8  N   LIG    1       28.731 -13.150   3.493  0.00  0.00    -0.330 NA
ATOM      9  H   LIG    1       29.482 -13.570   4.046  0.00  0.00    +0.118 HD
ATOM     10  H   LIG    1       28.776 -12.150   3.671  0.00  0.00    +0.118 HD
ENDBRANCH   7   8
ENDBRANCH   6   7
ENDBRANCH   5   6
ENDBRANCH   3   5
ENDBRANCH   2   3
ENDBRANCH   1   2
BRANCH   1  11
ATOM     11  C   LIG    1       24.168 -20.254   4.482  0.00  0.00    +0.016 C 
BRANCH  11  12
ATOM     12  C   LIG    1       24.756 -21.159   5.575  0.00  0.00    +0.081 C 
BRANCH  12  13
ATOM     13  N   LIG    1       26.219 -21.055   5.589  0.00  0.00    -0.316 NA
ATOM     14  H   LIG    1       26.522 -20.492   4.793  0.00  0.00    +0.122 HD
BRANCH  13  15
ATOM     15  C   LIG    1       26.698 -20.432   6.834  0.00  0.00    +0.082 C 
BRANCH  15  16
ATOM     16  C   LIG    1       28.205 -20.666   6.997  0.00  0.00    +0.030 C 
BRANCH  16  17
ATOM     17  C   LIG    1       29.076 -19.672   6.218  0.00  0.00    +0.079 C 
BRANCH  17  18
ATOM     18  N   LIG    1       28.350 -18.996   5.149  0.00  0.00    -0.330 NA
ATOM     19  H   LIG    1       28.883 -19.046   4.280  0.00  0.00    +0.118 HD
ATOM     20  H   LIG    1       28.273 -18.003   5.370  0.00  0.00    +0.118 HD
ENDBRANCH  17  18
ENDBRANCH  16  17
ENDBRANCH  15  16
ENDBRANCH  13  15
ENDBRANCH  12  13
ENDBRANCH  11  12
ENDBRANCH   1  11
TORSDOF 13
ENDMDL
MODEL 3
REMARK VINA RESULT:      -4.5      1.437      5.592
REMARK  Name = *****
REMARK                            x       y       z     vdW  Elec       q    Type
REMARK                         _______ _______ _______ _____ _____    ______ ____
ROOT
ATOM      1  C   LIG    1       24.995 -18.791   3.593  0.00  0.00    +0.016 C 
ENDROOT
BRANCH   1   2
ATOM      2  C   LIG    1       25.395 -20.029   4.406  0.00  0.00    +0.081 C 
BRANCH   2   3
ATOM      3  N   LIG    1       26.836 -20.148   4.704  0.00  0.00    -0.316 NA
ATOM      4  H   LIG    1       27.305 -19.364   4.255  0.00  0.00    +0.122 HD
BRANCH   3   5
ATOM      5  C   LIG    1       27.214 -20.131   6.129  0.00  0.00    +0.082 C 
BRANCH   5   6
ATOM      6  C   LIG    1       28.710 -20.262   6.391  0.00  0.00    +0.030 C 
BRANCH   6   7
ATOM      7  C   LIG    1       29.473 -18.954   6.387  0.00  0.00    +0.079 C 
BRANCH   7   8
ATOM      8  N   LIG    1       29.245 -18.277   5.109  0.00  0.00    -0.330 NA
ATOM      9  H   LIG    1       28.722 -17.408   5.247  0.00  0.00    +0.118 HD
ATOM     10  H   LIG    1       28.663 -18.863   4.516  0.00  0.00    +0.118 HD
ENDBRANCH   7   8
ENDBRANCH   6   7
ENDBRANCH   5   6
ENDBRANCH   3   5
ENDBRANCH   2   3
ENDBRANCH   1   2
BRANCH   1  11
ATOM     11  C   LIG    1       26.094 -17.764   3.312  0.00  0.00    +0.016 C 
BRANCH  11  12
ATOM     12  C   LIG    1       25.584 -16.315   3.334  0.00  0.00    +0.081 C 
BRANCH  12  13
ATOM     13  N   LIG    1       26.714 -15.379   3.357  0.00  0.00    -0.316 NA
ATOM     14  H   LIG    1       27.228 -15.454   2.478  0.00  0.00    +0.122 HD
BRANCH  13  15
ATOM     15  C   LIG    1       26.254 -13.992   3.534  0.00  0.00    +0.082 C 
BRANCH  15  16
ATOM     16  C   LIG    1       26.829 -13.405   4.829  0.00  0.00    +0.030 C 
BRANCH  16  17
ATOM     17  C   LIG    1       28.284 -12.937   4.707  0.00  0.00    +0.079 C 
BRANCH  17  18
ATOM     18  N   LIG    1       28.796 -13.020   3.344  0.00  0.00    -0.330 NA
ATOM     19  H   LIG    1       29.309 -13.893   3.216  0.00  0.00    +0.118 HD
ATOM     20  H   LIG    1       29.477 -12.274   3.194  0.00  0.00    +0.118 HD
ENDBRANCH  17  18
ENDBRANCH  16  17
ENDBRANCH  15  16
ENDBRANCH  13  15
ENDBRANCH  12  13
ENDBRANCH  11  12
ENDBRANCH   1  11
TORSDOF 13
ENDMDL
MODEL 4
REMARK VINA RESULT:      -4.4      1.550      6.592
REMARK  Name = *****
REMARK                            x       y       z     vdW  Elec       q    Type
REMARK                         _______ _______ _______ _____ _____    ______ ____
ROOT
ATOM      1  C   LIG    1       26.088 -17.745   3.315  0.00  0.00    +0.016 C 
ENDROOT
BRANCH   1   2
ATOM      2  C   LIG    1       25.049 -18.831   3.621  0.00  0.00    +0.081 C 
BRANCH   2   3
ATOM      3  N   LIG    1       25.592 -20.195   3.778  0.00  0.00    -0.316 NA
ATOM      4  H   LIG    1       26.606 -20.115   3.820  0.00  0.00    +0.122 HD
BRANCH   3   5
ATOM      5  C   LIG    1       25.158 -20.939   4.976  0.00  0.00    +0.082 C 
BRANCH   5   6
ATOM      6  C   LIG    1       25.754 -20.436   6.285  0.00  0.00    +0.030 C 
BRANCH   6   7
ATOM      7  C   LIG    1       27.225 -20.742   6.473  0.00  0.00    +0.079 C 
BRANCH   7   8
ATOM      8  N   LIG    1       27.986 -20.079   5.412  0.00  0.00    -0.330 NA
ATOM      9  H   LIG    1       28.815 -20.625   5.165  0.00  0.00    +0.118 HD
ATOM     10  H   LIG    1       28.330 -19.185   5.753  0.00  0.00    +0.118 HD
ENDBRANCH   7   8
ENDBRANCH   6   7
ENDBRANCH   5   6
ENDBRANCH   3   5
ENDBRANCH   2   3
ENDBRANCH   1   2
BRANCH   1  11
ATOM     11  C   LIG    1       25.608 -16.293   3.367  0.00  0.00    +0.016 C 
BRANCH  11  12
ATOM     12  C   LIG    1       26.760 -15.276   3.352  0.00  0.00    +0.081 C 
BRANCH  12  13
ATOM     13  N   LIG    1       26.672 -14.428   2.158  0.00  0.00    -0.316 NA
ATOM     14  H   LIG    1       25.985 -14.825   1.515  0.00  0.00    +0.122 HD
BRANCH  13  15
ATOM     15  C   LIG    1       26.274 -13.055   2.507  0.00  0.00    +0.082 C 
BRANCH  15  16
ATOM     16  C   LIG    1       24.820 -12.803   2.088  0.00  0.00    +0.030 C 
BRANCH  16  17
ATOM     17  C   LIG    1       23.920 -12.313   3.230  0.00  0.00    +0.079 C 
BRANCH  17  18
ATOM     18  N   LIG    1       24.407 -12.706   4.547  0.00  0.00    -0.330 NA
ATOM     19  H   LIG    1       25.412 -12.879   4.511  0.00  0.00    +0.118 HD
ATOM     20  H   LIG    1       23.982 -13.595   4.812  0.00  0.00    +0.118 HD
ENDBRANCH  17  18
ENDBRANCH  16  17
ENDBRANCH  15  16
ENDBRANCH  13  15
ENDBRANCH  12  13
ENDBRANCH  11  12
ENDBRANCH   1  11
TORSDOF 13
ENDMDL
MODEL 5
REMARK VINA RESULT:      -4.4      1.123      6.125
REMARK  Name = *****
REMARK                            x       y       z     vdW  Elec       q    Type
REMARK                         _______ _______ _______ _____ _____    ______ ____
ROOT
ATOM      1  C   LIG    1       24.893 -18.949   3.680  0.00  0.00    +0.016 C 
ENDROOT
BRANCH   1   2
ATOM      2  C   LIG    1       25.332 -20.114   4.578  0.00  0.00    +0.081 C 
BRANCH   2   3
ATOM      3  N   LIG    1       26.790 -20.234   4.785  0.00  0.00    -0.316 NA
ATOM      4  H   LIG    1       27.234 -19.484   4.258  0.00  0.00    +0.122 HD
BRANCH   3   5
ATOM      5  C   LIG    1       27.264 -20.136   6.178  0.00  0.00    +0.082 C 
BRANCH   5   6
ATOM      6  C   LIG    1       28.778 -20.187   6.337  0.00  0.00    +0.030 C 
BRANCH   6   7
ATOM      7  C   LIG    1       29.474 -18.846   6.236  0.00  0.00    +0.079 C 
BRANCH   7   8
ATOM      8  N   LIG    1       29.160 -18.246   4.938  0.00  0.00    -0.330 NA
ATOM      9  H   LIG    1       28.557 -17.427   5.054  0.00  0.00    +0.118 HD
ATOM     10  H   LIG    1       28.629 -18.909   4.380  0.00  0.00    +0.118 HD
ENDBRANCH   7   8
ENDBRANCH   6   7
ENDBRANCH   5   6
ENDBRANCH   3   5
ENDBRANCH   2   3
ENDBRANCH   1   2
BRANCH   1  11
ATOM     11  C   LIG    1       25.964 -17.923   3.305  0.00  0.00    +0.016 C 
BRANCH  11  12
ATOM     12  C   LIG    1       25.452 -16.476   3.343  0.00  0.00    +0.081 C 
BRANCH  12  13
ATOM     13  N   LIG    1       26.570 -15.537   3.199  0.00  0.00    -0.316 NA
ATOM     14  H   LIG    1       27.223 -15.899   2.502  0.00  0.00    +0.122 HD
BRANCH  13  15
ATOM     15  C   LIG    1       26.099 -14.207   2.778  0.00  0.00    +0.082 C 
BRANCH  15  16
ATOM     16  C   LIG    1       25.166 -13.615   3.841  0.00  0.00    +0.030 C 
BRANCH  16  17
ATOM     17  C   LIG    1       23.978 -12.836   3.262  0.00  0.00    +0.079 C 
BRANCH  17  18
ATOM     18  N   LIG    1       24.368 -11.898   2.216  0.00  0.00    -0.330 NA
ATOM     19  H   LIG    1       24.618 -12.405   1.367  0.00  0.00    +0.118 HD
ATOM     20  H   LIG    1       25.214 -11.405   2.504  0.00  0.00    +0.118 HD
ENDBRANCH  17  18
ENDBRANCH  16  17
ENDBRANCH  15  16
ENDBRANCH  13  15
ENDBRANCH  12  13
ENDBRANCH  11  12
ENDBRANCH   1  11
TORSDOF 13
ENDMDL
MODEL 6
REMARK VINA RESULT:      -4.3      1.559      5.816
REMARK  Name = *****
REMARK                            x       y       z     vdW  Elec       q    Type
REMARK                         _______ _______ _______ _____ _____    ______ ____
ROOT
ATOM      1  C   LIG    1       24.400 -18.847   3.668  0.00  0.00    +0.016 C 
ENDROOT
BRANCH   1   2
ATOM      2  C   LIG    1       24.406 -20.380   3.716  0.00  0.00    +0.081 C 
BRANCH   2   3
ATOM      3  N   LIG    1       25.429 -20.978   4.597  0.00  0.00    -0.316 NA
ATOM      4  H   LIG    1       26.285 -20.439   4.478  0.00  0.00    +0.122 HD
BRANCH   3   5
ATOM      5  C   LIG    1       25.119 -21.002   6.039  0.00  0.00    +0.082 C 
BRANCH   5   6
ATOM      6  C   LIG    1       26.208 -20.419   6.931  0.00  0.00    +0.030 C 
BRANCH   6   7
ATOM      7  C   LIG    1       27.621 -20.799   6.541  0.00  0.00    +0.079 C 
BRANCH   7   8
ATOM      8  N   LIG    1       28.035 -19.975   5.403  0.00  0.00    -0.330 NA
ATOM      9  H   LIG    1       27.234 -19.749   4.808  0.00  0.00    +0.118 HD
ATOM     10  H   LIG    1       28.678 -20.505   4.820  0.00  0.00    +0.118 HD
ENDBRANCH   7   8
ENDBRANCH   6   7
ENDBRANCH   5   6
ENDBRANCH   3   5
ENDBRANCH   2   3
ENDBRANCH   1   2
BRANCH   1  11
ATOM     11  C   LIG    1       25.725 -18.159   3.332  0.00  0.00    +0.016 C 
BRANCH  11  12
ATOM     12  C   LIG    1       25.622 -16.627   3.316  0.00  0.00    +0.081 C 
BRANCH  12  13
ATOM     13  N   LIG    1       26.958 -16.027   3.390  0.00  0.00    -0.316 NA
ATOM     14  H   LIG    1       27.582 -16.517   2.747  0.00  0.00    +0.122 HD
BRANCH  13  15
ATOM     15  C   LIG    1       26.922 -14.598   3.036  0.00  0.00    +0.082 C 
BRANCH  15  16
ATOM     16  C   LIG    1       25.554 -14.000   3.388  0.00  0.00    +0.030 C 
BRANCH  16  17
ATOM     17  C   LIG    1       25.514 -13.302   4.753  0.00  0.00    +0.079 C 
BRANCH  17  18
ATOM     18  N   LIG    1       26.779 -13.386   5.473  0.00  0.00    -0.330 NA
ATOM     19  H   LIG    1       26.702 -14.058   6.237  0.00  0.00    +0.118 HD
ATOM     20  H   LIG    1       26.977 -12.486   5.912  0.00  0.00    +0.118 HD
ENDBRANCH  17  18
ENDBRANCH  16  17
ENDBRANCH  15  16
ENDBRANCH  13  15
ENDBRANCH  12  13
ENDBRANCH  11  12
ENDBRANCH   1  11
TORSDOF 13
ENDMDL
MODEL 7
REMARK VINA RESULT:      -4.3      2.345      3.748
REMARK  Name = *****
REMARK                            x       y       z     vdW  Elec       q    Type
REMARK                         _______ _______ _______ _____ _____    ______ ____
ROOT
ATOM      1  C   LIG    1       25.635 -16.530   3.320  0.00  0.00    +0.016 C 
ENDROOT
BRANCH   1   2
ATOM      2  C   LIG    1       26.671 -15.398   3.348  0.00  0.00    +0.081 C 
BRANCH   2   3
ATOM      3  N   LIG    1       26.598 -14.451   2.217  0.00  0.00    -0.316 NA
ATOM      4  H   LIG    1       25.948 -14.840   1.536  0.00  0.00    +0.122 HD
BRANCH   3   5
ATOM      5  C   LIG    1       26.138 -13.086   2.534  0.00  0.00    +0.082 C 
BRANCH   5   6
ATOM      6  C   LIG    1       24.719 -12.772   2.077  0.00  0.00    +0.030 C 
BRANCH   6   7
ATOM      7  C   LIG    1       23.915 -11.920   3.038  0.00  0.00    +0.079 C 
BRANCH   7   8
ATOM      8  N   LIG    1       24.071 -12.457   4.391  0.00  0.00    -0.330 NA
ATOM      9  H   LIG    1       24.114 -13.479   4.373  0.00  0.00    +0.118 HD
ATOM     10  H   LIG    1       23.252 -12.220   4.944  0.00  0.00    +0.118 HD
ENDBRANCH   7   8
ENDBRANCH   6   7
ENDBRANCH   5   6
ENDBRANCH   3   5
ENDBRANCH   2   3
ENDBRANCH   1   2
BRANCH   1  11
ATOM     11  C   LIG    1       26.175 -17.961   3.325  0.00  0.00    +0.016 C 
BRANCH  11  12
ATOM     12  C   LIG    1       25.120 -19.002   3.729  0.00  0.00    +0.081 C 
BRANCH  12  13
ATOM     13  N   LIG    1       25.768 -20.263   4.105  0.00  0.00    -0.316 NA
ATOM     14  H   LIG    1       26.777 -20.117   4.163  0.00  0.00    +0.122 HD
BRANCH  13  15
ATOM     15  C   LIG    1       25.274 -20.750   5.404  0.00  0.00    +0.082 C 
BRANCH  15  16
ATOM     16  C   LIG    1       23.828 -20.289   5.626  0.00  0.00    +0.030 C 
BRANCH  16  17
ATOM     17  C   LIG    1       22.842 -21.435   5.881  0.00  0.00    +0.079 C 
BRANCH  17  18
ATOM     18  N   LIG    1       21.788 -21.514   4.877  0.00  0.00    -0.330 NA
ATOM     19  H   LIG    1       22.156 -21.918   4.015  0.00  0.00    +0.118 HD
ATOM     20  H   LIG    1       21.483 -20.571   4.634  0.00  0.00    +0.118 HD
ENDBRANCH  17  18
ENDBRANCH  16  17
ENDBRANCH  15  16
ENDBRANCH  13  15
ENDBRANCH  12  13
ENDBRANCH  11  12
ENDBRANCH   1  11
TORSDOF 13
ENDMDL
MODEL 8
REMARK VINA RESULT:      -4.2      2.073      2.853
REMARK  Name = *****
REMARK                            x       y       z     vdW  Elec       q    Type
REMARK                         _______ _______ _______ _____ _____    ______ ____
ROOT
ATOM      1  C   LIG    1       23.532 -18.900   3.608  0.00  0.00    +0.016 C 
ENDROOT
BRANCH   1   2
ATOM      2  C   LIG    1       24.482 -17.703   3.733  0.00  0.00    +0.081 C 
BRANCH   2   3
ATOM      3  N   LIG    1       25.806 -17.880   3.102  0.00  0.00    -0.316 NA
ATOM      4  H   LIG    1       25.669 -17.846   2.093  0.00  0.00    +0.122 HD
BRANCH   3   5
ATOM      5  C   LIG    1       26.833 -16.879   3.442  0.00  0.00    +0.082 C 
BRANCH   5   6
ATOM      6  C   LIG    1       26.330 -15.441   3.480  0.00  0.00    +0.030 C 
BRANCH   6   7
ATOM      7  C   LIG    1       27.417 -14.387   3.490  0.00  0.00    +0.079 C 
BRANCH   7   8
ATOM      8  N   LIG    1       27.101 -13.372   2.483  0.00  0.00    -0.330 NA
ATOM      9  H   LIG    1       26.986 -13.799   1.561  0.00  0.00    +0.118 HD
ATOM     10  H   LIG    1       27.882 -12.726   2.399  0.00  0.00    +0.118 HD
ENDBRANCH   7   8
ENDBRANCH   6   7
ENDBRANCH   5   6
ENDBRANCH   3   5
ENDBRANCH   2   3
ENDBRANCH   1   2
BRANCH   1  11
ATOM     11  C   LIG    1       22.440 -19.031   4.671  0.00  0.00    +0.016 C 
BRANCH  11  12
ATOM     12  C   LIG    1       22.748 -20.108   5.723  0.00  0.00    +0.081 C 
BRANCH  12  13
ATOM     13  N   LIG    1       23.107 -21.370   5.067  0.00  0.00    -0.316 NA
ATOM     14  H   LIG    1       22.764 -21.357   4.105  0.00  0.00    +0.122 HD
BRANCH  13  15
ATOM     15  C   LIG    1       24.566 -21.571   5.059  0.00  0.00    +0.082 C 
BRANCH  15  16
ATOM     16  C   LIG    1       25.165 -21.153   6.408  0.00  0.00    +0.030 C 
BRANCH  16  17
ATOM     17  C   LIG    1       26.530 -20.463   6.295  0.00  0.00    +0.079 C 
BRANCH  17  18
ATOM     18  N   LIG    1       26.913 -20.183   4.916  0.00  0.00    -0.330 NA
ATOM     19  H   LIG    1       27.235 -19.218   4.832  0.00  0.00    +0.118 HD
ATOM     20  H   LIG    1       26.091 -20.254   4.317  0.00  0.00    +0.118 HD
ENDBRANCH  17  18
ENDBRANCH  16  17
ENDBRANCH  15  16
ENDBRANCH  13  15
ENDBRANCH  12  13
ENDBRANCH  11  12
ENDBRANCH   1  11
TORSDOF 13
ENDMDL
MODEL 9
REMARK VINA RESULT:      -4.2      2.170      3.287
REMARK  Name = *****
REMARK                            x       y       z     vdW  Elec       q    Type
REMARK                         _______ _______ _______ _____ _____    ______ ____
ROOT
ATOM      1  C   LIG    1       23.234 -16.946   4.164  0.00  0.00    +0.016 C 
ENDROOT
BRANCH   1   2
ATOM      2  C   LIG    1       23.072 -15.463   4.521  0.00  0.00    +0.081 C 
BRANCH   2   3
ATOM      3  N   LIG    1       24.185 -14.588   4.098  0.00  0.00    -0.316 NA
ATOM      4  H   LIG    1       24.775 -15.131   3.470  0.00  0.00    +0.122 HD
BRANCH   3   5
ATOM      5  C   LIG    1       23.812 -13.348   3.392  0.00  0.00    +0.082 C 
BRANCH   5   6
ATOM      6  C   LIG    1       24.796 -12.912   2.314  0.00  0.00    +0.030 C 
BRANCH   6   7
ATOM      7  C   LIG    1       26.254 -13.147   2.651  0.00  0.00    +0.079 C 
BRANCH   7   8
ATOM      8  N   LIG    1       26.683 -14.408   2.042  0.00  0.00    -0.330 NA
ATOM      9  H   LIG    1       26.482 -14.413   1.039  0.00  0.00    +0.118 HD
ATOM     10  H   LIG    1       26.147 -15.174   2.441  0.00  0.00    +0.118 HD
ENDBRANCH   7   8
ENDBRANCH   6   7
ENDBRANCH   5   6
ENDBRANCH   3   5
ENDBRANCH   2   3
ENDBRANCH   1   2
BRANCH   1  11
ATOM     11  C   LIG    1       22.092 -17.882   4.564  0.00  0.00    +0.016 C 
BRANCH  11  12
ATOM     12  C   LIG    1       22.571 -19.296   4.927  0.00  0.00    +0.081 C 
BRANCH  12  13
ATOM     13  N   LIG    1       23.687 -19.692   4.062  0.00  0.00    -0.316 NA
ATOM     14  H   LIG    1       24.438 -19.007   4.150  0.00  0.00    +0.122 HD
BRANCH  13  15
ATOM     15  C   LIG    1       24.199 -21.023   4.429  0.00  0.00    +0.082 C 
BRANCH  15  16
ATOM     16  C   LIG    1       24.747 -21.003   5.861  0.00  0.00    +0.030 C 
BRANCH  16  17
ATOM     17  C   LIG    1       26.188 -20.488   5.967  0.00  0.00    +0.079 C 
BRANCH  17  18
ATOM     18  N   LIG    1       26.739 -20.068   4.684  0.00  0.00    -0.330 NA
ATOM     19  H   LIG    1       27.301 -19.225   4.804  0.00  0.00    +0.118 HD
ATOM     20  H   LIG    1       25.976 -19.807   4.059  0.00  0.00    +0.118 HD
ENDBRANCH  17  18
ENDBRANCH  16  17
ENDBRANCH  15  16
ENDBRANCH  13  15
ENDBRANCH  12  13
ENDBRANCH  11  12
ENDBRANCH   1  11
TORSDOF 13
ENDMDL
