MODEL 1
REMARK VINA RESULT:      -8.0      0.000      0.000
REMARK  Name = *****
REMARK                            x       y       z     vdW  Elec       q    Type
REMARK                         _______ _______ _______ _____ _____    ______ ____
ROOT
ATOM      1  C   LIG    1       25.827 -20.622   6.820  0.00  0.00    +0.120 A 
ATOM      2  C   LIG    1       26.589 -20.275   5.704  0.00  0.00    +0.046 A 
ATOM      3  C   LIG    1       27.939 -19.917   5.849  0.00  0.00    +0.007 A 
ATOM      4  C   LIG    1       28.558 -19.947   7.106  0.00  0.00    -0.038 A 
ATOM      5  C   LIG    1       27.807 -20.371   8.211  0.00  0.00    +0.007 A 
ATOM      6  C   LIG    1       26.455 -20.704   8.065  0.00  0.00    +0.046 A 
ENDROOT
BRANCH   1   7
ATOM      7  O   LIG    1       24.481 -20.895   6.812  0.00  0.00    -0.492 OA
BRANCH   7   8
ATOM      8  C   LIG    1       23.944 -21.337   5.561  0.00  0.00    +0.229 C 
BRANCH   8   9
ATOM      9  C   LIG    1       22.545 -20.751   5.326  0.00  0.00    +0.041 C 
BRANCH   9  11
ATOM     10  C   LIG    1       23.566 -19.028   3.781  0.00  0.00    +0.004 C 
ATOM     11  C   LIG    1       22.544 -19.285   4.884  0.00  0.00    +0.000 C 
ENDBRANCH   9  11
ENDBRANCH   8   9
ENDBRANCH   7   8
ENDBRANCH   1   7
BRANCH   4  12
ATOM     12  C   LIG    1       30.005 -19.511   7.257  0.00  0.00    +0.133 C 
BRANCH  12  13
ATOM     13  C   LIG    1       30.744 -19.996   8.495  0.00  0.00    +0.240 C 
ATOM     14  N   LIG    1       31.482 -21.143   8.341  0.00  0.00    -0.197 N 
ATOM     15  H   LIG    1       31.458 -21.773   7.533  0.00  0.00    +0.182 HD
ATOM     16  O   LIG    1       30.743 -19.367   9.559  0.00  0.00    -0.273 OA
BRANCH  14  17
ATOM     17  O   LIG    1       32.199 -21.595   9.473  0.00  0.00    -0.295 OA
ATOM     18  H   LIG    1       31.489 -21.657  10.150  0.00  0.00    +0.241 HD
ENDBRANCH  14  17
ENDBRANCH  12  13
ENDBRANCH   4  12
TORSDOF 7
ENDMDL
MODEL 2
REMARK VINA RESULT:      -7.9      0.238      1.224
REMARK  Name = *****
REMARK                            x       y       z     vdW  Elec       q    Type
REMARK                         _______ _______ _______ _____ _____    ______ ____
ROOT
ATOM      1  C   LIG    1       25.699 -20.684   6.934  0.00  0.00    +0.120 A 
ATOM      2  C   LIG    1       26.397 -20.654   8.142  0.00  0.00    +0.046 A 
ATOM      3  C   LIG    1       27.771 -20.369   8.161  0.00  0.00    +0.007 A 
ATOM      4  C   LIG    1       28.456 -20.063   6.978  0.00  0.00    -0.038 A 
ATOM      5  C   LIG    1       27.734 -20.019   5.778  0.00  0.00    +0.007 A 
ATOM      6  C   LIG    1       26.368 -20.328   5.760  0.00  0.00    +0.046 A 
ENDROOT
BRANCH   1   7
ATOM      7  O   LIG    1       24.382 -21.044   6.783  0.00  0.00    -0.492 OA
BRANCH   7   8
ATOM      8  C   LIG    1       23.890 -21.052   5.438  0.00  0.00    +0.229 C 
BRANCH   8   9
ATOM      9  C   LIG    1       22.496 -20.417   5.358  0.00  0.00    +0.041 C 
BRANCH   9  11
ATOM     10  C   LIG    1       23.659 -18.890   3.711  0.00  0.00    +0.004 C 
ATOM     11  C   LIG    1       22.461 -19.066   4.639  0.00  0.00    +0.000 C 
ENDBRANCH   9  11
ENDBRANCH   8   9
ENDBRANCH   7   8
ENDBRANCH   1   7
BRANCH   4  12
ATOM     12  C   LIG    1       29.953 -19.804   7.006  0.00  0.00    +0.133 C 
BRANCH  12  13
ATOM     13  C   LIG    1       30.677 -20.092   8.312  0.00  0.00    +0.240 C 
ATOM     14  N   LIG    1       31.450 -21.226   8.330  0.00  0.00    -0.197 N 
ATOM     15  H   LIG    1       31.462 -21.961   7.615  0.00  0.00    +0.182 HD
ATOM     16  O   LIG    1       30.634 -19.325   9.280  0.00  0.00    -0.273 OA
BRANCH  14  17
ATOM     17  O   LIG    1       32.155 -21.498   9.526  0.00  0.00    -0.295 OA
ATOM     18  H   LIG    1       33.036 -21.768   9.185  0.00  0.00    +0.241 HD
ENDBRANCH  14  17
ENDBRANCH  12  13
ENDBRANCH   4  12
TORSDOF 7
ENDMDL
MODEL 3
REMARK VINA RESULT:      -7.8      5.178      6.957
REMARK  Name = *****
REMARK                            x       y       z     vdW  Elec       q    Type
REMARK                         _______ _______ _______ _____ _____    ______ ____
ROOT
ATOM      1  C   LIG    1       24.130 -23.070   7.201  0.00  0.00    +0.120 A 
ATOM      2  C   LIG    1       25.495 -23.361   7.239  0.00  0.00    +0.046 A 
ATOM      3  C   LIG    1       25.962 -24.621   6.836  0.00  0.00    +0.007 A 
ATOM      4  C   LIG    1       25.079 -25.591   6.344  0.00  0.00    -0.038 A 
ATOM      5  C   LIG    1       23.721 -25.264   6.236  0.00  0.00    +0.007 A 
ATOM      6  C   LIG    1       23.254 -24.015   6.662  0.00  0.00    +0.046 A 
ENDROOT
BRANCH   1   7
ATOM      7  O   LIG    1       23.550 -21.912   7.658  0.00  0.00    -0.492 OA
BRANCH   7   8
ATOM      8  C   LIG    1       24.193 -20.696   7.263  0.00  0.00    +0.229 C 
BRANCH   8   9
ATOM      9  C   LIG    1       24.027 -20.450   5.757  0.00  0.00    +0.041 C 
BRANCH   9  11
ATOM     10  C   LIG    1       22.377 -18.895   4.635  0.00  0.00    +0.004 C 
ATOM     11  C   LIG    1       22.577 -20.248   5.310  0.00  0.00    +0.000 C 
ENDBRANCH   9  11
ENDBRANCH   8   9
ENDBRANCH   7   8
ENDBRANCH   1   7
BRANCH   4  12
ATOM     12  C   LIG    1       25.592 -26.968   5.956  0.00  0.00    +0.133 C 
BRANCH  12  13
ATOM     13  C   LIG    1       24.687 -28.150   6.263  0.00  0.00    +0.240 C 
ATOM     14  N   LIG    1       23.946 -28.627   5.209  0.00  0.00    -0.197 N 
ATOM     15  H   LIG    1       23.832 -28.174   4.297  0.00  0.00    +0.182 HD
ATOM     16  O   LIG    1       24.661 -28.700   7.370  0.00  0.00    -0.273 OA
BRANCH  14  17
ATOM     17  O   LIG    1       23.118 -29.744   5.467  0.00  0.00    -0.295 OA
ATOM     18  H   LIG    1       22.447 -29.363   6.075  0.00  0.00    +0.241 HD
ENDBRANCH  14  17
ENDBRANCH  12  13
ENDBRANCH   4  12
TORSDOF 7
ENDMDL
MODEL 4
REMARK VINA RESULT:      -7.8      1.492      2.626
REMARK  Name = *****
REMARK                            x       y       z     vdW  Elec       q    Type
REMARK                         _______ _______ _______ _____ _____    ______ ____
ROOT
ATOM      1  C   LIG    1       25.286 -20.704   7.061  0.00  0.00    +0.120 A 
ATOM      2  C   LIG    1       26.084 -20.681   8.206  0.00  0.00    +0.046 A 
ATOM      3  C   LIG    1       27.466 -20.457   8.103  0.00  0.00    +0.007 A 
ATOM      4  C   LIG    1       28.061 -20.205   6.861  0.00  0.00    -0.038 A 
ATOM      5  C   LIG    1       27.242 -20.153   5.725  0.00  0.00    +0.007 A 
ATOM      6  C   LIG    1       25.868 -20.402   5.828  0.00  0.00    +0.046 A 
ENDROOT
BRANCH   1   7
ATOM      7  O   LIG    1       23.947 -21.008   7.030  0.00  0.00    -0.492 OA
BRANCH   7   8
ATOM      8  C   LIG    1       23.565 -22.037   6.111  0.00  0.00    +0.229 C 
BRANCH   8   9
ATOM      9  C   LIG    1       23.135 -23.308   6.856  0.00  0.00    +0.041 C 
BRANCH   9  11
ATOM     10  C   LIG    1       25.447 -24.323   6.696  0.00  0.00    +0.004 C 
ATOM     11  C   LIG    1       23.952 -24.552   6.498  0.00  0.00    +0.000 C 
ENDBRANCH   9  11
ENDBRANCH   8   9
ENDBRANCH   7   8
ENDBRANCH   1   7
BRANCH   4  12
ATOM     12  C   LIG    1       29.565 -20.012   6.757  0.00  0.00    +0.133 C 
BRANCH  12  13
ATOM     13  C   LIG    1       30.347 -19.988   8.061  0.00  0.00    +0.240 C 
ATOM     14  N   LIG    1       31.332 -20.936   8.185  0.00  0.00    -0.197 N 
ATOM     15  H   LIG    1       31.482 -21.736   7.563  0.00  0.00    +0.182 HD
ATOM     16  O   LIG    1       30.163 -19.131   8.933  0.00  0.00    -0.273 OA
BRANCH  14  17
ATOM     17  O   LIG    1       32.090 -20.914   9.380  0.00  0.00    -0.295 OA
ATOM     18  H   LIG    1       33.000 -21.075   9.044  0.00  0.00    +0.241 HD
ENDBRANCH  14  17
ENDBRANCH  12  13
ENDBRANCH   4  12
TORSDOF 7
ENDMDL
MODEL 5
REMARK VINA RESULT:      -7.8      5.100      6.857
REMARK  Name = *****
REMARK                            x       y       z     vdW  Elec       q    Type
REMARK                         _______ _______ _______ _____ _____    ______ ____
ROOT
ATOM      1  C   LIG    1       24.134 -22.945   7.098  0.00  0.00    +0.120 A 
ATOM      2  C   LIG    1       23.231 -23.929   6.695  0.00  0.00    +0.046 A 
ATOM      3  C   LIG    1       23.692 -25.190   6.285  0.00  0.00    +0.007 A 
ATOM      4  C   LIG    1       25.057 -25.501   6.319  0.00  0.00    -0.038 A 
ATOM      5  C   LIG    1       25.951 -24.534   6.799  0.00  0.00    +0.007 A 
ATOM      6  C   LIG    1       25.490 -23.269   7.183  0.00  0.00    +0.046 A 
ENDROOT
BRANCH   1   7
ATOM      7  O   LIG    1       23.809 -21.652   7.426  0.00  0.00    -0.492 OA
BRANCH   7   8
ATOM      8  C   LIG    1       23.951 -20.690   6.375  0.00  0.00    +0.229 C 
BRANCH   8   9
ATOM      9  C   LIG    1       22.613 -20.453   5.662  0.00  0.00    +0.041 C 
BRANCH   9  11
ATOM     10  C   LIG    1       23.731 -19.180   3.783  0.00  0.00    +0.004 C 
ATOM     11  C   LIG    1       22.581 -19.198   4.786  0.00  0.00    +0.000 C 
ENDBRANCH   9  11
ENDBRANCH   8   9
ENDBRANCH   7   8
ENDBRANCH   1   7
BRANCH   4  12
ATOM     12  C   LIG    1       25.548 -26.852   5.828  0.00  0.00    +0.133 C 
BRANCH  12  13
ATOM     13  C   LIG    1       24.708 -28.065   6.197  0.00  0.00    +0.240 C 
ATOM     14  N   LIG    1       23.905 -28.563   5.201  0.00  0.00    -0.197 N 
ATOM     15  H   LIG    1       23.707 -28.113   4.303  0.00  0.00    +0.182 HD
ATOM     16  O   LIG    1       24.786 -28.617   7.300  0.00  0.00    -0.273 OA
BRANCH  14  17
ATOM     17  O   LIG    1       23.137 -29.708   5.517  0.00  0.00    -0.295 OA
ATOM     18  H   LIG    1       22.988 -30.103   4.628  0.00  0.00    +0.241 HD
ENDBRANCH  14  17
ENDBRANCH  12  13
ENDBRANCH   4  12
TORSDOF 7
ENDMDL
MODEL 6
REMARK VINA RESULT:      -7.4      1.389      2.162
REMARK  Name = *****
REMARK                            x       y       z     vdW  Elec       q    Type
REMARK                         _______ _______ _______ _____ _____    ______ ____
ROOT
ATOM      1  C   LIG    1       26.923 -20.397   6.589  0.00  0.00    +0.120 A 
ATOM      2  C   LIG    1       27.530 -20.476   7.843  0.00  0.00    +0.046 A 
ATOM      3  C   LIG    1       28.855 -20.049   8.017  0.00  0.00    +0.007 A 
ATOM      4  C   LIG    1       29.576 -19.493   6.953  0.00  0.00    -0.038 A 
ATOM      5  C   LIG    1       28.935 -19.346   5.716  0.00  0.00    +0.007 A 
ATOM      6  C   LIG    1       27.621 -19.796   5.539  0.00  0.00    +0.046 A 
ENDROOT
BRANCH   1   7
ATOM      7  O   LIG    1       25.672 -20.870   6.278  0.00  0.00    -0.492 OA
BRANCH   7   8
ATOM      8  C   LIG    1       24.725 -20.878   7.352  0.00  0.00    +0.229 C 
BRANCH   8   9
ATOM      9  C   LIG    1       23.298 -20.667   6.829  0.00  0.00    +0.041 C 
BRANCH   9  11
ATOM     10  C   LIG    1       22.414 -19.191   4.974  0.00  0.00    +0.004 C 
ATOM     11  C   LIG    1       23.209 -20.447   5.317  0.00  0.00    +0.000 C 
ENDBRANCH   9  11
ENDBRANCH   8   9
ENDBRANCH   7   8
ENDBRANCH   1   7
BRANCH   4  12
ATOM     12  C   LIG    1       31.026 -19.080   7.143  0.00  0.00    +0.133 C 
BRANCH  12  13
ATOM     13  C   LIG    1       31.571 -19.117   8.562  0.00  0.00    +0.240 C 
ATOM     14  N   LIG    1       31.508 -17.936   9.259  0.00  0.00    -0.197 N 
ATOM     15  H   LIG    1       31.276 -17.017   8.871  0.00  0.00    +0.182 HD
ATOM     16  O   LIG    1       31.985 -20.156   9.090  0.00  0.00    -0.273 OA
BRANCH  14  17
ATOM     17  O   LIG    1       31.985 -17.957  10.591  0.00  0.00    -0.295 OA
ATOM     18  H   LIG    1       31.445 -18.676  10.988  0.00  0.00    +0.241 HD
ENDBRANCH  14  17
ENDBRANCH  12  13
ENDBRANCH   4  12
TORSDOF 7
ENDMDL
MODEL 7
REMARK VINA RESULT:      -7.3      4.944      6.644
REMARK  Name = *****
REMARK                            x       y       z     vdW  Elec       q    Type
REMARK                         _______ _______ _______ _____ _____    ______ ____
ROOT
ATOM      1  C   LIG    1       24.148 -22.501   6.906  0.00  0.00    +0.120 A 
ATOM      2  C   LIG    1       25.507 -22.781   7.054  0.00  0.00    +0.046 A 
ATOM      3  C   LIG    1       25.970 -24.104   6.986  0.00  0.00    +0.007 A 
ATOM      4  C   LIG    1       25.088 -25.160   6.721  0.00  0.00    -0.038 A 
ATOM      5  C   LIG    1       23.737 -24.863   6.496  0.00  0.00    +0.007 A 
ATOM      6  C   LIG    1       23.275 -23.544   6.589  0.00  0.00    +0.046 A 
ENDROOT
BRANCH   1   7
ATOM      7  O   LIG    1       23.570 -21.263   7.048  0.00  0.00    -0.492 OA
BRANCH   7   8
ATOM      8  C   LIG    1       22.933 -20.736   5.879  0.00  0.00    +0.229 C 
BRANCH   8   9
ATOM      9  C   LIG    1       23.971 -20.229   4.869  0.00  0.00    +0.041 C 
BRANCH   9  11
ATOM     10  C   LIG    1       22.232 -18.437   4.467  0.00  0.00    +0.004 C 
ATOM     11  C   LIG    1       23.437 -19.177   3.895  0.00  0.00    +0.000 C 
ENDBRANCH   9  11
ENDBRANCH   8   9
ENDBRANCH   7   8
ENDBRANCH   1   7
BRANCH   4  12
ATOM     12  C   LIG    1       25.594 -26.593   6.697  0.00  0.00    +0.133 C 
BRANCH  12  13
ATOM     13  C   LIG    1       24.934 -27.539   5.707  0.00  0.00    +0.240 C 
ATOM     14  N   LIG    1       23.952 -28.352   6.219  0.00  0.00    -0.197 N 
ATOM     15  H   LIG    1       23.737 -28.487   7.212  0.00  0.00    +0.182 HD
ATOM     16  O   LIG    1       25.206 -27.538   4.501  0.00  0.00    -0.273 OA
BRANCH  14  17
ATOM     17  O   LIG    1       23.306 -29.221   5.308  0.00  0.00    -0.295 OA
ATOM     18  H   LIG    1       23.058 -28.605   4.583  0.00  0.00    +0.241 HD
ENDBRANCH  14  17
ENDBRANCH  12  13
ENDBRANCH   4  12
TORSDOF 7
ENDMDL
MODEL 8
REMARK VINA RESULT:      -7.2      5.283      7.378
REMARK  Name = *****
REMARK                            x       y       z     vdW  Elec       q    Type
REMARK                         _______ _______ _______ _____ _____    ______ ____
ROOT
ATOM      1  C   LIG    1       24.571 -23.220   7.079  0.00  0.00    +0.120 A 
ATOM      2  C   LIG    1       25.892 -23.610   6.854  0.00  0.00    +0.046 A 
ATOM      3  C   LIG    1       26.176 -24.874   6.314  0.00  0.00    +0.007 A 
ATOM      4  C   LIG    1       25.144 -25.746   5.947  0.00  0.00    -0.038 A 
ATOM      5  C   LIG    1       23.819 -25.318   6.104  0.00  0.00    +0.007 A 
ATOM      6  C   LIG    1       23.539 -24.066   6.666  0.00  0.00    +0.046 A 
ENDROOT
BRANCH   1   7
ATOM      7  O   LIG    1       24.177 -22.054   7.688  0.00  0.00    -0.492 OA
BRANCH   7   8
ATOM      8  C   LIG    1       24.904 -20.879   7.310  0.00  0.00    +0.229 C 
BRANCH   8   9
ATOM      9  C   LIG    1       25.927 -20.495   8.388  0.00  0.00    +0.041 C 
BRANCH   9  11
ATOM     10  C   LIG    1       27.596 -20.149   6.518  0.00  0.00    +0.004 C 
ATOM     11  C   LIG    1       27.386 -20.639   7.948  0.00  0.00    +0.000 C 
ENDBRANCH   9  11
ENDBRANCH   8   9
ENDBRANCH   7   8
ENDBRANCH   1   7
BRANCH   4  12
ATOM     12  C   LIG    1       25.466 -27.130   5.409  0.00  0.00    +0.133 C 
BRANCH  12  13
ATOM     13  C   LIG    1       24.658 -28.291   5.968  0.00  0.00    +0.240 C 
ATOM     14  N   LIG    1       23.863 -28.956   5.067  0.00  0.00    -0.197 N 
ATOM     15  H   LIG    1       23.649 -28.654   4.112  0.00  0.00    +0.182 HD
ATOM     16  O   LIG    1       24.754 -28.665   7.142  0.00  0.00    -0.273 OA
BRANCH  14  17
ATOM     17  O   LIG    1       23.124 -30.057   5.562  0.00  0.00    -0.295 OA
ATOM     18  H   LIG    1       22.991 -29.804   6.503  0.00  0.00    +0.241 HD
ENDBRANCH  14  17
ENDBRANCH  12  13
ENDBRANCH   4  12
TORSDOF 7
ENDMDL
MODEL 9
REMARK VINA RESULT:      -7.0      2.448      3.389
REMARK  Name = *****
REMARK                            x       y       z     vdW  Elec       q    Type
REMARK                         _______ _______ _______ _____ _____    ______ ____
ROOT
ATOM      1  C   LIG    1       25.569 -22.039   6.249  0.00  0.00    +0.120 A 
ATOM      2  C   LIG    1       26.567 -22.398   7.155  0.00  0.00    +0.046 A 
ATOM      3  C   LIG    1       27.738 -21.632   7.262  0.00  0.00    +0.007 A 
ATOM      4  C   LIG    1       27.906 -20.469   6.498  0.00  0.00    -0.038 A 
ATOM      5  C   LIG    1       26.867 -20.072   5.647  0.00  0.00    +0.007 A 
ATOM      6  C   LIG    1       25.710 -20.853   5.525  0.00  0.00    +0.046 A 
ENDROOT
BRANCH   1   7
ATOM      7  O   LIG    1       24.430 -22.762   5.990  0.00  0.00    -0.492 OA
BRANCH   7   8
ATOM      8  C   LIG    1       24.187 -23.873   6.860  0.00  0.00    +0.229 C 
BRANCH   8   9
ATOM      9  C   LIG    1       24.055 -25.177   6.063  0.00  0.00    +0.041 C 
BRANCH   9  11
ATOM     10  C   LIG    1       25.736 -26.857   5.197  0.00  0.00    +0.004 C 
ATOM     11  C   LIG    1       25.202 -25.433   5.082  0.00  0.00    +0.000 C 
ENDBRANCH   9  11
ENDBRANCH   8   9
ENDBRANCH   7   8
ENDBRANCH   1   7
BRANCH   4  12
ATOM     12  C   LIG    1       29.198 -19.675   6.587  0.00  0.00    +0.133 C 
BRANCH  12  13
ATOM     13  C   LIG    1       29.943 -19.720   7.912  0.00  0.00    +0.240 C 
ATOM     14  N   LIG    1       31.122 -20.424   7.913  0.00  0.00    -0.197 N 
ATOM     15  H   LIG    1       31.461 -21.036   7.164  0.00  0.00    +0.182 HD
ATOM     16  O   LIG    1       29.557 -19.108   8.915  0.00  0.00    -0.273 OA
BRANCH  14  17
ATOM     17  O   LIG    1       31.845 -20.454   9.128  0.00  0.00    -0.295 OA
ATOM     18  H   LIG    1       31.452 -19.697   9.616  0.00  0.00    +0.241 HD
ENDBRANCH  14  17
ENDBRANCH  12  13
ENDBRANCH   4  12
TORSDOF 7
ENDMDL
