MODEL 1
REMARK VINA RESULT:       2.7      0.000      0.000
REMARK  Name = *****
REMARK                            x       y       z     vdW  Elec       q    Type
REMARK                         _______ _______ _______ _____ _____    ______ ____
ROOT
ATOM      1  N   LIG    1       26.452 -14.061   1.818  0.00  0.00    -0.298 NA
ATOM      2  C   LIG    1       27.532 -14.830   2.488  0.00  0.00    +0.100 C 
ATOM      3  C   LIG    1       27.216 -15.217   3.951  0.00  0.00    +0.100 C 
ATOM      4  N   LIG    1       25.978 -16.017   4.121  0.00  0.00    -0.289 NA
ATOM      5  C   LIG    1       24.887 -15.320   3.388  0.00  0.00    +0.100 C 
ATOM      6  C   LIG    1       25.214 -14.860   1.942  0.00  0.00    +0.100 C 
ENDROOT
BRANCH   1   7
ATOM      7  C   LIG    1       26.320 -12.697   2.392  0.00  0.00    +0.112 C 
BRANCH   7   8
ATOM      8  C   LIG    1       25.143 -11.857   1.820  0.00  0.00    +0.176 C 
BRANCH   8   9
ATOM      9  O   LIG    1       24.203 -11.488   2.852  0.00  0.00    -0.367 OA
BRANCH   9  10
ATOM     10  C   LIG    1       24.771 -11.635   4.172  0.00  0.00    +0.279 C 
BRANCH  10  12
ATOM     11  O   LIG    1       23.353 -11.457   6.160  0.00  0.00    -0.248 OA
ATOM     12  C   LIG    1       23.707 -12.091   5.193  0.00  0.00    +0.331 C 
BRANCH  12  13
ATOM     13  O   LIG    1       23.232 -13.335   4.877  0.00  0.00    -0.479 OA
ATOM     14  H   LIG    1       22.598 -13.604   5.575  0.00  0.00    +0.295 HD
ENDBRANCH  12  13
ENDBRANCH  10  12
ENDBRANCH   9  10
ENDBRANCH   8   9
ENDBRANCH   7   8
ENDBRANCH   1   7
BRANCH   4  15
ATOM     15  C   LIG    1       26.197 -17.439   3.721  0.00  0.00    +0.117 C 
BRANCH  15  16
ATOM     16  C   LIG    1       24.905 -18.269   3.777  0.00  0.00    -0.026 A 
ATOM     17  C   LIG    1       24.881 -19.561   3.218  0.00  0.00    +0.007 A 
ATOM     18  C   LIG    1       23.723 -20.341   3.264  0.00  0.00    +0.020 A 
ATOM     19  C   LIG    1       22.584 -19.846   3.891  0.00  0.00    +0.041 A 
ATOM     20 CL   LIG    1       21.179 -20.832   4.008  0.00  0.00    -0.084 Cl
ATOM     21  C   LIG    1       22.575 -18.561   4.425  0.00  0.00    +0.020 A 
ATOM     22  C   LIG    1       23.721 -17.768   4.346  0.00  0.00    +0.007 A 
ENDBRANCH  15  16
BRANCH  15  23
ATOM     23  C   LIG    1       27.327 -18.142   4.523  0.00  0.00    -0.026 A 
ATOM     24  C   LIG    1       27.185 -19.484   4.921  0.00  0.00    +0.005 A 
ATOM     25  C   LIG    1       28.164 -20.111   5.702  0.00  0.00    +0.000 A 
ATOM     26  C   LIG    1       29.299 -19.410   6.104  0.00  0.00    +0.000 A 
ATOM     27  C   LIG    1       29.474 -18.091   5.699  0.00  0.00    +0.000 A 
ATOM     28  C   LIG    1       28.499 -17.465   4.917  0.00  0.00    +0.005 A 
ENDBRANCH  15  23
ENDBRANCH   4  15
TORSDOF 9
ENDMDL
MODEL 2
REMARK VINA RESULT:       2.8      1.291      1.425
REMARK  Name = *****
REMARK                            x       y       z     vdW  Elec       q    Type
REMARK                         _______ _______ _______ _____ _____    ______ ____
ROOT
ATOM      1  N   LIG    1       25.624 -14.048   1.821  0.00  0.00    -0.298 NA
ATOM      2  C   LIG    1       26.880 -14.767   2.155  0.00  0.00    +0.100 C 
ATOM      3  C   LIG    1       27.009 -15.151   3.647  0.00  0.00    +0.100 C 
ATOM      4  N   LIG    1       25.905 -15.997   4.161  0.00  0.00    -0.289 NA
ATOM      5  C   LIG    1       24.623 -15.352   3.770  0.00  0.00    +0.100 C 
ATOM      6  C   LIG    1       24.505 -14.893   2.291  0.00  0.00    +0.100 C 
ENDROOT
BRANCH   1   7
ATOM      7  C   LIG    1       25.605 -12.684   2.410  0.00  0.00    +0.112 C 
BRANCH   7   8
ATOM      8  C   LIG    1       24.291 -12.310   3.154  0.00  0.00    +0.176 C 
BRANCH   8   9
ATOM      9  O   LIG    1       24.312 -12.757   4.527  0.00  0.00    -0.367 OA
BRANCH   9  10
ATOM     10  C   LIG    1       25.214 -11.968   5.334  0.00  0.00    +0.279 C 
BRANCH  10  12
ATOM     11  O   LIG    1       27.559 -12.539   4.922  0.00  0.00    -0.248 OA
ATOM     12  C   LIG    1       26.550 -12.706   5.566  0.00  0.00    +0.331 C 
BRANCH  12  13
ATOM     13  O   LIG    1       26.435 -13.609   6.587  0.00  0.00    -0.479 OA
ATOM     14  H   LIG    1       26.308 -14.499   6.194  0.00  0.00    +0.295 HD
ENDBRANCH  12  13
ENDBRANCH  10  12
ENDBRANCH   9  10
ENDBRANCH   8   9
ENDBRANCH   7   8
ENDBRANCH   1   7
BRANCH   4  15
ATOM     15  C   LIG    1       26.059 -17.414   3.713  0.00  0.00    +0.117 C 
BRANCH  15  16
ATOM     16  C   LIG    1       24.749 -18.210   3.828  0.00  0.00    -0.026 A 
ATOM     17  C   LIG    1       24.740 -19.585   3.522  0.00  0.00    +0.007 A 
ATOM     18  C   LIG    1       23.567 -20.335   3.628  0.00  0.00    +0.020 A 
ATOM     19  C   LIG    1       22.395 -19.723   4.064  0.00  0.00    +0.041 A 
ATOM     20 CL   LIG    1       20.966 -20.660   4.259  0.00  0.00    -0.084 Cl
ATOM     21  C   LIG    1       22.374 -18.360   4.343  0.00  0.00    +0.020 A 
ATOM     22  C   LIG    1       23.538 -17.603   4.201  0.00  0.00    +0.007 A 
ENDBRANCH  15  16
BRANCH  15  23
ATOM     23  C   LIG    1       27.215 -18.167   4.426  0.00  0.00    -0.026 A 
ATOM     24  C   LIG    1       27.020 -19.477   4.902  0.00  0.00    +0.005 A 
ATOM     25  C   LIG    1       28.031 -20.144   5.607  0.00  0.00    +0.000 A 
ATOM     26  C   LIG    1       29.250 -19.517   5.852  0.00  0.00    +0.000 A 
ATOM     27  C   LIG    1       29.474 -18.232   5.366  0.00  0.00    +0.000 A 
ATOM     28  C   LIG    1       28.468 -17.566   4.661  0.00  0.00    +0.005 A 
ENDBRANCH  15  23
ENDBRANCH   4  15
TORSDOF 9
ENDMDL
MODEL 3
REMARK VINA RESULT:       3.0      2.544      4.734
REMARK  Name = *****
REMARK                            x       y       z     vdW  Elec       q    Type
REMARK                         _______ _______ _______ _____ _____    ______ ____
ROOT
ATOM      1  N   LIG    1       25.581 -14.838   3.588  0.00  0.00    -0.298 NA
ATOM      2  C   LIG    1       24.261 -15.498   3.756  0.00  0.00    +0.100 C 
ATOM      3  C   LIG    1       24.129 -16.843   3.005  0.00  0.00    +0.100 C 
ATOM      4  N   LIG    1       25.144 -17.858   3.379  0.00  0.00    -0.289 NA
ATOM      5  C   LIG    1       26.480 -17.207   3.305  0.00  0.00    +0.100 C 
ATOM      6  C   LIG    1       26.609 -15.821   3.992  0.00  0.00    +0.100 C 
ENDROOT
BRANCH   1   7
ATOM      7  C   LIG    1       25.769 -14.344   2.199  0.00  0.00    +0.112 C 
BRANCH   7   8
ATOM      8  C   LIG    1       25.487 -12.828   1.999  0.00  0.00    +0.176 C 
BRANCH   8   9
ATOM      9  O   LIG    1       26.624 -12.021   2.376  0.00  0.00    -0.367 OA
BRANCH   9  10
ATOM     10  C   LIG    1       27.717 -12.831   2.863  0.00  0.00    +0.279 C 
BRANCH  10  12
ATOM     11  O   LIG    1       29.033 -12.463   4.895  0.00  0.00    -0.248 OA
ATOM     12  C   LIG    1       27.952 -12.607   4.372  0.00  0.00    +0.331 C 
BRANCH  12  13
ATOM     13  O   LIG    1       26.767 -12.624   5.056  0.00  0.00    -0.479 OA
ATOM     14  H   LIG    1       26.409 -11.711   5.068  0.00  0.00    +0.295 HD
ENDBRANCH  12  13
ENDBRANCH  10  12
ENDBRANCH   9  10
ENDBRANCH   8   9
ENDBRANCH   7   8
ENDBRANCH   1   7
BRANCH   4  15
ATOM     15  C   LIG    1       24.820 -18.483   4.696  0.00  0.00    +0.117 C 
BRANCH  15  16
ATOM     16  C   LIG    1       26.019 -19.231   5.300  0.00  0.00    -0.026 A 
ATOM     17  C   LIG    1       25.815 -20.132   6.363  0.00  0.00    +0.007 A 
ATOM     18  C   LIG    1       26.885 -20.833   6.924  0.00  0.00    +0.020 A 
ATOM     19  C   LIG    1       28.167 -20.658   6.412  0.00  0.00    +0.041 A 
ATOM     20 CL   LIG    1       29.475 -21.571   7.057  0.00  0.00    -0.084 Cl
ATOM     21  C   LIG    1       28.397 -19.751   5.381  0.00  0.00    +0.020 A 
ATOM     22  C   LIG    1       27.333 -19.023   4.846  0.00  0.00    +0.007 A 
ENDBRANCH  15  16
BRANCH  15  23
ATOM     23  C   LIG    1       23.571 -19.407   4.653  0.00  0.00    -0.026 A 
ATOM     24  C   LIG    1       22.336 -18.908   4.201  0.00  0.00    +0.005 A 
ATOM     25  C   LIG    1       21.186 -19.708   4.220  0.00  0.00    +0.000 A 
ATOM     26  C   LIG    1       21.247 -21.017   4.695  0.00  0.00    +0.000 A 
ATOM     27  C   LIG    1       22.464 -21.539   5.122  0.00  0.00    +0.000 A 
ATOM     28  C   LIG    1       23.612 -20.743   5.101  0.00  0.00    +0.005 A 
ENDBRANCH  15  23
ENDBRANCH   4  15
TORSDOF 9
ENDMDL
MODEL 4
REMARK VINA RESULT:       3.5      2.087      4.347
REMARK  Name = *****
REMARK                            x       y       z     vdW  Elec       q    Type
REMARK                         _______ _______ _______ _____ _____    ______ ____
ROOT
ATOM      1  N   LIG    1       26.533 -14.761   3.654  0.00  0.00    -0.298 NA
ATOM      2  C   LIG    1       25.110 -15.160   3.805  0.00  0.00    +0.100 C 
ATOM      3  C   LIG    1       24.709 -16.394   2.964  0.00  0.00    +0.100 C 
ATOM      4  N   LIG    1       25.507 -17.612   3.243  0.00  0.00    -0.289 NA
ATOM      5  C   LIG    1       26.944 -17.233   3.185  0.00  0.00    +0.100 C 
ATOM      6  C   LIG    1       27.350 -15.954   3.965  0.00  0.00    +0.100 C 
ENDROOT
BRANCH   1   7
ATOM      7  C   LIG    1       26.803 -14.212   2.300  0.00  0.00    +0.112 C 
BRANCH   7   8
ATOM      8  C   LIG    1       26.814 -12.659   2.213  0.00  0.00    +0.176 C 
BRANCH   8   9
ATOM      9  O   LIG    1       25.475 -12.121   2.142  0.00  0.00    -0.367 OA
BRANCH   9  10
ATOM     10  C   LIG    1       25.067 -11.536   3.399  0.00  0.00    +0.279 C 
BRANCH  10  12
ATOM     11  O   LIG    1       23.392 -12.247   5.037  0.00  0.00    -0.248 OA
ATOM     12  C   LIG    1       23.724 -12.125   3.881  0.00  0.00    +0.331 C 
BRANCH  12  13
ATOM     13  O   LIG    1       22.960 -12.527   2.819  0.00  0.00    -0.479 OA
ATOM     14  H   LIG    1       22.152 -11.972   2.797  0.00  0.00    +0.295 HD
ENDBRANCH  12  13
ENDBRANCH  10  12
ENDBRANCH   9  10
ENDBRANCH   8   9
ENDBRANCH   7   8
ENDBRANCH   1   7
BRANCH   4  15
ATOM     15  C   LIG    1       25.076 -18.258   4.519  0.00  0.00    +0.117 C 
BRANCH  15  16
ATOM     16  C   LIG    1       26.207 -19.064   5.178  0.00  0.00    -0.026 A 
ATOM     17  C   LIG    1       25.892 -20.144   6.024  0.00  0.00    +0.007 A 
ATOM     18  C   LIG    1       26.899 -20.900   6.628  0.00  0.00    +0.020 A 
ATOM     19  C   LIG    1       28.233 -20.598   6.373  0.00  0.00    +0.041 A 
ATOM     20 CL   LIG    1       29.474 -21.570   7.062  0.00  0.00    -0.084 Cl
ATOM     21  C   LIG    1       28.569 -19.517   5.563  0.00  0.00    +0.020 A 
ATOM     22  C   LIG    1       27.561 -18.739   4.989  0.00  0.00    +0.007 A 
ENDBRANCH  15  16
BRANCH  15  23
ATOM     23  C   LIG    1       23.802 -19.134   4.372  0.00  0.00    -0.026 A 
ATOM     24  C   LIG    1       22.528 -18.537   4.371  0.00  0.00    +0.005 A 
ATOM     25  C   LIG    1       21.367 -19.319   4.308  0.00  0.00    +0.000 A 
ATOM     26  C   LIG    1       21.456 -20.708   4.249  0.00  0.00    +0.000 A 
ATOM     27  C   LIG    1       22.706 -21.317   4.220  0.00  0.00    +0.000 A 
ATOM     28  C   LIG    1       23.865 -20.539   4.281  0.00  0.00    +0.005 A 
ENDBRANCH  15  23
ENDBRANCH   4  15
TORSDOF 9
ENDMDL
MODEL 5
REMARK VINA RESULT:       3.8      4.205      7.488
REMARK  Name = *****
REMARK                            x       y       z     vdW  Elec       q    Type
REMARK                         _______ _______ _______ _____ _____    ______ ____
ROOT
ATOM      1  N   LIG    1       23.936 -20.484   4.231  0.00  0.00    -0.298 NA
ATOM      2  C   LIG    1       23.918 -19.246   5.051  0.00  0.00    +0.100 C 
ATOM      3  C   LIG    1       25.290 -18.539   5.157  0.00  0.00    +0.100 C 
ATOM      4  N   LIG    1       25.885 -18.157   3.853  0.00  0.00    -0.289 NA
ATOM      5  C   LIG    1       25.843 -19.354   2.971  0.00  0.00    +0.100 C 
ATOM      6  C   LIG    1       24.493 -20.118   2.911  0.00  0.00    +0.100 C 
ENDROOT
BRANCH   1   7
ATOM      7  C   LIG    1       24.701 -21.568   4.901  0.00  0.00    +0.112 C 
BRANCH   7   8
ATOM      8  C   LIG    1       24.611 -21.572   6.453  0.00  0.00    +0.176 C 
BRANCH   8   9
ATOM      9  O   LIG    1       25.915 -21.447   7.062  0.00  0.00    -0.367 OA
BRANCH   9  10
ATOM     10  C   LIG    1       26.974 -21.569   6.087  0.00  0.00    +0.279 C 
BRANCH  10  12
ATOM     11  O   LIG    1       28.233 -19.485   6.345  0.00  0.00    -0.248 OA
ATOM     12  C   LIG    1       28.185 -20.687   6.462  0.00  0.00    +0.331 C 
BRANCH  12  13
ATOM     13  O   LIG    1       29.222 -21.454   6.919  0.00  0.00    -0.479 OA
ATOM     14  H   LIG    1       28.862 -22.328   7.181  0.00  0.00    +0.295 HD
ENDBRANCH  12  13
ENDBRANCH  10  12
ENDBRANCH   9  10
ENDBRANCH   8   9
ENDBRANCH   7   8
ENDBRANCH   1   7
BRANCH   4  15
ATOM     15  C   LIG    1       25.225 -16.940   3.296  0.00  0.00    +0.117 C 
BRANCH  15  16
ATOM     16  C   LIG    1       26.157 -15.718   3.291  0.00  0.00    -0.026 A 
ATOM     17  C   LIG    1       25.788 -14.561   2.577  0.00  0.00    +0.007 A 
ATOM     18  C   LIG    1       26.611 -13.433   2.564  0.00  0.00    +0.020 A 
ATOM     19  C   LIG    1       27.802 -13.442   3.284  0.00  0.00    +0.041 A 
ATOM     20 CL   LIG    1       28.784 -12.030   3.323  0.00  0.00    -0.084 Cl
ATOM     21  C   LIG    1       28.202 -14.583   3.972  0.00  0.00    +0.020 A 
ATOM     22  C   LIG    1       27.396 -15.724   3.954  0.00  0.00    +0.007 A 
ENDBRANCH  15  16
BRANCH  15  23
ATOM     23  C   LIG    1       23.879 -16.591   3.990  0.00  0.00    -0.026 A 
ATOM     24  C   LIG    1       23.727 -15.366   4.666  0.00  0.00    +0.005 A 
ATOM     25  C   LIG    1       22.544 -15.066   5.354  0.00  0.00    +0.000 A 
ATOM     26  C   LIG    1       21.496 -15.983   5.385  0.00  0.00    +0.000 A 
ATOM     27  C   LIG    1       21.614 -17.188   4.700  0.00  0.00    +0.000 A 
ATOM     28  C   LIG    1       22.792 -17.488   4.011  0.00  0.00    +0.005 A 
ENDBRANCH  15  23
ENDBRANCH   4  15
TORSDOF 9
ENDMDL
MODEL 6
REMARK VINA RESULT:       4.8      3.140      5.613
REMARK  Name = *****
REMARK                            x       y       z     vdW  Elec       q    Type
REMARK                         _______ _______ _______ _____ _____    ______ ____
ROOT
ATOM      1  N   LIG    1       23.785 -15.346   4.727  0.00  0.00    -0.298 NA
ATOM      2  C   LIG    1       24.597 -16.590   4.715  0.00  0.00    +0.100 C 
ATOM      3  C   LIG    1       25.104 -16.999   3.313  0.00  0.00    +0.100 C 
ATOM      4  N   LIG    1       25.925 -15.968   2.632  0.00  0.00    -0.289 NA
ATOM      5  C   LIG    1       25.180 -14.683   2.698  0.00  0.00    +0.100 C 
ATOM      6  C   LIG    1       24.601 -14.293   4.085  0.00  0.00    +0.100 C 
ENDROOT
BRANCH   1   7
ATOM      7  C   LIG    1       22.473 -15.548   4.060  0.00  0.00    +0.112 C 
BRANCH   7   8
ATOM      8  C   LIG    1       21.603 -16.690   4.656  0.00  0.00    +0.176 C 
BRANCH   8   9
ATOM      9  O   LIG    1       21.961 -17.976   4.102  0.00  0.00    -0.367 OA
BRANCH   9  10
ATOM     10  C   LIG    1       22.341 -18.915   5.133  0.00  0.00    +0.279 C 
BRANCH  10  12
ATOM     11  O   LIG    1       23.853 -20.329   3.825  0.00  0.00    -0.248 OA
ATOM     12  C   LIG    1       22.871 -20.231   4.523  0.00  0.00    +0.331 C 
BRANCH  12  13
ATOM     13  O   LIG    1       22.058 -21.282   4.852  0.00  0.00    -0.479 OA
ATOM     14  H   LIG    1       21.345 -21.336   4.182  0.00  0.00    +0.295 HD
ENDBRANCH  12  13
ENDBRANCH  10  12
ENDBRANCH   9  10
ENDBRANCH   8   9
ENDBRANCH   7   8
ENDBRANCH   1   7
BRANCH   4  15
ATOM     15  C   LIG    1       27.308 -15.925   3.193  0.00  0.00    +0.117 C 
BRANCH  15  16
ATOM     16  C   LIG    1       27.639 -17.171   4.030  0.00  0.00    -0.026 A 
ATOM     17  C   LIG    1       28.800 -17.187   4.827  0.00  0.00    +0.007 A 
ATOM     18  C   LIG    1       29.120 -18.302   5.605  0.00  0.00    +0.020 A 
ATOM     19  C   LIG    1       28.270 -19.404   5.613  0.00  0.00    +0.041 A 
ATOM     20 CL   LIG    1       28.628 -20.750   6.622  0.00  0.00    -0.084 Cl
ATOM     21  C   LIG    1       27.133 -19.422   4.810  0.00  0.00    +0.020 A 
ATOM     22  C   LIG    1       26.833 -18.322   4.004  0.00  0.00    +0.007 A 
ENDBRANCH  15  16
BRANCH  15  23
ATOM     23  C   LIG    1       27.609 -14.634   4.003  0.00  0.00    -0.026 A 
ATOM     24  C   LIG    1       28.414 -13.621   3.449  0.00  0.00    +0.005 A 
ATOM     25  C   LIG    1       28.750 -12.482   4.192  0.00  0.00    +0.000 A 
ATOM     26  C   LIG    1       28.293 -12.334   5.499  0.00  0.00    +0.000 A 
ATOM     27  C   LIG    1       27.473 -13.310   6.057  0.00  0.00    +0.000 A 
ATOM     28  C   LIG    1       27.135 -14.446   5.317  0.00  0.00    +0.005 A 
ENDBRANCH  15  23
ENDBRANCH   4  15
TORSDOF 9
ENDMDL
