MODEL 1
REMARK VINA RESULT:      -6.1      0.000      0.000
REMARK  Name = *****
REMARK                            x       y       z     vdW  Elec       q    Type
REMARK                         _______ _______ _______ _____ _____    ______ ____
ROOT
ATOM      1  C   LIG    1       26.715 -28.688  12.488  0.00  0.00    +0.239 C 
ATOM      2  N   LIG    1       26.055 -28.751  11.272  0.00  0.00    -0.300 N 
ATOM      3  H   LIG    1       25.086 -28.439  11.259  0.00  0.00    +0.150 HD
ATOM      4  O   LIG    1       27.903 -28.986  12.592  0.00  0.00    -0.273 OA
ENDROOT
BRANCH   2   5
ATOM      5  CA  LIG    1       26.726 -29.170  10.000  0.00  0.00    +0.191 C 
ATOM      6  C   LIG    1       26.302 -30.527   9.357  0.00  0.00    +0.169 C 
ATOM      7  N   LIG    1       25.820 -29.779   8.214  0.00  0.00    -0.249 N 
ATOM      8  CA  LIG    1       25.017 -30.250   7.207  0.00  0.00    +0.123 C 
ATOM      9  C   LIG    1       24.449 -31.487   7.334  0.00  0.00    -0.021 C 
ATOM     10  C   LIG    1       24.606 -32.352   8.582  0.00  0.00    +0.104 C 
ATOM     11  S   LIG    1       24.911 -31.407  10.097  0.00  0.00    -0.131 S 
ATOM     12  C   LIG    1       26.269 -28.556   8.633  0.00  0.00    +0.244 C 
ATOM     13  O   LIG    1       26.264 -27.461   8.160  0.00  0.00    -0.273 OA
BRANCH   8  14
ATOM     14  C   LIG    1       24.851 -29.336   6.018  0.00  0.00    +0.351 C 
ATOM     15  O   LIG    1       25.399 -29.422   4.936  0.00  0.00    -0.244 OA
BRANCH  14  16
ATOM     16  OXT LIG    1       23.946 -28.357   6.152  0.00  0.00    -0.476 OA
ATOM     17  HXT LIG    1       24.347 -27.669   5.578  0.00  0.00    +0.295 HD
ENDBRANCH  14  16
ENDBRANCH   8  14
BRANCH   9  18
ATOM     18  C   LIG    1       23.539 -32.159   6.318  0.00  0.00    +0.111 C 
BRANCH  18  19
ATOM     19  S   LIG    1       24.164 -33.825   5.927  0.00  0.00    -0.080 S 
BRANCH  19  20
ATOM     20  C   LIG    1       25.179 -33.426   4.589  0.00  0.00    +0.209 C 
ATOM     21  N   LIG    1       26.500 -33.101   4.677  0.00  0.00    -0.223 NA
ATOM     22  C   LIG    1       27.389 -33.099   5.802  0.00  0.00    +0.177 C 
ATOM     23  N   LIG    1       26.955 -32.751   3.461  0.00  0.00    -0.043 NA
ATOM     24  N   LIG    1       25.921 -32.910   2.645  0.00  0.00    -0.022 NA
ATOM     25  N   LIG    1       24.807 -33.333   3.333  0.00  0.00    -0.102 NA
ENDBRANCH  19  20
ENDBRANCH  18  19
ENDBRANCH   9  18
ENDBRANCH   2   5
BRANCH   1  26
ATOM     26  CA  LIG    1       25.847 -28.246  13.707  0.00  0.00    +0.190 C 
BRANCH  26  27
ATOM     27  C   LIG    1       25.855 -26.726  13.865  0.00  0.00    -0.018 C 
ATOM     28  C   LIG    1       24.700 -25.964  13.628  0.00  0.00    +0.009 C 
ATOM     29  C   LIG    1       24.689 -24.590  13.894  0.00  0.00    +0.045 C 
ATOM     30  C   LIG    1       25.819 -23.977  14.420  0.00  0.00    +0.117 C 
ATOM     31  C   LIG    1       26.989 -24.697  14.620  0.00  0.00    +0.045 C 
ATOM     32  C   LIG    1       27.009 -26.062  14.328  0.00  0.00    +0.009 C 
BRANCH  30  33
ATOM     33  O   LIG    1       25.741 -22.655  14.748  0.00  0.00    -0.507 OA
ATOM     34  H   LIG    1       24.896 -22.312  14.412  0.00  0.00    +0.292 HD
ENDBRANCH  30  33
ENDBRANCH  26  27
BRANCH  26  36
ATOM     35  C   LIG    1       24.051 -29.988  13.885  0.00  0.00    +0.250 C 
ATOM     36  N   LIG    1       24.475 -28.731  13.552  0.00  0.00    -0.296 N 
ATOM     37  H   LIG    1       23.841 -28.144  13.012  0.00  0.00    +0.150 HD
ATOM     38  O   LIG    1       24.802 -30.823  14.384  0.00  0.00    -0.270 OA
BRANCH  35  44
ATOM     39  C   LIG    1       18.308 -30.813  13.245  0.00  0.00    +0.063 C 
ATOM     40  C   LIG    1       19.804 -30.668  13.238  0.00  0.00    +0.017 C 
ATOM     41  N   LIG    1       20.502 -31.139  14.331  0.00  0.00    -0.364 NA
ATOM     42  H   LIG    1       19.971 -31.490  15.125  0.00  0.00    +0.165 HD
ATOM     43  C   LIG    1       21.851 -30.920  14.489  0.00  0.00    +0.099 C 
ATOM     44  C   LIG    1       22.616 -30.279  13.588  0.00  0.00    +0.099 C 
ATOM     45  C   LIG    1       21.925 -29.865  12.328  0.00  0.00    +0.194 C 
ATOM     46  O   LIG    1       22.533 -29.325  11.405  0.00  0.00    -0.287 OA
ATOM     47  C   LIG    1       20.454 -30.082  12.218  0.00  0.00    +0.072 C 
ENDBRANCH  35  44
ENDBRANCH  26  36
ENDBRANCH   1  26
TORSDOF 11
ENDMDL
MODEL 2
REMARK VINA RESULT:      -6.0      3.164      9.721
REMARK  Name = *****
REMARK                            x       y       z     vdW  Elec       q    Type
REMARK                         _______ _______ _______ _____ _____    ______ ____
ROOT
ATOM      1  C   LIG    1       25.379 -31.476   8.865  0.00  0.00    +0.239 C 
ATOM      2  N   LIG    1       24.192 -30.882   9.264  0.00  0.00    -0.300 N 
ATOM      3  H   LIG    1       23.741 -30.263   8.592  0.00  0.00    +0.150 HD
ATOM      4  O   LIG    1       25.967 -32.283   9.582  0.00  0.00    -0.273 OA
ENDROOT
BRANCH   2   5
ATOM      5  CA  LIG    1       23.532 -31.176  10.576  0.00  0.00    +0.191 C 
ATOM      6  C   LIG    1       24.107 -30.496  11.857  0.00  0.00    +0.169 C 
ATOM      7  N   LIG    1       22.843 -29.805  11.998  0.00  0.00    -0.249 N 
ATOM      8  CA  LIG    1       22.580 -28.739  12.821  0.00  0.00    +0.123 C 
ATOM      9  C   LIG    1       23.618 -28.123  13.463  0.00  0.00    -0.021 C 
ATOM     10  C   LIG    1       25.078 -28.519  13.256  0.00  0.00    +0.104 C 
ATOM     11  S   LIG    1       25.414 -29.270  11.642  0.00  0.00    -0.131 S 
ATOM     12  C   LIG    1       22.206 -30.441  10.968  0.00  0.00    +0.244 C 
ATOM     13  O   LIG    1       21.099 -30.405  10.525  0.00  0.00    -0.273 OA
BRANCH   8  14
ATOM     14  C   LIG    1       21.127 -28.354  12.952  0.00  0.00    +0.351 C 
ATOM     15  O   LIG    1       20.628 -27.263  12.750  0.00  0.00    -0.244 OA
BRANCH  14  16
ATOM     16  OXT LIG    1       20.283 -29.347  13.265  0.00  0.00    -0.476 OA
ATOM     17  HXT LIG    1       19.745 -29.382  12.444  0.00  0.00    +0.295 HD
ENDBRANCH  14  16
ENDBRANCH   8  14
BRANCH   9  18
ATOM     18  C   LIG    1       23.505 -26.937  14.407  0.00  0.00    +0.111 C 
BRANCH  18  19
ATOM     19  S   LIG    1       24.965 -26.865  15.495  0.00  0.00    -0.080 S 
BRANCH  19  20
ATOM     20  C   LIG    1       25.494 -25.262  15.131  0.00  0.00    +0.209 C 
ATOM     21  N   LIG    1       26.677 -24.945  14.531  0.00  0.00    -0.223 NA
ATOM     22  C   LIG    1       27.696 -25.784  13.973  0.00  0.00    +0.177 C 
ATOM     23  N   LIG    1       26.811 -23.607  14.492  0.00  0.00    -0.043 NA
ATOM     24  N   LIG    1       25.694 -23.131  15.026  0.00  0.00    -0.022 NA
ATOM     25  N   LIG    1       24.861 -24.150  15.427  0.00  0.00    -0.102 NA
ENDBRANCH  19  20
ENDBRANCH  18  19
ENDBRANCH   9  18
ENDBRANCH   2   5
BRANCH   1  26
ATOM     26  CA  LIG    1       25.923 -31.032   7.472  0.00  0.00    +0.190 C 
BRANCH  26  27
ATOM     27  C   LIG    1       25.333 -31.889   6.353  0.00  0.00    -0.018 C 
ATOM     28  C   LIG    1       23.951 -32.118   6.264  0.00  0.00    +0.009 C 
ATOM     29  C   LIG    1       23.413 -32.801   5.168  0.00  0.00    +0.045 C 
ATOM     30  C   LIG    1       24.247 -33.236   4.146  0.00  0.00    +0.117 C 
ATOM     31  C   LIG    1       25.622 -33.065   4.230  0.00  0.00    +0.045 C 
ATOM     32  C   LIG    1       26.162 -32.408   5.337  0.00  0.00    +0.009 C 
BRANCH  30  33
ATOM     33  O   LIG    1       23.676 -33.820   3.053  0.00  0.00    -0.507 OA
ATOM     34  H   LIG    1       23.284 -33.117   2.508  0.00  0.00    +0.292 HD
ENDBRANCH  30  33
ENDBRANCH  26  27
BRANCH  26  36
ATOM     35  C   LIG    1       25.690 -28.999   6.022  0.00  0.00    +0.250 C 
ATOM     36  N   LIG    1       25.623 -29.619   7.239  0.00  0.00    -0.296 N 
ATOM     37  H   LIG    1       25.517 -29.032   8.065  0.00  0.00    +0.150 HD
ATOM     38  O   LIG    1       25.985 -29.604   4.993  0.00  0.00    -0.270 OA
BRANCH  35  44
ATOM     39  C   LIG    1       24.244 -23.375   6.608  0.00  0.00    +0.063 C 
ATOM     40  C   LIG    1       24.722 -24.769   6.314  0.00  0.00    +0.017 C 
ATOM     41  N   LIG    1       23.777 -25.773   6.248  0.00  0.00    -0.364 NA
ATOM     42  H   LIG    1       22.814 -25.542   6.479  0.00  0.00    +0.165 HD
ATOM     43  C   LIG    1       24.124 -27.099   6.136  0.00  0.00    +0.099 C 
ATOM     44  C   LIG    1       25.392 -27.535   6.032  0.00  0.00    +0.099 C 
ATOM     45  C   LIG    1       26.441 -26.471   5.969  0.00  0.00    +0.194 C 
ATOM     46  O   LIG    1       27.630 -26.744   5.814  0.00  0.00    -0.287 OA
ATOM     47  C   LIG    1       26.024 -25.049   6.139  0.00  0.00    +0.072 C 
ENDBRANCH  35  44
ENDBRANCH  26  36
ENDBRANCH   1  26
TORSDOF 11
ENDMDL
MODEL 3
REMARK VINA RESULT:      -5.6      3.803      8.688
REMARK  Name = *****
REMARK                            x       y       z     vdW  Elec       q    Type
REMARK                         _______ _______ _______ _____ _____    ______ ____
ROOT
ATOM      1  C   LIG    1       26.530 -28.580   9.577  0.00  0.00    +0.239 C 
ATOM      2  N   LIG    1       25.372 -28.665  10.332  0.00  0.00    -0.300 N 
ATOM      3  H   LIG    1       24.489 -28.621   9.825  0.00  0.00    +0.150 HD
ATOM      4  O   LIG    1       27.642 -28.683  10.090  0.00  0.00    -0.273 OA
ENDROOT
BRANCH   2   5
ATOM      5  CA  LIG    1       25.377 -28.897  11.812  0.00  0.00    +0.191 C 
ATOM      6  C   LIG    1       24.034 -29.293  12.499  0.00  0.00    +0.169 C 
ATOM      7  N   LIG    1       24.644 -30.559  12.851  0.00  0.00    -0.249 N 
ATOM      8  CA  LIG    1       23.999 -31.677  13.313  0.00  0.00    +0.123 C 
ATOM      9  C   LIG    1       22.632 -31.711  13.297  0.00  0.00    -0.021 C 
ATOM     10  C   LIG    1       21.778 -30.585  12.720  0.00  0.00    +0.104 C 
ATOM     11  S   LIG    1       22.610 -29.613  11.437  0.00  0.00    -0.131 S 
ATOM     12  C   LIG    1       25.896 -30.257  12.390  0.00  0.00    +0.244 C 
ATOM     13  O   LIG    1       26.943 -30.829  12.390  0.00  0.00    -0.273 OA
BRANCH   8  14
ATOM     14  C   LIG    1       24.888 -32.784  13.824  0.00  0.00    +0.351 C 
ATOM     15  O   LIG    1       25.317 -32.928  14.953  0.00  0.00    -0.244 OA
BRANCH  14  16
ATOM     16  OXT LIG    1       25.184 -33.752  12.945  0.00  0.00    -0.476 OA
ATOM     17  HXT LIG    1       25.417 -34.481  13.562  0.00  0.00    +0.295 HD
ENDBRANCH  14  16
ENDBRANCH   8  14
BRANCH   9  18
ATOM     18  C   LIG    1       21.763 -32.864  13.771  0.00  0.00    +0.111 C 
BRANCH  18  19
ATOM     19  S   LIG    1       21.168 -33.825  12.342  0.00  0.00    -0.080 S 
BRANCH  19  20
ATOM     20  C   LIG    1       19.497 -33.395  12.403  0.00  0.00    +0.209 C 
ATOM     21  N   LIG    1       18.863 -32.585  11.508  0.00  0.00    -0.223 NA
ATOM     22  C   LIG    1       19.332 -31.990  10.291  0.00  0.00    +0.177 C 
ATOM     23  N   LIG    1       17.596 -32.381  11.911  0.00  0.00    -0.043 NA
ATOM     24  N   LIG    1       17.464 -33.102  13.017  0.00  0.00    -0.022 NA
ATOM     25  N   LIG    1       18.640 -33.742  13.336  0.00  0.00    -0.102 NA
ENDBRANCH  19  20
ENDBRANCH  18  19
ENDBRANCH   9  18
ENDBRANCH   2   5
BRANCH   1  26
ATOM     26  CA  LIG    1       26.326 -28.317   8.052  0.00  0.00    +0.190 C 
BRANCH  26  27
ATOM     27  C   LIG    1       25.406 -29.369   7.432  0.00  0.00    -0.018 C 
ATOM     28  C   LIG    1       24.400 -29.008   6.521  0.00  0.00    +0.009 C 
ATOM     29  C   LIG    1       23.647 -29.991   5.869  0.00  0.00    +0.045 C 
ATOM     30  C   LIG    1       23.910 -31.335   6.105  0.00  0.00    +0.117 C 
ATOM     31  C   LIG    1       24.866 -31.719   7.035  0.00  0.00    +0.045 C 
ATOM     32  C   LIG    1       25.599 -30.738   7.706  0.00  0.00    +0.009 C 
BRANCH  30  33
ATOM     33  O   LIG    1       23.215 -32.263   5.386  0.00  0.00    -0.507 OA
ATOM     34  H   LIG    1       22.271 -32.037   5.437  0.00  0.00    +0.292 HD
ENDBRANCH  30  33
ENDBRANCH  26  27
BRANCH  26  36
ATOM     35  C   LIG    1       26.134 -26.145   6.813  0.00  0.00    +0.250 C 
ATOM     36  N   LIG    1       25.779 -26.977   7.839  0.00  0.00    -0.296 N 
ATOM     37  H   LIG    1       25.222 -26.585   8.597  0.00  0.00    +0.150 HD
ATOM     38  O   LIG    1       26.939 -26.478   5.947  0.00  0.00    -0.270 OA
BRANCH  35  44
ATOM     39  C   LIG    1       24.010 -20.721   6.434  0.00  0.00    +0.063 C 
ATOM     40  C   LIG    1       24.408 -22.157   6.635  0.00  0.00    +0.017 C 
ATOM     41  N   LIG    1       25.706 -22.418   7.020  0.00  0.00    -0.364 NA
ATOM     42  H   LIG    1       26.357 -21.637   7.075  0.00  0.00    +0.165 HD
ATOM     43  C   LIG    1       26.209 -23.697   7.084  0.00  0.00    +0.099 C 
ATOM     44  C   LIG    1       25.484 -24.800   6.827  0.00  0.00    +0.099 C 
ATOM     45  C   LIG    1       24.037 -24.570   6.531  0.00  0.00    +0.194 C 
ATOM     46  O   LIG    1       23.261 -25.505   6.340  0.00  0.00    -0.287 OA
ATOM     47  C   LIG    1       23.544 -23.166   6.429  0.00  0.00    +0.072 C 
ENDBRANCH  35  44
ENDBRANCH  26  36
ENDBRANCH   1  26
TORSDOF 11
ENDMDL
MODEL 4
REMARK VINA RESULT:      -5.3      1.509      2.026
REMARK  Name = *****
REMARK                            x       y       z     vdW  Elec       q    Type
REMARK                         _______ _______ _______ _____ _____    ______ ____
ROOT
ATOM      1  C   LIG    1       25.227 -30.075  13.367  0.00  0.00    +0.239 C 
ATOM      2  N   LIG    1       25.246 -29.701  12.033  0.00  0.00    -0.300 N 
ATOM      3  H   LIG    1       24.732 -28.857  11.786  0.00  0.00    +0.150 HD
ATOM      4  O   LIG    1       25.865 -31.045  13.772  0.00  0.00    -0.273 OA
ENDROOT
BRANCH   2   5
ATOM      5  CA  LIG    1       26.041 -30.427  10.992  0.00  0.00    +0.191 C 
ATOM      6  C   LIG    1       25.328 -31.544  10.169  0.00  0.00    +0.169 C 
ATOM      7  N   LIG    1       25.541 -30.739   8.984  0.00  0.00    -0.249 N 
ATOM      8  CA  LIG    1       24.953 -30.916   7.757  0.00  0.00    +0.123 C 
ATOM      9  C   LIG    1       23.935 -31.819   7.633  0.00  0.00    -0.021 C 
ATOM     10  C   LIG    1       23.363 -32.598   8.814  0.00  0.00    +0.104 C 
ATOM     11  S   LIG    1       23.552 -31.759  10.409  0.00  0.00    -0.131 S 
ATOM     12  C   LIG    1       26.288 -29.768   9.593  0.00  0.00    +0.244 C 
ATOM     13  O   LIG    1       26.854 -28.790   9.209  0.00  0.00    -0.273 OA
BRANCH   8  14
ATOM     14  C   LIG    1       25.520 -30.086   6.632  0.00  0.00    +0.351 C 
ATOM     15  O   LIG    1       25.330 -28.905   6.414  0.00  0.00    -0.244 OA
BRANCH  14  16
ATOM     16  OXT LIG    1       26.383 -30.711   5.819  0.00  0.00    -0.476 OA
ATOM     17  HXT LIG    1       27.185 -30.162   5.962  0.00  0.00    +0.295 HD
ENDBRANCH  14  16
ENDBRANCH   8  14
BRANCH   9  18
ATOM     18  C   LIG    1       23.179 -32.140   6.353  0.00  0.00    +0.111 C 
BRANCH  18  19
ATOM     19  S   LIG    1       23.591 -33.823   5.790  0.00  0.00    -0.080 S 
BRANCH  19  20
ATOM     20  C   LIG    1       25.287 -33.619   5.546  0.00  0.00    +0.209 C 
ATOM     21  N   LIG    1       25.872 -33.269   4.365  0.00  0.00    -0.223 NA
ATOM     22  C   LIG    1       25.291 -32.894   3.109  0.00  0.00    +0.177 C 
ATOM     23  N   LIG    1       27.209 -33.298   4.504  0.00  0.00    -0.043 NA
ATOM     24  N   LIG    1       27.419 -33.620   5.774  0.00  0.00    -0.022 NA
ATOM     25  N   LIG    1       26.230 -33.820   6.438  0.00  0.00    -0.102 NA
ENDBRANCH  19  20
ENDBRANCH  18  19
ENDBRANCH   9  18
ENDBRANCH   2   5
BRANCH   1  26
ATOM     26  CA  LIG    1       24.327 -29.208  14.300  0.00  0.00    +0.190 C 
BRANCH  26  27
ATOM     27  C   LIG    1       24.689 -27.727  14.193  0.00  0.00    -0.018 C 
ATOM     28  C   LIG    1       23.766 -26.786  13.711  0.00  0.00    +0.009 C 
ATOM     29  C   LIG    1       24.068 -25.420  13.733  0.00  0.00    +0.045 C 
ATOM     30  C   LIG    1       25.280 -24.987  14.256  0.00  0.00    +0.117 C 
ATOM     31  C   LIG    1       26.230 -25.898  14.696  0.00  0.00    +0.045 C 
ATOM     32  C   LIG    1       25.940 -27.263  14.649  0.00  0.00    +0.009 C 
BRANCH  30  33
ATOM     33  O   LIG    1       25.501 -23.643  14.341  0.00  0.00    -0.507 OA
ATOM     34  H   LIG    1       24.957 -23.206  13.664  0.00  0.00    +0.292 HD
ENDBRANCH  30  33
ENDBRANCH  26  27
BRANCH  26  36
ATOM     35  C   LIG    1       22.199 -30.535  14.267  0.00  0.00    +0.250 C 
ATOM     36  N   LIG    1       22.915 -29.409  13.970  0.00  0.00    -0.296 N 
ATOM     37  H   LIG    1       22.493 -28.731  13.337  0.00  0.00    +0.150 HD
ATOM     38  O   LIG    1       22.688 -31.481  14.879  0.00  0.00    -0.270 OA
BRANCH  35  44
ATOM     39  C   LIG    1       16.632 -31.126  12.615  0.00  0.00    +0.063 C 
ATOM     40  C   LIG    1       18.049 -30.795  12.992  0.00  0.00    +0.017 C 
ATOM     41  N   LIG    1       19.047 -31.633  12.539  0.00  0.00    -0.364 NA
ATOM     42  H   LIG    1       18.777 -32.477  12.040  0.00  0.00    +0.165 HD
ATOM     43  C   LIG    1       20.354 -31.505  12.951  0.00  0.00    +0.099 C 
ATOM     44  C   LIG    1       20.785 -30.540  13.783  0.00  0.00    +0.099 C 
ATOM     45  C   LIG    1       19.760 -29.533  14.195  0.00  0.00    +0.194 C 
ATOM     46  O   LIG    1       20.049 -28.570  14.904  0.00  0.00    -0.287 OA
ATOM     47  C   LIG    1       18.347 -29.735  13.761  0.00  0.00    +0.072 C 
ENDBRANCH  35  44
ENDBRANCH  26  36
ENDBRANCH   1  26
TORSDOF 11
ENDMDL
MODEL 5
REMARK VINA RESULT:      -5.2      3.749      8.390
REMARK  Name = *****
REMARK                            x       y       z     vdW  Elec       q    Type
REMARK                         _______ _______ _______ _____ _____    ______ ____
ROOT
ATOM      1  C   LIG    1       27.001 -28.691   9.507  0.00  0.00    +0.239 C 
ATOM      2  N   LIG    1       26.604 -27.752  10.447  0.00  0.00    -0.300 N 
ATOM      3  H   LIG    1       25.931 -27.053  10.140  0.00  0.00    +0.150 HD
ATOM      4  O   LIG    1       27.764 -29.609   9.798  0.00  0.00    -0.273 OA
ENDROOT
BRANCH   2   5
ATOM      5  CA  LIG    1       27.057 -27.784  11.874  0.00  0.00    +0.191 C 
ATOM      6  C   LIG    1       25.973 -27.925  12.987  0.00  0.00    +0.169 C 
ATOM      7  N   LIG    1       26.572 -29.195  13.341  0.00  0.00    -0.249 N 
ATOM      8  CA  LIG    1       26.027 -30.160  14.150  0.00  0.00    +0.123 C 
ATOM      9  C   LIG    1       24.726 -30.035  14.550  0.00  0.00    -0.021 C 
ATOM     10  C   LIG    1       23.816 -28.904  14.080  0.00  0.00    +0.104 C 
ATOM     11  S   LIG    1       24.269 -28.216  12.467  0.00  0.00    -0.131 S 
ATOM     12  C   LIG    1       27.635 -29.107  12.483  0.00  0.00    +0.244 C 
ATOM     13  O   LIG    1       28.586 -29.792  12.263  0.00  0.00    -0.273 OA
BRANCH   8  14
ATOM     14  C   LIG    1       26.953 -31.284  14.545  0.00  0.00    +0.351 C 
ATOM     15  O   LIG    1       27.856 -31.250  15.358  0.00  0.00    -0.244 OA
BRANCH  14  16
ATOM     16  OXT LIG    1       26.704 -32.474  13.979  0.00  0.00    -0.476 OA
ATOM     17  HXT LIG    1       27.051 -33.073  14.676  0.00  0.00    +0.295 HD
ENDBRANCH  14  16
ENDBRANCH   8  14
BRANCH   9  18
ATOM     18  C   LIG    1       23.971 -31.006  15.443  0.00  0.00    +0.111 C 
BRANCH  18  19
ATOM     19  S   LIG    1       22.341 -31.379  14.720  0.00  0.00    -0.080 S 
BRANCH  19  20
ATOM     20  C   LIG    1       22.855 -32.319  13.366  0.00  0.00    +0.209 C 
ATOM     21  N   LIG    1       22.420 -32.151  12.085  0.00  0.00    -0.223 NA
ATOM     22  C   LIG    1       21.561 -31.156  11.513  0.00  0.00    +0.177 C 
ATOM     23  N   LIG    1       22.945 -33.113  11.306  0.00  0.00    -0.043 NA
ATOM     24  N   LIG    1       23.724 -33.824  12.112  0.00  0.00    -0.022 NA
ATOM     25  N   LIG    1       23.681 -33.340  13.399  0.00  0.00    -0.102 NA
ENDBRANCH  19  20
ENDBRANCH  18  19
ENDBRANCH   9  18
ENDBRANCH   2   5
BRANCH   1  26
ATOM     26  CA  LIG    1       26.440 -28.484   8.066  0.00  0.00    +0.190 C 
BRANCH  26  27
ATOM     27  C   LIG    1       25.381 -29.535   7.733  0.00  0.00    -0.018 C 
ATOM     28  C   LIG    1       25.257 -30.056   6.435  0.00  0.00    +0.009 C 
ATOM     29  C   LIG    1       24.367 -31.103   6.173  0.00  0.00    +0.045 C 
ATOM     30  C   LIG    1       23.617 -31.650   7.206  0.00  0.00    +0.117 C 
ATOM     31  C   LIG    1       23.686 -31.124   8.489  0.00  0.00    +0.045 C 
ATOM     32  C   LIG    1       24.553 -30.061   8.745  0.00  0.00    +0.009 C 
BRANCH  30  33
ATOM     33  O   LIG    1       22.826 -32.727   6.929  0.00  0.00    -0.507 OA
ATOM     34  H   LIG    1       23.356 -33.531   7.063  0.00  0.00    +0.292 HD
ENDBRANCH  30  33
ENDBRANCH  26  27
BRANCH  26  36
ATOM     35  C   LIG    1       26.088 -26.313   6.861  0.00  0.00    +0.250 C 
ATOM     36  N   LIG    1       25.879 -27.140   7.930  0.00  0.00    -0.296 N 
ATOM     37  H   LIG    1       25.441 -26.741   8.759  0.00  0.00    +0.150 HD
ATOM     38  O   LIG    1       26.756 -26.655   5.888  0.00  0.00    -0.270 OA
BRANCH  35  44
ATOM     39  C   LIG    1       24.074 -20.834   6.879  0.00  0.00    +0.063 C 
ATOM     40  C   LIG    1       24.436 -22.291   6.963  0.00  0.00    +0.017 C 
ATOM     41  N   LIG    1       25.701 -22.615   7.406  0.00  0.00    -0.364 NA
ATOM     42  H   LIG    1       26.358 -21.858   7.580  0.00  0.00    +0.165 HD
ATOM     43  C   LIG    1       26.180 -23.905   7.376  0.00  0.00    +0.099 C 
ATOM     44  C   LIG    1       25.459 -24.962   6.964  0.00  0.00    +0.099 C 
ATOM     45  C   LIG    1       24.038 -24.674   6.597  0.00  0.00    +0.194 C 
ATOM     46  O   LIG    1       23.263 -25.569   6.264  0.00  0.00    -0.287 OA
ATOM     47  C   LIG    1       23.574 -23.256   6.601  0.00  0.00    +0.072 C 
ENDBRANCH  35  44
ENDBRANCH  26  36
ENDBRANCH   1  26
TORSDOF 11
ENDMDL
MODEL 6
REMARK VINA RESULT:      -5.0      6.291      8.901
REMARK  Name = *****
REMARK                            x       y       z     vdW  Elec       q    Type
REMARK                         _______ _______ _______ _____ _____    ______ ____
ROOT
ATOM      1  C   LIG    1       25.158 -24.265   6.206  0.00  0.00    +0.239 C 
ATOM      2  N   LIG    1       25.655 -25.329   6.942  0.00  0.00    -0.300 N 
ATOM      3  H   LIG    1       25.583 -25.259   7.956  0.00  0.00    +0.150 HD
ATOM      4  O   LIG    1       25.147 -24.283   4.978  0.00  0.00    -0.273 OA
ENDROOT
BRANCH   2   5
ATOM      5  CA  LIG    1       26.201 -26.573   6.312  0.00  0.00    +0.191 C 
ATOM      6  C   LIG    1       26.590 -27.761   7.246  0.00  0.00    +0.169 C 
ATOM      7  N   LIG    1       25.557 -28.543   6.599  0.00  0.00    -0.249 N 
ATOM      8  CA  LIG    1       25.046 -29.741   7.030  0.00  0.00    +0.123 C 
ATOM      9  C   LIG    1       25.388 -30.201   8.271  0.00  0.00    -0.021 C 
ATOM     10  C   LIG    1       26.262 -29.409   9.241  0.00  0.00    +0.104 C 
ATOM     11  S   LIG    1       26.190 -27.616   9.000  0.00  0.00    -0.131 S 
ATOM     12  C   LIG    1       25.229 -27.610   5.654  0.00  0.00    +0.244 C 
ATOM     13  O   LIG    1       24.470 -27.588   4.734  0.00  0.00    -0.273 OA
BRANCH   8  14
ATOM     14  C   LIG    1       24.147 -30.460   6.056  0.00  0.00    +0.351 C 
ATOM     15  O   LIG    1       24.224 -31.618   5.691  0.00  0.00    -0.244 OA
BRANCH  14  16
ATOM     16  OXT LIG    1       23.105 -29.756   5.590  0.00  0.00    -0.476 OA
ATOM     17  HXT LIG    1       22.875 -30.291   4.798  0.00  0.00    +0.295 HD
ENDBRANCH  14  16
ENDBRANCH   8  14
BRANCH   9  18
ATOM     18  C   LIG    1       24.917 -31.502   8.901  0.00  0.00    +0.111 C 
BRANCH  18  19
ATOM     19  S   LIG    1       24.603 -31.255  10.679  0.00  0.00    -0.080 S 
BRANCH  19  20
ATOM     20  C   LIG    1       22.913 -30.908  10.610  0.00  0.00    +0.209 C 
ATOM     21  N   LIG    1       22.243 -30.098  11.479  0.00  0.00    -0.223 NA
ATOM     22  C   LIG    1       22.724 -29.280  12.553  0.00  0.00    +0.177 C 
ATOM     23  N   LIG    1       20.929 -30.130  11.194  0.00  0.00    -0.043 NA
ATOM     24  N   LIG    1       20.823 -30.919  10.133  0.00  0.00    -0.022 NA
ATOM     25  N   LIG    1       22.052 -31.410   9.754  0.00  0.00    -0.102 NA
ENDBRANCH  19  20
ENDBRANCH  18  19
ENDBRANCH   9  18
ENDBRANCH   2   5
BRANCH   1  26
ATOM     26  CA  LIG    1       24.649 -23.047   7.038  0.00  0.00    +0.190 C 
BRANCH  26  27
ATOM     27  C   LIG    1       25.816 -22.202   7.547  0.00  0.00    -0.018 C 
ATOM     28  C   LIG    1       27.122 -22.407   7.073  0.00  0.00    +0.009 C 
ATOM     29  C   LIG    1       28.158 -21.547   7.455  0.00  0.00    +0.045 C 
ATOM     30  C   LIG    1       27.892 -20.469   8.290  0.00  0.00    +0.117 C 
ATOM     31  C   LIG    1       26.620 -20.272   8.810  0.00  0.00    +0.045 C 
ATOM     32  C   LIG    1       25.592 -21.145   8.451  0.00  0.00    +0.009 C 
BRANCH  30  33
ATOM     33  O   LIG    1       28.909 -19.604   8.569  0.00  0.00    -0.507 OA
ATOM     34  H   LIG    1       28.536 -18.708   8.618  0.00  0.00    +0.292 HD
ENDBRANCH  30  33
ENDBRANCH  26  27
BRANCH  26  36
ATOM     35  C   LIG    1       24.148 -21.269   5.341  0.00  0.00    +0.250 C 
ATOM     36  N   LIG    1       23.745 -22.227   6.230  0.00  0.00    -0.296 N 
ATOM     37  H   LIG    1       22.756 -22.265   6.470  0.00  0.00    +0.150 HD
ATOM     38  O   LIG    1       25.335 -21.037   5.121  0.00  0.00    -0.270 OA
BRANCH  35  44
ATOM     39  C   LIG    1       19.550 -18.339   3.257  0.00  0.00    +0.063 C 
ATOM     40  C   LIG    1       20.818 -19.053   3.633  0.00  0.00    +0.017 C 
ATOM     41  N   LIG    1       20.709 -20.325   4.157  0.00  0.00    -0.364 NA
ATOM     42  H   LIG    1       19.778 -20.691   4.340  0.00  0.00    +0.165 HD
ATOM     43  C   LIG    1       21.792 -21.001   4.670  0.00  0.00    +0.099 C 
ATOM     44  C   LIG    1       23.047 -20.517   4.668  0.00  0.00    +0.099 C 
ATOM     45  C   LIG    1       23.231 -19.196   3.992  0.00  0.00    +0.194 C 
ATOM     46  O   LIG    1       24.341 -18.681   3.873  0.00  0.00    -0.287 OA
ATOM     47  C   LIG    1       22.024 -18.478   3.490  0.00  0.00    +0.072 C 
ENDBRANCH  35  44
ENDBRANCH  26  36
ENDBRANCH   1  26
TORSDOF 11
ENDMDL
MODEL 7
REMARK VINA RESULT:      -4.7      6.251      8.949
REMARK  Name = *****
REMARK                            x       y       z     vdW  Elec       q    Type
REMARK                         _______ _______ _______ _____ _____    ______ ____
ROOT
ATOM      1  C   LIG    1       25.150 -24.281   6.176  0.00  0.00    +0.239 C 
ATOM      2  N   LIG    1       25.642 -25.353   6.903  0.00  0.00    -0.300 N 
ATOM      3  H   LIG    1       25.563 -25.295   7.916  0.00  0.00    +0.150 HD
ATOM      4  O   LIG    1       25.147 -24.284   4.947  0.00  0.00    -0.273 OA
ENDROOT
BRANCH   2   5
ATOM      5  CA  LIG    1       26.193 -26.589   6.262  0.00  0.00    +0.191 C 
ATOM      6  C   LIG    1       26.623 -27.769   7.189  0.00  0.00    +0.169 C 
ATOM      7  N   LIG    1       25.587 -28.569   6.568  0.00  0.00    -0.249 N 
ATOM      8  CA  LIG    1       25.106 -29.773   7.014  0.00  0.00    +0.123 C 
ATOM      9  C   LIG    1       25.485 -30.225   8.248  0.00  0.00    -0.021 C 
ATOM     10  C   LIG    1       26.369 -29.417   9.195  0.00  0.00    +0.104 C 
ATOM     11  S   LIG    1       26.263 -27.625   8.951  0.00  0.00    -0.131 S 
ATOM     12  C   LIG    1       25.222 -27.643   5.629  0.00  0.00    +0.244 C 
ATOM     13  O   LIG    1       24.441 -27.636   4.728  0.00  0.00    -0.273 OA
BRANCH   8  14
ATOM     14  C   LIG    1       24.195 -30.509   6.063  0.00  0.00    +0.351 C 
ATOM     15  O   LIG    1       24.291 -31.661   5.686  0.00  0.00    -0.244 OA
BRANCH  14  16
ATOM     16  OXT LIG    1       23.120 -29.831   5.638  0.00  0.00    -0.476 OA
ATOM     17  HXT LIG    1       22.648 -29.703   6.490  0.00  0.00    +0.295 HD
ENDBRANCH  14  16
ENDBRANCH   8  14
BRANCH   9  18
ATOM     18  C   LIG    1       25.050 -31.532   8.892  0.00  0.00    +0.111 C 
BRANCH  18  19
ATOM     19  S   LIG    1       23.762 -31.212  10.141  0.00  0.00    -0.080 S 
BRANCH  19  20
ATOM     20  C   LIG    1       24.743 -31.262  11.560  0.00  0.00    +0.209 C 
ATOM     21  N   LIG    1       24.932 -30.220  12.419  0.00  0.00    -0.223 NA
ATOM     22  C   LIG    1       24.334 -28.917  12.453  0.00  0.00    +0.177 C 
ATOM     23  N   LIG    1       25.830 -30.572  13.356  0.00  0.00    -0.043 NA
ATOM     24  N   LIG    1       26.141 -31.832  13.082  0.00  0.00    -0.022 NA
ATOM     25  N   LIG    1       25.469 -32.278  11.966  0.00  0.00    -0.102 NA
ENDBRANCH  19  20
ENDBRANCH  18  19
ENDBRANCH   9  18
ENDBRANCH   2   5
BRANCH   1  26
ATOM     26  CA  LIG    1       24.635 -23.072   7.017  0.00  0.00    +0.190 C 
BRANCH  26  27
ATOM     27  C   LIG    1       25.799 -22.230   7.540  0.00  0.00    -0.018 C 
ATOM     28  C   LIG    1       27.108 -22.433   7.076  0.00  0.00    +0.009 C 
ATOM     29  C   LIG    1       28.142 -21.577   7.471  0.00  0.00    +0.045 C 
ATOM     30  C   LIG    1       27.869 -20.502   8.308  0.00  0.00    +0.117 C 
ATOM     31  C   LIG    1       26.593 -20.306   8.819  0.00  0.00    +0.045 C 
ATOM     32  C   LIG    1       25.568 -21.177   8.447  0.00  0.00    +0.009 C 
BRANCH  30  33
ATOM     33  O   LIG    1       28.884 -19.639   8.600  0.00  0.00    -0.507 OA
ATOM     34  H   LIG    1       29.176 -19.227   7.769  0.00  0.00    +0.292 HD
ENDBRANCH  30  33
ENDBRANCH  26  27
BRANCH  26  36
ATOM     35  C   LIG    1       24.138 -21.274   5.341  0.00  0.00    +0.250 C 
ATOM     36  N   LIG    1       23.733 -22.245   6.214  0.00  0.00    -0.296 N 
ATOM     37  H   LIG    1       22.742 -22.291   6.447  0.00  0.00    +0.150 HD
ATOM     38  O   LIG    1       25.324 -21.033   5.132  0.00  0.00    -0.270 OA
BRANCH  35  44
ATOM     39  C   LIG    1       19.545 -18.329   3.267  0.00  0.00    +0.063 C 
ATOM     40  C   LIG    1       20.811 -19.047   3.641  0.00  0.00    +0.017 C 
ATOM     41  N   LIG    1       20.700 -20.320   4.161  0.00  0.00    -0.364 NA
ATOM     42  H   LIG    1       19.768 -20.685   4.343  0.00  0.00    +0.165 HD
ATOM     43  C   LIG    1       21.782 -20.999   4.672  0.00  0.00    +0.099 C 
ATOM     44  C   LIG    1       23.037 -20.518   4.670  0.00  0.00    +0.099 C 
ATOM     45  C   LIG    1       23.224 -19.196   3.998  0.00  0.00    +0.194 C 
ATOM     46  O   LIG    1       24.335 -18.682   3.880  0.00  0.00    -0.287 OA
ATOM     47  C   LIG    1       22.018 -18.474   3.498  0.00  0.00    +0.072 C 
ENDBRANCH  35  44
ENDBRANCH  26  36
ENDBRANCH   1  26
TORSDOF 11
ENDMDL
MODEL 8
REMARK VINA RESULT:      -4.0      2.945      8.358
REMARK  Name = *****
REMARK                            x       y       z     vdW  Elec       q    Type
REMARK                         _______ _______ _______ _____ _____    ______ ____
ROOT
ATOM      1  C   LIG    1       22.254 -31.713  12.680  0.00  0.00    +0.239 C 
ATOM      2  N   LIG    1       22.405 -32.007  14.025  0.00  0.00    -0.300 N 
ATOM      3  H   LIG    1       22.428 -32.993  14.280  0.00  0.00    +0.150 HD
ATOM      4  O   LIG    1       22.274 -30.555  12.268  0.00  0.00    -0.273 OA
ENDROOT
BRANCH   2   5
ATOM      5  CA  LIG    1       22.611 -30.956  15.072  0.00  0.00    +0.191 C 
ATOM      6  C   LIG    1       24.070 -30.491  15.369  0.00  0.00    +0.169 C 
ATOM      7  N   LIG    1       23.693 -29.173  14.902  0.00  0.00    -0.249 N 
ATOM      8  CA  LIG    1       24.541 -28.140  14.594  0.00  0.00    +0.123 C 
ATOM      9  C   LIG    1       25.886 -28.376  14.544  0.00  0.00    -0.021 C 
ATOM     10  C   LIG    1       26.496 -29.761  14.745  0.00  0.00    +0.104 C 
ATOM     11  S   LIG    1       25.386 -31.124  14.308  0.00  0.00    -0.131 S 
ATOM     12  C   LIG    1       22.364 -29.448  14.729  0.00  0.00    +0.244 C 
ATOM     13  O   LIG    1       21.416 -28.803  14.400  0.00  0.00    -0.273 OA
BRANCH   8  14
ATOM     14  C   LIG    1       23.885 -26.802  14.353  0.00  0.00    +0.351 C 
ATOM     15  O   LIG    1       23.896 -25.829  15.083  0.00  0.00    -0.244 OA
BRANCH  14  16
ATOM     16  OXT LIG    1       23.277 -26.652  13.168  0.00  0.00    -0.476 OA
ATOM     17  HXT LIG    1       22.833 -27.525  13.089  0.00  0.00    +0.295 HD
ENDBRANCH  14  16
ENDBRANCH   8  14
BRANCH   9  18
ATOM     18  C   LIG    1       26.961 -27.350  14.222  0.00  0.00    +0.111 C 
BRANCH  18  19
ATOM     19  S   LIG    1       26.850 -26.859  12.471  0.00  0.00    -0.080 S 
BRANCH  19  20
ATOM     20  C   LIG    1       27.328 -28.349  11.742  0.00  0.00    +0.209 C 
ATOM     21  N   LIG    1       26.477 -29.258  11.187  0.00  0.00    -0.223 NA
ATOM     22  C   LIG    1       25.062 -29.200  10.966  0.00  0.00    +0.177 C 
ATOM     23  N   LIG    1       27.173 -30.344  10.804  0.00  0.00    -0.043 NA
ATOM     24  N   LIG    1       28.438 -30.064  11.091  0.00  0.00    -0.022 NA
ATOM     25  N   LIG    1       28.552 -28.822  11.673  0.00  0.00    -0.102 NA
ENDBRANCH  19  20
ENDBRANCH  18  19
ENDBRANCH   9  18
ENDBRANCH   2   5
BRANCH   1  26
ATOM     26  CA  LIG    1       22.031 -32.939  11.740  0.00  0.00    +0.190 C 
BRANCH  26  27
ATOM     27  C   LIG    1       20.540 -33.211  11.538  0.00  0.00    -0.018 C 
ATOM     28  C   LIG    1       19.740 -33.691  12.588  0.00  0.00    +0.009 C 
ATOM     29  C   LIG    1       18.356 -33.819  12.424  0.00  0.00    +0.045 C 
ATOM     30  C   LIG    1       17.764 -33.448  11.224  0.00  0.00    +0.117 C 
ATOM     31  C   LIG    1       18.536 -33.017  10.154  0.00  0.00    +0.045 C 
ATOM     32  C   LIG    1       19.919 -32.914  10.308  0.00  0.00    +0.009 C 
BRANCH  30  33
ATOM     33  O   LIG    1       16.404 -33.505  11.132  0.00  0.00    -0.507 OA
ATOM     34  H   LIG    1       16.178 -33.994  10.323  0.00  0.00    +0.292 HD
ENDBRANCH  30  33
ENDBRANCH  26  27
BRANCH  26  36
ATOM     35  C   LIG    1       24.034 -32.754  10.242  0.00  0.00    +0.250 C 
ATOM     36  N   LIG    1       22.683 -32.712  10.450  0.00  0.00    -0.296 N 
ATOM     37  H   LIG    1       22.099 -32.340   9.702  0.00  0.00    +0.150 HD
ATOM     38  O   LIG    1       24.827 -33.025  11.141  0.00  0.00    -0.270 OA
BRANCH  35  44
ATOM     39  C   LIG    1       25.588 -32.087   4.656  0.00  0.00    +0.063 C 
ATOM     40  C   LIG    1       25.217 -32.076   6.112  0.00  0.00    +0.017 C 
ATOM     41  N   LIG    1       25.779 -33.038   6.926  0.00  0.00    -0.364 NA
ATOM     42  H   LIG    1       26.354 -33.757   6.494  0.00  0.00    +0.165 HD
ATOM     43  C   LIG    1       25.391 -33.207   8.236  0.00  0.00    +0.099 C 
ATOM     44  C   LIG    1       24.478 -32.436   8.852  0.00  0.00    +0.099 C 
ATOM     45  C   LIG    1       23.938 -31.299   8.044  0.00  0.00    +0.194 C 
ATOM     46  O   LIG    1       23.143 -30.490   8.519  0.00  0.00    -0.287 OA
ATOM     47  C   LIG    1       24.352 -31.179   6.616  0.00  0.00    +0.072 C 
ENDBRANCH  35  44
ENDBRANCH  26  36
ENDBRANCH   1  26
TORSDOF 11
ENDMDL
MODEL 9
REMARK VINA RESULT:      -3.9      6.333      9.466
REMARK  Name = *****
REMARK                            x       y       z     vdW  Elec       q    Type
REMARK                         _______ _______ _______ _____ _____    ______ ____
ROOT
ATOM      1  C   LIG    1       25.831 -27.339   7.069  0.00  0.00    +0.239 C 
ATOM      2  N   LIG    1       25.482 -26.010   7.247  0.00  0.00    -0.300 N 
ATOM      3  H   LIG    1       24.970 -25.780   8.097  0.00  0.00    +0.150 HD
ATOM      4  O   LIG    1       26.499 -27.705   6.104  0.00  0.00    -0.273 OA
ENDROOT
BRANCH   2   5
ATOM      5  CA  LIG    1       25.893 -24.924   6.301  0.00  0.00    +0.191 C 
ATOM      6  C   LIG    1       24.783 -23.993   5.723  0.00  0.00    +0.169 C 
ATOM      7  N   LIG    1       25.423 -22.888   6.406  0.00  0.00    -0.249 N 
ATOM      8  CA  LIG    1       24.895 -21.639   6.617  0.00  0.00    +0.123 C 
ATOM      9  C   LIG    1       23.578 -21.417   6.325  0.00  0.00    -0.021 C 
ATOM     10  C   LIG    1       22.636 -22.515   5.838  0.00  0.00    +0.104 C 
ATOM     11  S   LIG    1       23.109 -24.180   6.372  0.00  0.00    -0.131 S 
ATOM     12  C   LIG    1       26.506 -23.593   6.855  0.00  0.00    +0.244 C 
ATOM     13  O   LIG    1       27.491 -23.307   7.464  0.00  0.00    -0.273 OA
BRANCH   8  14
ATOM     14  C   LIG    1       25.853 -20.602   7.148  0.00  0.00    +0.351 C 
ATOM     15  O   LIG    1       26.006 -20.257   8.304  0.00  0.00    -0.244 OA
BRANCH  14  16
ATOM     16  OXT LIG    1       26.675 -20.047   6.246  0.00  0.00    -0.476 OA
ATOM     17  HXT LIG    1       26.864 -20.827   5.680  0.00  0.00    +0.295 HD
ENDBRANCH  14  16
ENDBRANCH   8  14
BRANCH   9  18
ATOM     18  C   LIG    1       22.837 -20.100   6.495  0.00  0.00    +0.111 C 
BRANCH  18  19
ATOM     19  S   LIG    1       22.105 -19.587   4.907  0.00  0.00    -0.080 S 
BRANCH  19  20
ATOM     20  C   LIG    1       23.542 -19.075   4.100  0.00  0.00    +0.209 C 
ATOM     21  N   LIG    1       24.386 -19.893   3.408  0.00  0.00    -0.223 NA
ATOM     22  C   LIG    1       24.279 -21.285   3.082  0.00  0.00    +0.177 C 
ATOM     23  N   LIG    1       25.452 -19.186   2.995  0.00  0.00    -0.043 NA
ATOM     24  N   LIG    1       25.223 -17.944   3.401  0.00  0.00    -0.022 NA
ATOM     25  N   LIG    1       24.035 -17.858   4.089  0.00  0.00    -0.102 NA
ENDBRANCH  19  20
ENDBRANCH  18  19
ENDBRANCH   9  18
ENDBRANCH   2   5
BRANCH   1  26
ATOM     26  CA  LIG    1       25.296 -28.330   8.149  0.00  0.00    +0.190 C 
BRANCH  26  27
ATOM     27  C   LIG    1       25.117 -29.732   7.567  0.00  0.00    -0.018 C 
ATOM     28  C   LIG    1       24.111 -30.006   6.627  0.00  0.00    +0.009 C 
ATOM     29  C   LIG    1       24.037 -31.261   6.012  0.00  0.00    +0.045 C 
ATOM     30  C   LIG    1       24.978 -32.237   6.315  0.00  0.00    +0.117 C 
ATOM     31  C   LIG    1       25.953 -32.009   7.276  0.00  0.00    +0.045 C 
ATOM     32  C   LIG    1       26.011 -30.767   7.909  0.00  0.00    +0.009 C 
BRANCH  30  33
ATOM     33  O   LIG    1       24.925 -33.417   5.632  0.00  0.00    -0.507 OA
ATOM     34  H   LIG    1       25.761 -33.889   5.783  0.00  0.00    +0.292 HD
ENDBRANCH  30  33
ENDBRANCH  26  27
BRANCH  26  36
ATOM     35  C   LIG    1       25.839 -28.694  10.570  0.00  0.00    +0.250 C 
ATOM     36  N   LIG    1       26.206 -28.369   9.293  0.00  0.00    -0.296 N 
ATOM     37  H   LIG    1       27.134 -27.971   9.154  0.00  0.00    +0.150 HD
ATOM     38  O   LIG    1       24.689 -29.018  10.859  0.00  0.00    -0.270 OA
BRANCH  35  44
ATOM     39  C   LIG    1       29.656 -28.483  14.981  0.00  0.00    +0.063 C 
ATOM     40  C   LIG    1       28.820 -28.538  13.733  0.00  0.00    +0.017 C 
ATOM     41  N   LIG    1       27.766 -27.655  13.624  0.00  0.00    -0.364 NA
ATOM     42  H   LIG    1       27.552 -27.062  14.422  0.00  0.00    +0.165 HD
ATOM     43  C   LIG    1       26.855 -27.725  12.596  0.00  0.00    +0.099 C 
ATOM     44  C   LIG    1       26.928 -28.614  11.590  0.00  0.00    +0.099 C 
ATOM     45  C   LIG    1       28.127 -29.506  11.598  0.00  0.00    +0.194 C 
ATOM     46  O   LIG    1       28.336 -30.318  10.699  0.00  0.00    -0.287 OA
ATOM     47  C   LIG    1       29.066 -29.427  12.755  0.00  0.00    +0.072 C 
ENDBRANCH  35  44
ENDBRANCH  26  36
ENDBRANCH   1  26
TORSDOF 11
ENDMDL
