MODEL 1
REMARK VINA RESULT:      34.4      0.000      0.000
REMARK  Name = *****
REMARK                            x       y       z     vdW  Elec       q    Type
REMARK                         _______ _______ _______ _____ _____    ______ ____
ROOT
ATOM      1  C   LIG    1       24.935 -19.248   2.422  0.00  0.00    +0.190 C 
ENDROOT
BRANCH   1   4
ATOM      2  N   LIG    1       23.484 -16.873   4.737  0.00  0.00    -0.131 N 
ATOM      3  C   LIG    1       23.456 -18.090   4.165  0.00  0.00    +0.430 A 
ATOM      4  N   LIG    1       24.548 -18.185   3.387  0.00  0.00    -0.207 N 
ATOM      5  N   LIG    1       25.278 -17.021   3.426  0.00  0.00    -0.108 NA
ATOM      6  C   LIG    1       24.632 -16.285   4.255  0.00  0.00    +0.452 A 
BRANCH   2   7
ATOM      7  C   LIG    1       22.556 -16.289   5.726  0.00  0.00    +0.465 C 
ATOM      8  C   LIG    1       21.116 -16.404   5.239  0.00  0.00    +0.138 C 
BRANCH   7   9
ATOM      9  O   LIG    1       22.943 -14.926   5.964  0.00  0.00    -0.387 OA
BRANCH   9  11
ATOM     10  N   LIG    1       23.897 -14.401   3.896  0.00  0.00    -0.224 N 
ATOM     11  C   LIG    1       24.075 -14.525   5.277  0.00  0.00    +0.413 C 
ATOM     12  O   LIG    1       25.147 -14.389   5.859  0.00  0.00    -0.226 OA
ATOM     13  C   LIG    1       22.618 -14.684   3.258  0.00  0.00    +0.143 C 
BRANCH  10  15
ATOM     14  C   LIG    1       24.591 -12.195   2.944  0.00  0.00    +0.030 A 
ATOM     15  C   LIG    1       24.803 -13.570   3.153  0.00  0.00    +0.136 A 
ATOM     16  N   LIG    1       25.942 -14.174   2.723  0.00  0.00    -0.239 NA
ATOM     17  C   LIG    1       26.868 -13.424   2.064  0.00  0.00    +0.113 A 
ATOM     18  C   LIG    1       26.740 -12.077   1.813  0.00  0.00    +0.020 A 
ATOM     19  C   LIG    1       25.593 -11.462   2.273  0.00  0.00    +0.012 A 
BRANCH  14  20
ATOM     20  C   LIG    1       23.308 -11.447   3.188  0.00  0.00    +0.271 C 
BRANCH  20  21
ATOM     21  O   LIG    1       22.943 -11.556   4.577  0.00  0.00    -0.459 OA
BRANCH  21  22
ATOM     22  C   LIG    1       23.965 -11.561   5.496  0.00  0.00    +0.321 C 
ATOM     23  O   LIG    1       25.157 -11.595   5.226  0.00  0.00    -0.249 OA
BRANCH  22  24
ATOM     24  C   LIG    1       23.369 -11.457   6.901  0.00  0.00    +0.202 C 
BRANCH  24  26
ATOM     25  C   LIG    1       21.009 -11.673   6.429  0.00  0.00    +0.101 C 
ATOM     26  N   LIG    1       22.165 -12.293   7.062  0.00  0.00    -0.310 NA
ATOM     27  H   LIG    1       22.323 -13.239   6.713  0.00  0.00    +0.122 HD
ENDBRANCH  24  26
ENDBRANCH  22  24
ENDBRANCH  21  22
ENDBRANCH  20  21
ENDBRANCH  14  20
ENDBRANCH  10  15
ENDBRANCH   9  11
ENDBRANCH   7   9
ENDBRANCH   2   7
ENDBRANCH   1   4
BRANCH   1  28
ATOM     28  C   LIG    1       25.152 -20.670   3.052  0.00  0.00    +0.122 C 
BRANCH  28  29
ATOM     29  C   LIG    1       24.446 -20.854   4.407  0.00  0.00    +0.024 A 
ATOM     30  C   LIG    1       25.151 -20.752   5.616  0.00  0.00    +0.130 A 
ATOM     31  F   LIG    1       26.467 -20.494   5.595  0.00  0.00    -0.205 F 
ATOM     32  C   LIG    1       24.530 -20.896   6.857  0.00  0.00    +0.041 A 
ATOM     33  C   LIG    1       23.161 -21.133   6.915  0.00  0.00    +0.041 A 
ATOM     34  C   LIG    1       22.436 -21.203   5.736  0.00  0.00    +0.124 A 
ATOM     35  F   LIG    1       21.118 -21.428   5.778  0.00  0.00    -0.205 F 
ATOM     36  C   LIG    1       23.058 -21.051   4.499  0.00  0.00    +0.047 A 
ENDBRANCH  28  29
BRANCH  28  37
ATOM     37  O   LIG    1       24.560 -21.567   2.070  0.00  0.00    -0.381 OA
ATOM     38  H   LIG    1       25.047 -21.458   1.226  0.00  0.00    +0.211 HD
ENDBRANCH  28  37
BRANCH  28  39
ATOM     39  C   LIG    1       26.674 -21.089   3.236  0.00  0.00    +0.080 C 
ATOM     40  C   LIG    1       27.446 -21.288   1.922  0.00  0.00    +0.018 C 
BRANCH  39  41
ATOM     41  C   LIG    1       27.437 -20.168   4.171  0.00  0.00    +0.085 A 
ATOM     42  S   LIG    1       28.232 -20.796   5.565  0.00  0.00    -0.080 S 
ATOM     43  C   LIG    1       28.705 -19.209   6.007  0.00  0.00    +0.075 A 
ATOM     44  C   LIG    1       28.229 -18.297   5.085  0.00  0.00    +0.078 A 
ATOM     45  N   LIG    1       27.524 -18.863   4.030  0.00  0.00    -0.244 NA
BRANCH  44  46
ATOM     46  C   LIG    1       28.374 -16.851   5.215  0.00  0.00    +0.001 A 
ATOM     47  C   LIG    1       28.297 -16.043   4.071  0.00  0.00    +0.011 A 
ATOM     48  C   LIG    1       28.367 -14.650   4.172  0.00  0.00    +0.019 A 
ATOM     49  C   LIG    1       28.526 -14.041   5.421  0.00  0.00    +0.052 A 
ATOM     50  C   LIG    1       28.633 -14.840   6.563  0.00  0.00    +0.019 A 
ATOM     51  C   LIG    1       28.558 -16.236   6.461  0.00  0.00    +0.011 A 
BRANCH  49  52
ATOM     52  C   LIG    1       28.572 -12.627   5.528  0.00  0.00    +0.099 C 
ATOM     53  N   LIG    1       28.614 -11.448   5.605  0.00  0.00    -0.191 NA
ENDBRANCH  49  52
ENDBRANCH  44  46
ENDBRANCH  39  41
ENDBRANCH  28  39
ENDBRANCH   1  28
TORSDOF 17
ENDMDL
