MODEL 1
REMARK VINA RESULT:      -9.1      0.000      0.000
REMARK  Name = *****
REMARK                            x       y       z     vdW  Elec       q    Type
REMARK                         _______ _______ _______ _____ _____    ______ ____
ROOT
ATOM      1  C   LIG    1       25.637 -20.711   7.670  0.00  0.00    +0.351 C 
ATOM      2  O   LIG    1       25.607 -20.639   8.897  0.00  0.00    -0.246 OA
ENDROOT
BRANCH   1   4
ATOM      3  C   LIG    1       25.078 -21.567   5.426  0.00  0.00    +0.067 C 
ATOM      4  C   LIG    1       24.509 -21.369   6.837  0.00  0.00    +0.201 C 
ATOM      5  C   LIG    1       23.374 -20.330   6.883  0.00  0.00    +0.067 C 
BRANCH   4   6
ATOM      6  O   LIG    1       24.203 -22.645   7.423  0.00  0.00    -0.475 OA
BRANCH   6   7
ATOM      7  C   LIG    1       24.643 -23.829   6.916  0.00  0.00    +0.122 A 
ATOM      8  C   LIG    1       25.958 -24.289   6.903  0.00  0.00    +0.047 A 
ATOM      9  C   LIG    1       26.273 -25.511   6.298  0.00  0.00    +0.023 A 
ATOM     10  C   LIG    1       25.265 -26.293   5.738  0.00  0.00    +0.041 A 
ATOM     11 CL   LIG    1       25.659 -27.782   4.973  0.00  0.00    -0.084 Cl
ATOM     12  C   LIG    1       23.940 -25.873   5.797  0.00  0.00    +0.023 A 
ATOM     13  C   LIG    1       23.634 -24.648   6.396  0.00  0.00    +0.047 A 
ENDBRANCH   6   7
ENDBRANCH   4   6
ENDBRANCH   1   4
BRANCH   1  14
ATOM     14  O   LIG    1       26.673 -20.265   6.908  0.00  0.00    -0.459 OA
BRANCH  14  15
ATOM     15  C   LIG    1       27.960 -20.245   7.540  0.00  0.00    +0.273 C 
BRANCH  15  16
ATOM     16  C   LIG    1       29.004 -19.785   6.531  0.00  0.00    +0.273 C 
BRANCH  16  17
ATOM     17  O   LIG    1       29.685 -18.631   7.053  0.00  0.00    -0.458 OA
BRANCH  17  18
ATOM     18  C   LIG    1       30.887 -18.842   7.619  0.00  0.00    +0.341 C 
ATOM     19  O   LIG    1       31.725 -19.674   7.279  0.00  0.00    -0.245 OA
BRANCH  18  20
ATOM     20  C   LIG    1       31.038 -17.995   8.805  0.00  0.00    +0.077 A 
ATOM     21  C   LIG    1       30.003 -17.797   9.714  0.00  0.00    +0.125 A 
ATOM     22  N   LIG    1       30.110 -17.012  10.814  0.00  0.00    -0.262 NA
ATOM     23  C   LIG    1       31.302 -16.406  11.018  0.00  0.00    +0.111 A 
ATOM     24  C   LIG    1       32.394 -16.550  10.172  0.00  0.00    +0.020 A 
ATOM     25  C   LIG    1       32.253 -17.346   9.046  0.00  0.00    +0.018 A 
ENDBRANCH  18  20
ENDBRANCH  17  18
ENDBRANCH  16  17
ENDBRANCH  15  16
ENDBRANCH  14  15
ENDBRANCH   1  14
TORSDOF 9
ENDMDL
MODEL 2
REMARK VINA RESULT:      -9.0      2.870      4.000
REMARK  Name = *****
REMARK                            x       y       z     vdW  Elec       q    Type
REMARK                         _______ _______ _______ _____ _____    ______ ____
ROOT
ATOM      1  C   LIG    1       28.160 -21.247   7.388  0.00  0.00    +0.351 C 
ATOM      2  O   LIG    1       28.762 -21.585   8.405  0.00  0.00    -0.246 OA
ENDROOT
BRANCH   1   4
ATOM      3  C   LIG    1       25.965 -20.438   8.168  0.00  0.00    +0.067 C 
ATOM      4  C   LIG    1       26.632 -21.436   7.212  0.00  0.00    +0.201 C 
ATOM      5  C   LIG    1       26.401 -22.901   7.623  0.00  0.00    +0.067 C 
BRANCH   4   6
ATOM      6  O   LIG    1       26.292 -21.114   5.854  0.00  0.00    -0.475 OA
BRANCH   6   7
ATOM      7  C   LIG    1       25.117 -20.529   5.494  0.00  0.00    +0.122 A 
ATOM      8  C   LIG    1       23.898 -20.635   6.159  0.00  0.00    +0.047 A 
ATOM      9  C   LIG    1       22.754 -20.015   5.641  0.00  0.00    +0.023 A 
ATOM     10  C   LIG    1       22.838 -19.258   4.475  0.00  0.00    +0.041 A 
ATOM     11 CL   LIG    1       21.426 -18.520   3.829  0.00  0.00    -0.084 Cl
ATOM     12  C   LIG    1       24.062 -19.095   3.834  0.00  0.00    +0.023 A 
ATOM     13  C   LIG    1       25.198 -19.722   4.353  0.00  0.00    +0.047 A 
ENDBRANCH   6   7
ENDBRANCH   4   6
ENDBRANCH   1   4
BRANCH   1  14
ATOM     14  O   LIG    1       28.763 -20.714   6.290  0.00  0.00    -0.459 OA
BRANCH  14  15
ATOM     15  C   LIG    1       29.172 -19.343   6.396  0.00  0.00    +0.273 C 
BRANCH  15  16
ATOM     16  C   LIG    1       30.683 -19.288   6.576  0.00  0.00    +0.273 C 
BRANCH  16  17
ATOM     17  O   LIG    1       30.997 -18.364   7.632  0.00  0.00    -0.458 OA
BRANCH  17  18
ATOM     18  C   LIG    1       31.588 -18.873   8.727  0.00  0.00    +0.341 C 
ATOM     19  O   LIG    1       31.954 -20.034   8.893  0.00  0.00    -0.245 OA
BRANCH  18  20
ATOM     20  C   LIG    1       31.651 -17.857   9.782  0.00  0.00    +0.077 A 
ATOM     21  C   LIG    1       30.739 -17.819  10.832  0.00  0.00    +0.125 A 
ATOM     22  N   LIG    1       30.765 -16.887  11.815  0.00  0.00    -0.262 NA
ATOM     23  C   LIG    1       31.747 -15.959  11.750  0.00  0.00    +0.111 A 
ATOM     24  C   LIG    1       32.705 -15.921  10.747  0.00  0.00    +0.020 A 
ATOM     25  C   LIG    1       32.647 -16.877   9.744  0.00  0.00    +0.018 A 
ENDBRANCH  18  20
ENDBRANCH  17  18
ENDBRANCH  16  17
ENDBRANCH  15  16
ENDBRANCH  14  15
ENDBRANCH   1  14
TORSDOF 9
ENDMDL
MODEL 3
REMARK VINA RESULT:      -8.9      2.644      3.953
REMARK  Name = *****
REMARK                            x       y       z     vdW  Elec       q    Type
REMARK                         _______ _______ _______ _____ _____    ______ ____
ROOT
ATOM      1  C   LIG    1       25.423 -22.253   7.366  0.00  0.00    +0.351 C 
ATOM      2  O   LIG    1       24.723 -21.702   8.213  0.00  0.00    -0.246 OA
ENDROOT
BRANCH   1   4
ATOM      3  C   LIG    1       23.469 -23.681   6.891  0.00  0.00    +0.067 C 
ATOM      4  C   LIG    1       24.880 -23.333   6.398  0.00  0.00    +0.201 C 
ATOM      5  C   LIG    1       25.873 -24.497   6.563  0.00  0.00    +0.067 C 
BRANCH   4   6
ATOM      6  O   LIG    1       24.810 -22.763   5.081  0.00  0.00    -0.475 OA
BRANCH   6   7
ATOM      7  C   LIG    1       24.281 -21.535   4.822  0.00  0.00    +0.122 A 
ATOM      8  C   LIG    1       24.917 -20.476   4.180  0.00  0.00    +0.047 A 
ATOM      9  C   LIG    1       24.264 -19.247   4.027  0.00  0.00    +0.023 A 
ATOM     10  C   LIG    1       22.958 -19.089   4.484  0.00  0.00    +0.041 A 
ATOM     11 CL   LIG    1       22.168 -17.571   4.317  0.00  0.00    -0.084 Cl
ATOM     12  C   LIG    1       22.290 -20.158   5.073  0.00  0.00    +0.023 A 
ATOM     13  C   LIG    1       22.950 -21.379   5.229  0.00  0.00    +0.047 A 
ENDBRANCH   6   7
ENDBRANCH   4   6
ENDBRANCH   1   4
BRANCH   1  14
ATOM     14  O   LIG    1       26.755 -22.017   7.211  0.00  0.00    -0.459 OA
BRANCH  14  15
ATOM     15  C   LIG    1       27.182 -20.660   7.396  0.00  0.00    +0.273 C 
BRANCH  15  16
ATOM     16  C   LIG    1       28.697 -20.593   7.265  0.00  0.00    +0.273 C 
BRANCH  16  17
ATOM     17  O   LIG    1       29.213 -19.672   8.242  0.00  0.00    -0.458 OA
BRANCH  17  18
ATOM     18  C   LIG    1       29.963 -18.656   7.780  0.00  0.00    +0.341 C 
ATOM     19  O   LIG    1       30.128 -18.338   6.605  0.00  0.00    -0.245 OA
BRANCH  18  20
ATOM     20  C   LIG    1       30.673 -18.013   8.889  0.00  0.00    +0.077 A 
ATOM     21  C   LIG    1       32.047 -17.794   8.865  0.00  0.00    +0.125 A 
ATOM     22  N   LIG    1       32.732 -17.211   9.879  0.00  0.00    -0.262 NA
ATOM     23  C   LIG    1       32.014 -16.826  10.958  0.00  0.00    +0.111 A 
ATOM     24  C   LIG    1       30.640 -16.995  11.070  0.00  0.00    +0.020 A 
ATOM     25  C   LIG    1       29.966 -17.608  10.025  0.00  0.00    +0.018 A 
ENDBRANCH  18  20
ENDBRANCH  17  18
ENDBRANCH  16  17
ENDBRANCH  15  16
ENDBRANCH  14  15
ENDBRANCH   1  14
TORSDOF 9
ENDMDL
MODEL 4
REMARK VINA RESULT:      -8.7      0.302      1.009
REMARK  Name = *****
REMARK                            x       y       z     vdW  Elec       q    Type
REMARK                         _______ _______ _______ _____ _____    ______ ____
ROOT
ATOM      1  C   LIG    1       25.786 -20.716   7.305  0.00  0.00    +0.351 C 
ATOM      2  O   LIG    1       25.805 -20.295   8.460  0.00  0.00    -0.246 OA
ENDROOT
BRANCH   1   4
ATOM      3  C   LIG    1       24.951 -21.803   5.256  0.00  0.00    +0.067 C 
ATOM      4  C   LIG    1       24.604 -21.533   6.726  0.00  0.00    +0.201 C 
ATOM      5  C   LIG    1       23.399 -20.589   6.891  0.00  0.00    +0.067 C 
BRANCH   4   6
ATOM      6  O   LIG    1       24.520 -22.774   7.443  0.00  0.00    -0.475 OA
BRANCH   6   7
ATOM      7  C   LIG    1       24.672 -23.993   6.855  0.00  0.00    +0.122 A 
ATOM      8  C   LIG    1       23.674 -24.753   6.250  0.00  0.00    +0.047 A 
ATOM      9  C   LIG    1       23.968 -26.018   5.728  0.00  0.00    +0.023 A 
ATOM     10  C   LIG    1       25.271 -26.509   5.780  0.00  0.00    +0.041 A 
ATOM     11 CL   LIG    1       25.623 -28.075   5.161  0.00  0.00    -0.084 Cl
ATOM     12  C   LIG    1       26.288 -25.735   6.328  0.00  0.00    +0.023 A 
ATOM     13  C   LIG    1       25.986 -24.476   6.853  0.00  0.00    +0.047 A 
ENDBRANCH   6   7
ENDBRANCH   4   6
ENDBRANCH   1   4
BRANCH   1  14
ATOM     14  O   LIG    1       26.810 -20.556   6.421  0.00  0.00    -0.459 OA
BRANCH  14  15
ATOM     15  C   LIG    1       28.133 -20.623   6.969  0.00  0.00    +0.273 C 
BRANCH  15  16
ATOM     16  C   LIG    1       29.032 -19.649   6.218  0.00  0.00    +0.273 C 
BRANCH  16  17
ATOM     17  O   LIG    1       29.535 -18.667   7.141  0.00  0.00    -0.458 OA
BRANCH  17  18
ATOM     18  C   LIG    1       30.773 -18.870   7.626  0.00  0.00    +0.341 C 
ATOM     19  O   LIG    1       31.585 -19.708   7.243  0.00  0.00    -0.245 OA
BRANCH  18  20
ATOM     20  C   LIG    1       31.005 -18.002   8.784  0.00  0.00    +0.077 A 
ATOM     21  C   LIG    1       30.025 -17.763   9.743  0.00  0.00    +0.125 A 
ATOM     22  N   LIG    1       30.207 -16.960  10.818  0.00  0.00    -0.262 NA
ATOM     23  C   LIG    1       31.420 -16.376  10.946  0.00  0.00    +0.111 A 
ATOM     24  C   LIG    1       32.462 -16.561  10.046  0.00  0.00    +0.020 A 
ATOM     25  C   LIG    1       32.244 -17.376   8.946  0.00  0.00    +0.018 A 
ENDBRANCH  18  20
ENDBRANCH  17  18
ENDBRANCH  16  17
ENDBRANCH  15  16
ENDBRANCH  14  15
ENDBRANCH   1  14
TORSDOF 9
ENDMDL
MODEL 5
REMARK VINA RESULT:      -8.6      1.661      2.173
REMARK  Name = *****
REMARK                            x       y       z     vdW  Elec       q    Type
REMARK                         _______ _______ _______ _____ _____    ______ ____
ROOT
ATOM      1  C   LIG    1       24.724 -21.588   7.501  0.00  0.00    +0.351 C 
ATOM      2  O   LIG    1       23.968 -20.746   7.981  0.00  0.00    -0.246 OA
ENDROOT
BRANCH   1   4
ATOM      3  C   LIG    1       24.024 -21.517   5.138  0.00  0.00    +0.067 C 
ATOM      4  C   LIG    1       24.337 -22.477   6.293  0.00  0.00    +0.201 C 
ATOM      5  C   LIG    1       23.095 -23.238   6.790  0.00  0.00    +0.067 C 
BRANCH   4   6
ATOM      6  O   LIG    1       25.469 -23.294   5.955  0.00  0.00    -0.475 OA
BRANCH   6   7
ATOM      7  C   LIG    1       25.406 -24.648   5.828  0.00  0.00    +0.122 A 
ATOM      8  C   LIG    1       24.972 -25.358   4.711  0.00  0.00    +0.047 A 
ATOM      9  C   LIG    1       24.913 -26.756   4.741  0.00  0.00    +0.023 A 
ATOM     10  C   LIG    1       25.323 -27.447   5.879  0.00  0.00    +0.041 A 
ATOM     11 CL   LIG    1       25.224 -29.164   5.923  0.00  0.00    -0.084 Cl
ATOM     12  C   LIG    1       25.814 -26.753   6.980  0.00  0.00    +0.023 A 
ATOM     13  C   LIG    1       25.864 -25.357   6.945  0.00  0.00    +0.047 A 
ENDBRANCH   6   7
ENDBRANCH   4   6
ENDBRANCH   1   4
BRANCH   1  14
ATOM     14  O   LIG    1       25.962 -21.867   7.996  0.00  0.00    -0.459 OA
BRANCH  14  15
ATOM     15  C   LIG    1       26.878 -20.766   8.065  0.00  0.00    +0.273 C 
BRANCH  15  16
ATOM     16  C   LIG    1       27.310 -20.389   6.654  0.00  0.00    +0.273 C 
BRANCH  16  17
ATOM     17  O   LIG    1       28.746 -20.369   6.592  0.00  0.00    -0.458 OA
BRANCH  17  18
ATOM     18  C   LIG    1       29.330 -19.164   6.465  0.00  0.00    +0.341 C 
ATOM     19  O   LIG    1       29.309 -18.437   5.476  0.00  0.00    -0.245 OA
BRANCH  18  20
ATOM     20  C   LIG    1       30.117 -18.860   7.664  0.00  0.00    +0.077 A 
ATOM     21  C   LIG    1       31.212 -19.626   8.049  0.00  0.00    +0.125 A 
ATOM     22  N   LIG    1       31.952 -19.375   9.157  0.00  0.00    -0.262 NA
ATOM     23  C   LIG    1       31.586 -18.310   9.906  0.00  0.00    +0.111 A 
ATOM     24  C   LIG    1       30.514 -17.483   9.598  0.00  0.00    +0.020 A 
ATOM     25  C   LIG    1       29.764 -17.772   8.468  0.00  0.00    +0.018 A 
ENDBRANCH  18  20
ENDBRANCH  17  18
ENDBRANCH  16  17
ENDBRANCH  15  16
ENDBRANCH  14  15
ENDBRANCH   1  14
TORSDOF 9
ENDMDL
MODEL 6
REMARK VINA RESULT:      -8.1      4.996      8.683
REMARK  Name = *****
REMARK                            x       y       z     vdW  Elec       q    Type
REMARK                         _______ _______ _______ _____ _____    ______ ____
ROOT
ATOM      1  C   LIG    1       26.310 -22.671   7.718  0.00  0.00    +0.351 C 
ATOM      2  O   LIG    1       26.003 -22.722   8.907  0.00  0.00    -0.246 OA
ENDROOT
BRANCH   1   4
ATOM      3  C   LIG    1       28.157 -21.217   6.970  0.00  0.00    +0.067 C 
ATOM      4  C   LIG    1       26.628 -21.343   6.987  0.00  0.00    +0.201 C 
ATOM      5  C   LIG    1       25.951 -20.276   7.867  0.00  0.00    +0.067 C 
BRANCH   4   6
ATOM      6  O   LIG    1       26.131 -21.439   5.642  0.00  0.00    -0.475 OA
BRANCH   6   7
ATOM      7  C   LIG    1       25.105 -20.683   5.165  0.00  0.00    +0.122 A 
ATOM      8  C   LIG    1       25.174 -19.738   4.144  0.00  0.00    +0.047 A 
ATOM      9  C   LIG    1       24.042 -18.995   3.790  0.00  0.00    +0.023 A 
ATOM     10  C   LIG    1       22.828 -19.223   4.435  0.00  0.00    +0.041 A 
ATOM     11 CL   LIG    1       21.445 -18.291   4.016  0.00  0.00    -0.084 Cl
ATOM     12  C   LIG    1       22.731 -20.206   5.415  0.00  0.00    +0.023 A 
ATOM     13  C   LIG    1       23.867 -20.939   5.767  0.00  0.00    +0.047 A 
ENDBRANCH   6   7
ENDBRANCH   4   6
ENDBRANCH   1   4
BRANCH   1  14
ATOM     14  O   LIG    1       26.364 -23.758   6.899  0.00  0.00    -0.459 OA
BRANCH  14  15
ATOM     15  C   LIG    1       25.123 -24.442   6.675  0.00  0.00    +0.273 C 
BRANCH  15  16
ATOM     16  C   LIG    1       24.984 -24.746   5.189  0.00  0.00    +0.273 C 
BRANCH  16  17
ATOM     17  O   LIG    1       24.689 -26.143   5.021  0.00  0.00    -0.458 OA
BRANCH  17  18
ATOM     18  C   LIG    1       25.680 -27.009   5.299  0.00  0.00    +0.341 C 
ATOM     19  O   LIG    1       26.830 -26.974   4.870  0.00  0.00    -0.245 OA
BRANCH  18  20
ATOM     20  C   LIG    1       25.169 -28.106   6.127  0.00  0.00    +0.077 A 
ATOM     21  C   LIG    1       24.228 -29.017   5.656  0.00  0.00    +0.125 A 
ATOM     22  N   LIG    1       23.731 -30.034   6.400  0.00  0.00    -0.262 NA
ATOM     23  C   LIG    1       24.197 -30.150   7.665  0.00  0.00    +0.111 A 
ATOM     24  C   LIG    1       25.140 -29.295   8.219  0.00  0.00    +0.020 A 
ATOM     25  C   LIG    1       25.621 -28.253   7.441  0.00  0.00    +0.018 A 
ENDBRANCH  18  20
ENDBRANCH  17  18
ENDBRANCH  16  17
ENDBRANCH  15  16
ENDBRANCH  14  15
ENDBRANCH   1  14
TORSDOF 9
ENDMDL
MODEL 7
REMARK VINA RESULT:      -8.0      1.787      2.483
REMARK  Name = *****
REMARK                            x       y       z     vdW  Elec       q    Type
REMARK                         _______ _______ _______ _____ _____    ______ ____
ROOT
ATOM      1  C   LIG    1       24.933 -21.303   5.786  0.00  0.00    +0.351 C 
ATOM      2  O   LIG    1       24.195 -20.928   4.878  0.00  0.00    -0.246 OA
ENDROOT
BRANCH   1   4
ATOM      3  C   LIG    1       23.265 -22.802   6.810  0.00  0.00    +0.067 C 
ATOM      4  C   LIG    1       24.762 -22.665   6.504  0.00  0.00    +0.201 C 
ATOM      5  C   LIG    1       25.618 -22.512   7.775  0.00  0.00    +0.067 C 
BRANCH   4   6
ATOM      6  O   LIG    1       25.174 -23.704   5.603  0.00  0.00    -0.475 OA
BRANCH   6   7
ATOM      7  C   LIG    1       25.101 -25.030   5.902  0.00  0.00    +0.122 A 
ATOM      8  C   LIG    1       24.155 -25.937   5.429  0.00  0.00    +0.047 A 
ATOM      9  C   LIG    1       24.172 -27.267   5.865  0.00  0.00    +0.023 A 
ATOM     10  C   LIG    1       25.159 -27.700   6.747  0.00  0.00    +0.041 A 
ATOM     11 CL   LIG    1       25.161 -29.329   7.300  0.00  0.00    -0.084 Cl
ATOM     12  C   LIG    1       26.145 -26.819   7.180  0.00  0.00    +0.023 A 
ATOM     13  C   LIG    1       26.117 -25.491   6.747  0.00  0.00    +0.047 A 
ENDBRANCH   6   7
ENDBRANCH   4   6
ENDBRANCH   1   4
BRANCH   1  14
ATOM     14  O   LIG    1       25.951 -20.555   6.295  0.00  0.00    -0.459 OA
BRANCH  14  15
ATOM     15  C   LIG    1       26.835 -19.955   5.338  0.00  0.00    +0.273 C 
BRANCH  15  16
ATOM     16  C   LIG    1       28.252 -19.961   5.896  0.00  0.00    +0.273 C 
BRANCH  16  17
ATOM     17  O   LIG    1       28.194 -19.822   7.326  0.00  0.00    -0.458 OA
BRANCH  17  18
ATOM     18  C   LIG    1       29.167 -20.422   8.033  0.00  0.00    +0.341 C 
ATOM     19  O   LIG    1       29.266 -21.621   8.280  0.00  0.00    -0.245 OA
BRANCH  18  20
ATOM     20  C   LIG    1       30.078 -19.415   8.586  0.00  0.00    +0.077 A 
ATOM     21  C   LIG    1       31.381 -19.721   8.967  0.00  0.00    +0.125 A 
ATOM     22  N   LIG    1       32.242 -18.814   9.490  0.00  0.00    -0.262 NA
ATOM     23  C   LIG    1       31.785 -17.549   9.631  0.00  0.00    +0.111 A 
ATOM     24  C   LIG    1       30.505 -17.148   9.271  0.00  0.00    +0.020 A 
ATOM     25  C   LIG    1       29.639 -18.098   8.753  0.00  0.00    +0.018 A 
ENDBRANCH  18  20
ENDBRANCH  17  18
ENDBRANCH  16  17
ENDBRANCH  15  16
ENDBRANCH  14  15
ENDBRANCH   1  14
TORSDOF 9
ENDMDL
MODEL 8
REMARK VINA RESULT:      -8.0      4.467      8.903
REMARK  Name = *****
REMARK                            x       y       z     vdW  Elec       q    Type
REMARK                         _______ _______ _______ _____ _____    ______ ____
ROOT
ATOM      1  C   LIG    1       24.814 -22.426   7.310  0.00  0.00    +0.351 C 
ATOM      2  O   LIG    1       23.623 -22.282   7.574  0.00  0.00    -0.246 OA
ENDROOT
BRANCH   1   4
ATOM      3  C   LIG    1       25.838 -20.506   8.469  0.00  0.00    +0.067 C 
ATOM      4  C   LIG    1       25.785 -21.234   7.120  0.00  0.00    +0.201 C 
ATOM      5  C   LIG    1       25.115 -20.396   6.016  0.00  0.00    +0.067 C 
BRANCH   4   6
ATOM      6  O   LIG    1       27.083 -21.758   6.797  0.00  0.00    -0.475 OA
BRANCH   6   7
ATOM      7  C   LIG    1       28.246 -21.112   7.087  0.00  0.00    +0.122 A 
ATOM      8  C   LIG    1       29.201 -21.504   8.023  0.00  0.00    +0.047 A 
ATOM      9  C   LIG    1       30.332 -20.710   8.253  0.00  0.00    +0.023 A 
ATOM     10  C   LIG    1       30.525 -19.542   7.520  0.00  0.00    +0.041 A 
ATOM     11 CL   LIG    1       31.902 -18.557   7.823  0.00  0.00    -0.084 Cl
ATOM     12  C   LIG    1       29.609 -19.172   6.540  0.00  0.00    +0.023 A 
ATOM     13  C   LIG    1       28.480 -19.964   6.321  0.00  0.00    +0.047 A 
ENDBRANCH   6   7
ENDBRANCH   4   6
ENDBRANCH   1   4
BRANCH   1  14
ATOM     14  O   LIG    1       25.407 -23.636   7.110  0.00  0.00    -0.459 OA
BRANCH  14  15
ATOM     15  C   LIG    1       24.601 -24.638   6.476  0.00  0.00    +0.273 C 
BRANCH  15  16
ATOM     16  C   LIG    1       25.105 -24.858   5.056  0.00  0.00    +0.273 C 
BRANCH  16  17
ATOM     17  O   LIG    1       24.941 -26.243   4.708  0.00  0.00    -0.458 OA
BRANCH  17  18
ATOM     18  C   LIG    1       25.894 -27.091   5.134  0.00  0.00    +0.341 C 
ATOM     19  O   LIG    1       27.075 -27.102   4.796  0.00  0.00    -0.245 OA
BRANCH  18  20
ATOM     20  C   LIG    1       25.303 -28.111   6.006  0.00  0.00    +0.077 A 
ATOM     21  C   LIG    1       24.349 -29.016   5.552  0.00  0.00    +0.125 A 
ATOM     22  N   LIG    1       23.778 -29.963   6.336  0.00  0.00    -0.262 NA
ATOM     23  C   LIG    1       24.182 -30.011   7.626  0.00  0.00    +0.111 A 
ATOM     24  C   LIG    1       25.133 -29.156   8.168  0.00  0.00    +0.020 A 
ATOM     25  C   LIG    1       25.690 -28.187   7.347  0.00  0.00    +0.018 A 
ENDBRANCH  18  20
ENDBRANCH  17  18
ENDBRANCH  16  17
ENDBRANCH  15  16
ENDBRANCH  14  15
ENDBRANCH   1  14
TORSDOF 9
ENDMDL
MODEL 9
REMARK VINA RESULT:      -7.9      2.707      4.585
REMARK  Name = *****
REMARK                            x       y       z     vdW  Elec       q    Type
REMARK                         _______ _______ _______ _____ _____    ______ ____
ROOT
ATOM      1  C   LIG    1       23.920 -24.375   6.533  0.00  0.00    +0.351 C 
ATOM      2  O   LIG    1       22.709 -24.417   6.740  0.00  0.00    -0.246 OA
ENDROOT
BRANCH   1   4
ATOM      3  C   LIG    1       25.983 -25.659   6.953  0.00  0.00    +0.067 C 
ATOM      4  C   LIG    1       24.737 -25.603   6.059  0.00  0.00    +0.201 C 
ATOM      5  C   LIG    1       25.070 -25.269   4.593  0.00  0.00    +0.067 C 
BRANCH   4   6
ATOM      6  O   LIG    1       23.939 -26.780   6.259  0.00  0.00    -0.475 OA
BRANCH   6   7
ATOM      7  C   LIG    1       24.446 -28.043   6.237  0.00  0.00    +0.122 A 
ATOM      8  C   LIG    1       24.871 -28.747   5.113  0.00  0.00    +0.047 A 
ATOM      9  C   LIG    1       25.325 -30.066   5.235  0.00  0.00    +0.023 A 
ATOM     10  C   LIG    1       25.389 -30.669   6.489  0.00  0.00    +0.041 A 
ATOM     11 CL   LIG    1       25.923 -32.297   6.632  0.00  0.00    -0.084 Cl
ATOM     12  C   LIG    1       25.024 -29.956   7.626  0.00  0.00    +0.023 A 
ATOM     13  C   LIG    1       24.565 -28.643   7.496  0.00  0.00    +0.047 A 
ENDBRANCH   6   7
ENDBRANCH   4   6
ENDBRANCH   1   4
BRANCH   1  14
ATOM     14  O   LIG    1       24.687 -23.268   6.736  0.00  0.00    -0.459 OA
BRANCH  14  15
ATOM     15  C   LIG    1       24.019 -22.131   7.300  0.00  0.00    +0.273 C 
BRANCH  15  16
ATOM     16  C   LIG    1       24.996 -20.965   7.372  0.00  0.00    +0.273 C 
BRANCH  16  17
ATOM     17  O   LIG    1       26.259 -21.377   6.821  0.00  0.00    -0.458 OA
BRANCH  17  18
ATOM     18  C   LIG    1       26.949 -20.452   6.130  0.00  0.00    +0.341 C 
ATOM     19  O   LIG    1       26.586 -19.876   5.107  0.00  0.00    -0.245 OA
BRANCH  18  20
ATOM     20  C   LIG    1       28.285 -20.287   6.709  0.00  0.00    +0.077 A 
ATOM     21  C   LIG    1       28.756 -21.100   7.735  0.00  0.00    +0.125 A 
ATOM     22  N   LIG    1       29.982 -20.965   8.297  0.00  0.00    -0.262 NA
ATOM     23  C   LIG    1       30.773 -19.982   7.808  0.00  0.00    +0.111 A 
ATOM     24  C   LIG    1       30.393 -19.128   6.781  0.00  0.00    +0.020 A 
ATOM     25  C   LIG    1       29.128 -19.277   6.235  0.00  0.00    +0.018 A 
ENDBRANCH  18  20
ENDBRANCH  17  18
ENDBRANCH  16  17
ENDBRANCH  15  16
ENDBRANCH  14  15
ENDBRANCH   1  14
TORSDOF 9
ENDMDL
