MODEL 1
REMARK VINA RESULT:      10.5      0.000      0.000
REMARK  Name = *****
REMARK                            x       y       z     vdW  Elec       q    Type
REMARK                         _______ _______ _______ _____ _____    ______ ____
ROOT
ATOM      1  C   LIG    1       23.372 -17.976   4.441  0.00  0.00    +0.169 C 
ATOM      2  C   LIG    1       23.120 -18.792   3.150  0.00  0.00    +0.182 C 
ATOM      3  C   LIG    1       21.609 -18.890   2.803  0.00  0.00    +0.163 C 
ATOM      4  C   LIG    1       20.695 -18.712   4.042  0.00  0.00    +0.084 C 
ATOM      5  C   LIG    1       21.342 -19.368   5.259  0.00  0.00    +0.042 C 
ATOM      6  C   LIG    1       22.595 -18.569   5.661  0.00  0.00    +0.084 C 
ENDROOT
BRANCH   6   7
ATOM      7  N   LIG    1       23.440 -19.375   6.552  0.00  0.00    -0.325 NA
ATOM      8  H   LIG    1       23.936 -20.085   6.008  0.00  0.00    +0.118 HD
ATOM      9  H   LIG    1       24.175 -18.787   6.952  0.00  0.00    +0.118 HD
ENDBRANCH   6   7
BRANCH   4  10
ATOM     10  N   LIG    1       19.350 -19.242   3.764  0.00  0.00    -0.325 NA
ATOM     11  H   LIG    1       18.911 -19.535   4.637  0.00  0.00    +0.118 HD
ATOM     12  H   LIG    1       18.763 -18.486   3.407  0.00  0.00    +0.118 HD
ENDBRANCH   4  10
BRANCH   3  13
ATOM     13  O   LIG    1       21.223 -17.927   1.813  0.00  0.00    -0.388 OA
ATOM     14  H   LIG    1       21.346 -17.057   2.249  0.00  0.00    +0.210 HD
ENDBRANCH   3  13
BRANCH   2  15
ATOM     15  O   LIG    1       23.596 -20.150   3.316  0.00  0.00    -0.340 OA
BRANCH  15  16
ATOM     16  C   LIG    1       25.003 -20.317   3.115  0.00  0.00    +0.282 C 
ATOM     17  C   LIG    1       25.661 -18.916   3.095  0.00  0.00    +0.201 C 
ATOM     18  C   LIG    1       26.761 -19.046   4.135  0.00  0.00    +0.179 C 
ATOM     19  C   LIG    1       26.150 -20.070   5.077  0.00  0.00    +0.178 C 
ATOM     20  O   LIG    1       25.571 -21.046   4.212  0.00  0.00    -0.341 OA
BRANCH  17  21
ATOM     21  O   LIG    1       26.208 -18.589   1.812  0.00  0.00    -0.384 OA
ATOM     22  H   LIG    1       25.893 -19.283   1.202  0.00  0.00    +0.210 HD
ENDBRANCH  17  21
BRANCH  18  23
ATOM     23  O   LIG    1       27.049 -17.799   4.755  0.00  0.00    -0.386 OA
ATOM     24  H   LIG    1       26.189 -17.450   5.073  0.00  0.00    +0.210 HD
ENDBRANCH  18  23
BRANCH  19  25
ATOM     25  C   LIG    1       27.170 -20.700   6.013  0.00  0.00    +0.190 C 
BRANCH  25  26
ATOM     26  O   LIG    1       28.466 -20.169   5.752  0.00  0.00    -0.392 OA
ATOM     27  H   LIG    1       28.618 -19.466   6.413  0.00  0.00    +0.209 HD
ENDBRANCH  25  26
ENDBRANCH  19  25
ENDBRANCH  15  16
ENDBRANCH   2  15
BRANCH   1  28
ATOM     28  O   LIG    1       23.012 -16.596   4.244  0.00  0.00    -0.342 OA
BRANCH  28  33
ATOM     29  C   LIG    1       25.970 -14.653   3.668  0.00  0.00    +0.166 C 
ATOM     30  C   LIG    1       25.218 -13.469   3.023  0.00  0.00    +0.175 C 
ATOM     31  C   LIG    1       23.704 -13.534   3.337  0.00  0.00    +0.167 C 
ATOM     32  C   LIG    1       23.451 -14.246   4.686  0.00  0.00    +0.139 C 
ATOM     33  C   LIG    1       24.063 -15.688   4.615  0.00  0.00    +0.270 C 
ATOM     34  O   LIG    1       25.119 -15.801   3.661  0.00  0.00    -0.343 OA
BRANCH  32  35
ATOM     35  N   LIG    1       24.011 -13.433   5.803  0.00  0.00    -0.321 NA
ATOM     36  H   LIG    1       23.729 -12.459   5.662  0.00  0.00    +0.119 HD
ATOM     37  H   LIG    1       23.555 -13.715   6.674  0.00  0.00    +0.119 HD
ENDBRANCH  32  35
BRANCH  30  38
ATOM     38  O   LIG    1       25.779 -12.247   3.523  0.00  0.00    -0.387 OA
ATOM     39  H   LIG    1       25.022 -11.655   3.698  0.00  0.00    +0.210 HD
ENDBRANCH  30  38
BRANCH  31  40
ATOM     40  O   LIG    1       22.994 -14.190   2.280  0.00  0.00    -0.387 OA
ATOM     41  H   LIG    1       23.489 -14.995   2.030  0.00  0.00    +0.210 HD
ENDBRANCH  31  40
BRANCH  29  42
ATOM     42  C   LIG    1       27.277 -14.957   2.909  0.00  0.00    +0.112 C 
BRANCH  42  43
ATOM     43  N   LIG    1       28.435 -14.266   3.493  0.00  0.00    -0.328 NA
ATOM     44  H   LIG    1       28.102 -13.506   4.084  0.00  0.00    +0.118 HD
ATOM     45  H   LIG    1       28.942 -14.904   4.106  0.00  0.00    +0.118 HD
ENDBRANCH  42  43
ENDBRANCH  29  42
ENDBRANCH  28  33
ENDBRANCH   1  28
TORSDOF 16
ENDMDL
MODEL 2
REMARK VINA RESULT:      10.7      2.249      6.163
REMARK  Name = *****
REMARK                            x       y       z     vdW  Elec       q    Type
REMARK                         _______ _______ _______ _____ _____    ______ ____
ROOT
ATOM      1  C   LIG    1       23.742 -13.815   3.071  0.00  0.00    +0.169 C 
ATOM      2  C   LIG    1       25.220 -13.868   3.528  0.00  0.00    +0.182 C 
ATOM      3  C   LIG    1       25.415 -13.287   4.956  0.00  0.00    +0.163 C 
ATOM      4  C   LIG    1       24.302 -12.284   5.354  0.00  0.00    +0.084 C 
ATOM      5  C   LIG    1       23.896 -11.456   4.138  0.00  0.00    +0.042 C 
ATOM      6  C   LIG    1       23.171 -12.361   3.126  0.00  0.00    +0.084 C 
ENDROOT
BRANCH   6   7
ATOM      7  N   LIG    1       23.122 -11.706   1.812  0.00  0.00    -0.325 NA
ATOM      8  H   LIG    1       22.243 -11.939   1.343  0.00  0.00    +0.118 HD
ATOM      9  H   LIG    1       23.093 -10.691   1.936  0.00  0.00    +0.118 HD
ENDBRANCH   6   7
BRANCH   4  10
ATOM     10  N   LIG    1       24.749 -11.450   6.482  0.00  0.00    -0.325 NA
ATOM     11  H   LIG    1       24.684 -10.465   6.224  0.00  0.00    +0.118 HD
ATOM     12  H   LIG    1       24.098 -11.569   7.260  0.00  0.00    +0.118 HD
ENDBRANCH   4  10
BRANCH   3  13
ATOM     13  O   LIG    1       25.470 -14.320   5.949  0.00  0.00    -0.388 OA
ATOM     14  H   LIG    1       24.680 -14.170   6.510  0.00  0.00    +0.210 HD
ENDBRANCH   3  13
BRANCH   2  15
ATOM     15  O   LIG    1       26.045 -13.071   2.641  0.00  0.00    -0.340 OA
BRANCH  15  16
ATOM     16  C   LIG    1       27.437 -13.402   2.666  0.00  0.00    +0.282 C 
ATOM     17  C   LIG    1       28.135 -12.493   3.707  0.00  0.00    +0.201 C 
ATOM     18  C   LIG    1       28.860 -13.492   4.593  0.00  0.00    +0.179 C 
ATOM     19  C   LIG    1       27.945 -14.699   4.478  0.00  0.00    +0.178 C 
ATOM     20  O   LIG    1       27.611 -14.760   3.092  0.00  0.00    -0.341 OA
BRANCH  17  21
ATOM     21  O   LIG    1       29.060 -11.582   3.102  0.00  0.00    -0.384 OA
ATOM     22  H   LIG    1       28.808 -11.531   2.160  0.00  0.00    +0.210 HD
ENDBRANCH  17  21
BRANCH  18  23
ATOM     23  O   LIG    1       29.004 -13.008   5.923  0.00  0.00    -0.386 OA
ATOM     24  H   LIG    1       29.968 -12.993   6.102  0.00  0.00    +0.210 HD
ENDBRANCH  18  23
BRANCH  19  25
ATOM     25  C   LIG    1       28.602 -15.990   4.943  0.00  0.00    +0.190 C 
BRANCH  25  26
ATOM     26  O   LIG    1       28.122 -17.087   4.170  0.00  0.00    -0.392 OA
ATOM     27  H   LIG    1       28.024 -17.840   4.783  0.00  0.00    +0.209 HD
ENDBRANCH  25  26
ENDBRANCH  19  25
ENDBRANCH  15  16
ENDBRANCH   2  15
BRANCH   1  28
ATOM     28  O   LIG    1       22.934 -14.698   3.873  0.00  0.00    -0.342 OA
BRANCH  28  33
ATOM     29  C   LIG    1       23.911 -18.144   3.711  0.00  0.00    +0.166 C 
ATOM     30  C   LIG    1       22.980 -18.591   4.858  0.00  0.00    +0.175 C 
ATOM     31  C   LIG    1       21.898 -17.523   5.145  0.00  0.00    +0.167 C 
ATOM     32  C   LIG    1       21.573 -16.711   3.870  0.00  0.00    +0.139 C 
ATOM     33  C   LIG    1       22.891 -16.037   3.355  0.00  0.00    +0.270 C 
ATOM     34  O   LIG    1       24.071 -16.725   3.771  0.00  0.00    -0.343 OA
BRANCH  32  35
ATOM     35  N   LIG    1       20.937 -17.596   2.853  0.00  0.00    -0.321 NA
ATOM     36  H   LIG    1       21.580 -18.367   2.652  0.00  0.00    +0.119 HD
ATOM     37  H   LIG    1       20.117 -18.041   3.274  0.00  0.00    +0.119 HD
ENDBRANCH  32  35
BRANCH  30  38
ATOM     38  O   LIG    1       22.367 -19.835   4.487  0.00  0.00    -0.387 OA
ATOM     39  H   LIG    1       22.700 -20.041   3.591  0.00  0.00    +0.210 HD
ENDBRANCH  30  38
BRANCH  31  40
ATOM     40  O   LIG    1       22.313 -16.653   6.205  0.00  0.00    -0.387 OA
ATOM     41  H   LIG    1       21.751 -15.854   6.185  0.00  0.00    +0.210 HD
ENDBRANCH  31  40
BRANCH  29  42
ATOM     42  C   LIG    1       25.285 -18.837   3.813  0.00  0.00    +0.112 C 
BRANCH  42  43
ATOM     43  N   LIG    1       25.248 -20.023   4.678  0.00  0.00    -0.328 NA
ATOM     44  H   LIG    1       24.542 -19.885   5.399  0.00  0.00    +0.118 HD
ATOM     45  H   LIG    1       24.949 -20.834   4.137  0.00  0.00    +0.118 HD
ENDBRANCH  42  43
ENDBRANCH  29  42
ENDBRANCH  28  33
ENDBRANCH   1  28
TORSDOF 16
ENDMDL
MODEL 3
REMARK VINA RESULT:      11.5      2.039      5.061
REMARK  Name = *****
REMARK                            x       y       z     vdW  Elec       q    Type
REMARK                         _______ _______ _______ _____ _____    ______ ____
ROOT
ATOM      1  C   LIG    1       25.667 -18.409   4.036  0.00  0.00    +0.169 C 
ATOM      2  C   LIG    1       25.521 -18.968   5.473  0.00  0.00    +0.182 C 
ATOM      3  C   LIG    1       26.827 -19.644   5.975  0.00  0.00    +0.163 C 
ATOM      4  C   LIG    1       27.729 -20.143   4.817  0.00  0.00    +0.084 C 
ATOM      5  C   LIG    1       26.862 -20.684   3.684  0.00  0.00    +0.042 C 
ATOM      6  C   LIG    1       26.101 -19.519   3.025  0.00  0.00    +0.084 C 
ENDROOT
BRANCH   6   7
ATOM      7  N   LIG    1       24.990 -20.039   2.218  0.00  0.00    -0.325 NA
ATOM      8  H   LIG    1       24.622 -19.296   1.619  0.00  0.00    +0.118 HD
ATOM      9  H   LIG    1       25.338 -20.751   1.572  0.00  0.00    +0.118 HD
ENDBRANCH   6   7
BRANCH   4  10
ATOM     10  N   LIG    1       28.693 -21.138   5.316  0.00  0.00    -0.325 NA
ATOM     11  H   LIG    1       29.600 -20.988   4.871  0.00  0.00    +0.118 HD
ATOM     12  H   LIG    1       28.851 -20.975   6.312  0.00  0.00    +0.118 HD
ENDBRANCH   4  10
BRANCH   3  13
ATOM     13  O   LIG    1       27.598 -18.766   6.805  0.00  0.00    -0.388 OA
ATOM     14  H   LIG    1       26.945 -18.359   7.413  0.00  0.00    +0.210 HD
ENDBRANCH   3  13
BRANCH   2  15
ATOM     15  O   LIG    1       24.488 -19.983   5.512  0.00  0.00    -0.340 OA
BRANCH  15  16
ATOM     16  C   LIG    1       23.167 -19.480   5.736  0.00  0.00    +0.282 C 
ATOM     17  C   LIG    1       22.876 -18.388   4.679  0.00  0.00    +0.201 C 
ATOM     18  C   LIG    1       21.565 -18.852   4.068  0.00  0.00    +0.179 C 
ATOM     19  C   LIG    1       21.684 -20.358   4.234  0.00  0.00    +0.178 C 
ATOM     20  O   LIG    1       22.206 -20.528   5.551  0.00  0.00    -0.341 OA
BRANCH  17  21
ATOM     21  O   LIG    1       22.734 -17.088   5.263  0.00  0.00    -0.384 OA
ATOM     22  H   LIG    1       22.717 -17.229   6.230  0.00  0.00    +0.210 HD
ENDBRANCH  17  21
BRANCH  18  23
ATOM     23  O   LIG    1       21.438 -18.434   2.714  0.00  0.00    -0.386 OA
ATOM     24  H   LIG    1       20.775 -19.032   2.308  0.00  0.00    +0.210 HD
ENDBRANCH  18  23
BRANCH  19  25
ATOM     25  C   LIG    1       20.357 -21.081   4.070  0.00  0.00    +0.190 C 
BRANCH  25  26
ATOM     26  O   LIG    1       19.350 -20.165   3.648  0.00  0.00    -0.392 OA
ATOM     27  H   LIG    1       18.803 -20.636   2.990  0.00  0.00    +0.209 HD
ENDBRANCH  25  26
ENDBRANCH  19  25
ENDBRANCH  15  16
ENDBRANCH   2  15
BRANCH   1  28
ATOM     28  O   LIG    1       26.607 -17.318   4.012  0.00  0.00    -0.342 OA
BRANCH  28  33
ATOM     29  C   LIG    1       24.778 -14.243   3.777  0.00  0.00    +0.166 C 
ATOM     30  C   LIG    1       25.927 -13.373   4.333  0.00  0.00    +0.175 C 
ATOM     31  C   LIG    1       27.274 -14.131   4.281  0.00  0.00    +0.167 C 
ATOM     32  C   LIG    1       27.285 -15.159   3.126  0.00  0.00    +0.139 C 
ATOM     33  C   LIG    1       26.096 -16.159   3.333  0.00  0.00    +0.270 C 
ATOM     34  O   LIG    1       25.031 -15.610   4.109  0.00  0.00    -0.343 OA
BRANCH  32  35
ATOM     35  N   LIG    1       27.227 -14.450   1.816  0.00  0.00    -0.321 NA
ATOM     36  H   LIG    1       28.115 -13.961   1.676  0.00  0.00    +0.119 HD
ATOM     37  H   LIG    1       27.192 -15.148   1.068  0.00  0.00    +0.119 HD
ENDBRANCH  32  35
BRANCH  30  38
ATOM     38  O   LIG    1       26.002 -12.169   3.555  0.00  0.00    -0.387 OA
ATOM     39  H   LIG    1       25.294 -11.586   3.893  0.00  0.00    +0.210 HD
ENDBRANCH  30  38
BRANCH  31  40
ATOM     40  O   LIG    1       27.541 -14.776   5.533  0.00  0.00    -0.387 OA
ATOM     41  H   LIG    1       28.258 -15.426   5.398  0.00  0.00    +0.210 HD
ENDBRANCH  31  40
BRANCH  29  42
ATOM     42  C   LIG    1       23.420 -13.799   4.355  0.00  0.00    +0.112 C 
BRANCH  42  43
ATOM     43  N   LIG    1       23.462 -12.432   4.891  0.00  0.00    -0.328 NA
ATOM     44  H   LIG    1       23.113 -11.787   4.184  0.00  0.00    +0.118 HD
ATOM     45  H   LIG    1       22.829 -12.354   5.686  0.00  0.00    +0.118 HD
ENDBRANCH  42  43
ENDBRANCH  29  42
ENDBRANCH  28  33
ENDBRANCH   1  28
TORSDOF 16
ENDMDL
MODEL 4
REMARK VINA RESULT:      11.8      2.207      5.872
REMARK  Name = *****
REMARK                            x       y       z     vdW  Elec       q    Type
REMARK                         _______ _______ _______ _____ _____    ______ ____
ROOT
ATOM      1  C   LIG    1       23.290 -17.308   3.799  0.00  0.00    +0.169 C 
ATOM      2  C   LIG    1       23.746 -15.837   3.956  0.00  0.00    +0.182 C 
ATOM      3  C   LIG    1       23.228 -15.199   5.275  0.00  0.00    +0.163 C 
ATOM      4  C   LIG    1       21.953 -15.892   5.818  0.00  0.00    +0.084 C 
ATOM      5  C   LIG    1       21.056 -16.306   4.654  0.00  0.00    +0.042 C 
ATOM      6  C   LIG    1       21.734 -17.442   3.868  0.00  0.00    +0.084 C 
ENDROOT
BRANCH   6   7
ATOM      7  N   LIG    1       21.104 -17.587   2.550  0.00  0.00    -0.325 NA
ATOM      8  H   LIG    1       21.582 -18.318   2.018  0.00  0.00    +0.118 HD
ATOM      9  H   LIG    1       20.146 -17.927   2.663  0.00  0.00    +0.118 HD
ENDBRANCH   6   7
BRANCH   4  10
ATOM     10  N   LIG    1       21.264 -15.012   6.776  0.00  0.00    -0.325 NA
ATOM     11  H   LIG    1       20.296 -14.877   6.481  0.00  0.00    +0.118 HD
ATOM     12  H   LIG    1       21.207 -15.486   7.679  0.00  0.00    +0.118 HD
ENDBRANCH   4  10
BRANCH   3  13
ATOM     13  O   LIG    1       24.227 -15.216   6.304  0.00  0.00    -0.388 OA
ATOM     14  H   LIG    1       23.809 -14.759   7.065  0.00  0.00    +0.210 HD
ENDBRANCH   3  13
BRANCH   2  15
ATOM     15  O   LIG    1       23.218 -15.032   2.872  0.00  0.00    -0.340 OA
BRANCH  15  16
ATOM     16  C   LIG    1       23.989 -13.867   2.564  0.00  0.00    +0.282 C 
ATOM     17  C   LIG    1       24.188 -13.056   3.867  0.00  0.00    +0.201 C 
ATOM     18  C   LIG    1       25.695 -12.872   3.923  0.00  0.00    +0.179 C 
ATOM     19  C   LIG    1       26.167 -14.127   3.209  0.00  0.00    +0.178 C 
ATOM     20  O   LIG    1       25.288 -14.251   2.092  0.00  0.00    -0.341 OA
BRANCH  17  21
ATOM     21  O   LIG    1       23.520 -11.790   3.828  0.00  0.00    -0.384 OA
ATOM     22  H   LIG    1       22.665 -11.951   3.385  0.00  0.00    +0.210 HD
ENDBRANCH  17  21
BRANCH  18  23
ATOM     23  O   LIG    1       26.163 -12.765   5.261  0.00  0.00    -0.386 OA
ATOM     24  H   LIG    1       27.088 -13.093   5.251  0.00  0.00    +0.210 HD
ENDBRANCH  18  23
BRANCH  19  25
ATOM     25  C   LIG    1       27.618 -14.046   2.760  0.00  0.00    +0.190 C 
BRANCH  25  26
ATOM     26  O   LIG    1       28.180 -12.795   3.147  0.00  0.00    -0.392 OA
ATOM     27  H   LIG    1       27.775 -12.560   4.004  0.00  0.00    +0.209 HD
ENDBRANCH  25  26
ENDBRANCH  19  25
ENDBRANCH  15  16
ENDBRANCH   2  15
BRANCH   1  28
ATOM     28  O   LIG    1       23.907 -18.136   4.803  0.00  0.00    -0.342 OA
BRANCH  28  33
ATOM     29  C   LIG    1       27.326 -19.215   4.831  0.00  0.00    +0.166 C 
ATOM     30  C   LIG    1       27.090 -20.352   5.849  0.00  0.00    +0.175 C 
ATOM     31  C   LIG    1       25.583 -20.687   5.968  0.00  0.00    +0.167 C 
ATOM     32  C   LIG    1       24.842 -20.374   4.648  0.00  0.00    +0.139 C 
ATOM     33  C   LIG    1       25.046 -18.858   4.305  0.00  0.00    +0.270 C 
ATOM     34  O   LIG    1       26.226 -18.305   4.889  0.00  0.00    -0.343 OA
BRANCH  32  35
ATOM     35  N   LIG    1       25.323 -21.283   3.568  0.00  0.00    -0.321 NA
ATOM     36  H   LIG    1       26.182 -21.737   3.891  0.00  0.00    +0.119 HD
ATOM     37  H   LIG    1       24.650 -22.045   3.458  0.00  0.00    +0.119 HD
ENDBRANCH  32  35
BRANCH  30  38
ATOM     38  O   LIG    1       27.824 -21.507   5.418  0.00  0.00    -0.387 OA
ATOM     39  H   LIG    1       27.427 -22.268   5.885  0.00  0.00    +0.210 HD
ENDBRANCH  30  38
BRANCH  31  40
ATOM     40  O   LIG    1       24.991 -19.974   7.060  0.00  0.00    -0.387 OA
ATOM     41  H   LIG    1       24.120 -20.373   7.252  0.00  0.00    +0.210 HD
ENDBRANCH  31  40
BRANCH  29  42
ATOM     42  C   LIG    1       28.644 -18.472   5.130  0.00  0.00    +0.112 C 
BRANCH  42  43
ATOM     43  N   LIG    1       29.390 -19.084   6.238  0.00  0.00    -0.328 NA
ATOM     44  H   LIG    1       29.498 -20.080   6.054  0.00  0.00    +0.118 HD
ATOM     45  H   LIG    1       30.331 -18.696   6.275  0.00  0.00    +0.118 HD
ENDBRANCH  42  43
ENDBRANCH  29  42
ENDBRANCH  28  33
ENDBRANCH   1  28
TORSDOF 16
ENDMDL
MODEL 5
REMARK VINA RESULT:      12.8      2.040      6.687
REMARK  Name = *****
REMARK                            x       y       z     vdW  Elec       q    Type
REMARK                         _______ _______ _______ _____ _____    ______ ____
ROOT
ATOM      1  C   LIG    1       25.522 -16.830   3.175  0.00  0.00    +0.169 C 
ATOM      2  C   LIG    1       26.509 -15.727   2.721  0.00  0.00    +0.182 C 
ATOM      3  C   LIG    1       27.108 -14.946   3.923  0.00  0.00    +0.163 C 
ATOM      4  C   LIG    1       26.207 -14.996   5.183  0.00  0.00    +0.084 C 
ATOM      5  C   LIG    1       24.739 -14.940   4.768  0.00  0.00    +0.042 C 
ATOM      6  C   LIG    1       24.364 -16.247   4.048  0.00  0.00    +0.084 C 
ENDROOT
BRANCH   6   7
ATOM      7  N   LIG    1       23.109 -16.070   3.307  0.00  0.00    -0.325 NA
ATOM      8  H   LIG    1       22.333 -16.465   3.843  0.00  0.00    +0.118 HD
ATOM      9  H   LIG    1       22.894 -15.072   3.229  0.00  0.00    +0.118 HD
ENDBRANCH   6   7
BRANCH   4  10
ATOM     10  N   LIG    1       26.573 -13.915   6.113  0.00  0.00    -0.325 NA
ATOM     11  H   LIG    1       27.587 -13.800   6.122  0.00  0.00    +0.118 HD
ATOM     12  H   LIG    1       26.205 -13.031   5.755  0.00  0.00    +0.118 HD
ENDBRANCH   4  10
BRANCH   3  13
ATOM     13  O   LIG    1       28.411 -15.430   4.278  0.00  0.00    -0.388 OA
ATOM     14  H   LIG    1       28.399 -16.380   4.036  0.00  0.00    +0.210 HD
ENDBRANCH   3  13
BRANCH   2  15
ATOM     15  O   LIG    1       25.824 -14.753   1.895  0.00  0.00    -0.340 OA
BRANCH  15  16
ATOM     16  C   LIG    1       26.464 -13.475   1.825  0.00  0.00    +0.282 C 
ATOM     17  C   LIG    1       25.652 -12.477   2.686  0.00  0.00    +0.201 C 
ATOM     18  C   LIG    1       26.708 -11.891   3.608  0.00  0.00    +0.179 C 
ATOM     19  C   LIG    1       27.677 -13.056   3.717  0.00  0.00    +0.178 C 
ATOM     20  O   LIG    1       27.782 -13.556   2.384  0.00  0.00    -0.341 OA
BRANCH  17  21
ATOM     21  O   LIG    1       25.037 -11.451   1.898  0.00  0.00    -0.384 OA
ATOM     22  H   LIG    1       25.529 -11.430   1.055  0.00  0.00    +0.210 HD
ENDBRANCH  17  21
BRANCH  18  23
ATOM     23  O   LIG    1       26.155 -11.489   4.855  0.00  0.00    -0.386 OA
ATOM     24  H   LIG    1       26.494 -12.126   5.519  0.00  0.00    +0.210 HD
ENDBRANCH  18  23
BRANCH  19  25
ATOM     25  C   LIG    1       29.038 -12.650   4.260  0.00  0.00    +0.190 C 
BRANCH  25  26
ATOM     26  O   LIG    1       28.879 -11.887   5.454  0.00  0.00    -0.392 OA
ATOM     27  H   LIG    1       28.113 -12.264   5.927  0.00  0.00    +0.209 HD
ENDBRANCH  25  26
ENDBRANCH  19  25
ENDBRANCH  15  16
ENDBRANCH   2  15
BRANCH   1  28
ATOM     28  O   LIG    1       26.218 -17.864   3.896  0.00  0.00    -0.342 OA
BRANCH  28  33
ATOM     29  C   LIG    1       23.055 -19.216   4.909  0.00  0.00    +0.166 C 
ATOM     30  C   LIG    1       23.094 -20.389   3.906  0.00  0.00    +0.175 C 
ATOM     31  C   LIG    1       24.526 -20.607   3.361  0.00  0.00    +0.167 C 
ATOM     32  C   LIG    1       25.584 -20.157   4.394  0.00  0.00    +0.139 C 
ATOM     33  C   LIG    1       25.346 -18.645   4.730  0.00  0.00    +0.270 C 
ATOM     34  O   LIG    1       24.000 -18.225   4.500  0.00  0.00    -0.343 OA
BRANCH  32  35
ATOM     35  N   LIG    1       25.525 -21.035   5.597  0.00  0.00    -0.321 NA
ATOM     36  H   LIG    1       24.711 -21.649   5.506  0.00  0.00    +0.119 HD
ATOM     37  H   LIG    1       26.331 -21.665   5.583  0.00  0.00    +0.119 HD
ENDBRANCH  32  35
BRANCH  30  38
ATOM     38  O   LIG    1       22.629 -21.572   4.572  0.00  0.00    -0.387 OA
ATOM     39  H   LIG    1       21.901 -21.922   4.021  0.00  0.00    +0.210 HD
ENDBRANCH  30  38
BRANCH  31  40
ATOM     40  O   LIG    1       24.707 -19.916   2.119  0.00  0.00    -0.387 OA
ATOM     41  H   LIG    1       25.342 -19.187   2.262  0.00  0.00    +0.210 HD
ENDBRANCH  31  40
BRANCH  29  42
ATOM     42  C   LIG    1       21.643 -18.601   4.985  0.00  0.00    +0.112 C 
BRANCH  42  43
ATOM     43  N   LIG    1       21.031 -18.447   3.659  0.00  0.00    -0.328 NA
ATOM     44  H   LIG    1       21.765 -18.282   2.972  0.00  0.00    +0.118 HD
ATOM     45  H   LIG    1       20.575 -19.317   3.387  0.00  0.00    +0.118 HD
ENDBRANCH  42  43
ENDBRANCH  29  42
ENDBRANCH  28  33
ENDBRANCH   1  28
TORSDOF 16
ENDMDL
