MODEL 1
REMARK VINA RESULT:      -8.9      0.000      0.000
REMARK  Name = *****
REMARK                            x       y       z     vdW  Elec       q    Type
REMARK                         _______ _______ _______ _____ _____    ______ ____
ROOT
ATOM      1  C   LIG    1       25.122 -21.981   7.274  0.00  0.00    +0.179 C 
ENDROOT
BRANCH   1   4
ATOM      2  C   LIG    1       22.398 -23.451   6.633  0.00  0.00    +0.044 C 
ATOM      3  C   LIG    1       23.743 -24.124   6.654  0.00  0.00    -0.044 A 
ATOM      4  C   LIG    1       24.976 -23.453   6.827  0.00  0.00    -0.012 A 
ATOM      5  C   LIG    1       26.160 -24.202   6.612  0.00  0.00    +0.007 A 
ATOM      6  C   LIG    1       26.133 -25.544   6.228  0.00  0.00    +0.000 A 
ATOM      7  C   LIG    1       24.922 -26.208   6.138  0.00  0.00    +0.000 A 
ATOM      8  C   LIG    1       23.739 -25.507   6.361  0.00  0.00    +0.003 A 
ENDBRANCH   1   4
BRANCH   1   9
ATOM      9  C   LIG    1       24.573 -20.912   6.319  0.00  0.00    -0.015 A 
ATOM     10  C   LIG    1       25.274 -20.643   5.133  0.00  0.00    +0.006 A 
ATOM     11  C   LIG    1       24.670 -19.997   4.054  0.00  0.00    +0.000 A 
ATOM     12  C   LIG    1       23.357 -19.530   4.179  0.00  0.00    +0.000 A 
ATOM     13  C   LIG    1       22.708 -19.648   5.395  0.00  0.00    +0.000 A 
ATOM     14  C   LIG    1       23.301 -20.324   6.463  0.00  0.00    +0.006 A 
ENDBRANCH   1   9
BRANCH   1  15
ATOM     15  O   LIG    1       26.544 -21.783   7.504  0.00  0.00    -0.366 OA
BRANCH  15  16
ATOM     16  C   LIG    1       26.919 -20.556   8.134  0.00  0.00    +0.176 C 
BRANCH  16  17
ATOM     17  C   LIG    1       28.231 -19.959   7.567  0.00  0.00    +0.112 C 
BRANCH  17  18
ATOM     18  N   LIG    1       29.402 -19.800   8.447  0.00  0.00    -0.306 NA
ATOM     19  C   LIG    1       30.043 -18.500   8.273  0.00  0.00    +0.104 C 
ATOM     20  C   LIG    1       30.372 -20.878   8.312  0.00  0.00    +0.104 C 
ENDBRANCH  17  18
ENDBRANCH  16  17
ENDBRANCH  15  16
ENDBRANCH   1  15
TORSDOF 6
ENDMDL
MODEL 2
REMARK VINA RESULT:      -8.6      1.161      4.280
REMARK  Name = *****
REMARK                            x       y       z     vdW  Elec       q    Type
REMARK                         _______ _______ _______ _____ _____    ______ ____
ROOT
ATOM      1  C   LIG    1       25.905 -21.788   6.138  0.00  0.00    +0.179 C 
ENDROOT
BRANCH   1   4
ATOM      2  C   LIG    1       23.118 -21.043   7.429  0.00  0.00    +0.044 C 
ATOM      3  C   LIG    1       23.583 -20.570   6.079  0.00  0.00    -0.044 A 
ATOM      4  C   LIG    1       24.872 -20.804   5.545  0.00  0.00    -0.012 A 
ATOM      5  C   LIG    1       25.218 -20.113   4.356  0.00  0.00    +0.007 A 
ATOM      6  C   LIG    1       24.345 -19.221   3.732  0.00  0.00    +0.000 A 
ATOM      7  C   LIG    1       23.061 -19.060   4.222  0.00  0.00    +0.000 A 
ATOM      8  C   LIG    1       22.680 -19.738   5.378  0.00  0.00    +0.003 A 
ENDBRANCH   1   4
BRANCH   1   9
ATOM      9  C   LIG    1       25.502 -23.268   6.181  0.00  0.00    -0.015 A 
ATOM     10  C   LIG    1       24.916 -23.841   5.042  0.00  0.00    +0.006 A 
ATOM     11  C   LIG    1       24.879 -25.223   4.852  0.00  0.00    +0.000 A 
ATOM     12  C   LIG    1       25.362 -26.068   5.857  0.00  0.00    +0.000 A 
ATOM     13  C   LIG    1       25.796 -25.523   7.052  0.00  0.00    +0.000 A 
ATOM     14  C   LIG    1       25.864 -24.140   7.228  0.00  0.00    +0.006 A 
ENDBRANCH   1   9
BRANCH   1  15
ATOM     15  O   LIG    1       26.190 -21.293   7.475  0.00  0.00    -0.366 OA
BRANCH  15  16
ATOM     16  C   LIG    1       27.334 -20.447   7.608  0.00  0.00    +0.176 C 
BRANCH  16  17
ATOM     17  C   LIG    1       28.668 -21.232   7.659  0.00  0.00    +0.112 C 
BRANCH  17  18
ATOM     18  N   LIG    1       29.858 -20.612   8.269  0.00  0.00    -0.306 NA
ATOM     19  C   LIG    1       30.570 -19.755   7.326  0.00  0.00    +0.104 C 
ATOM     20  C   LIG    1       30.763 -21.581   8.873  0.00  0.00    +0.104 C 
ENDBRANCH  17  18
ENDBRANCH  16  17
ENDBRANCH  15  16
ENDBRANCH   1  15
TORSDOF 6
ENDMDL
MODEL 3
REMARK VINA RESULT:      -8.2      0.879      4.508
REMARK  Name = *****
REMARK                            x       y       z     vdW  Elec       q    Type
REMARK                         _______ _______ _______ _____ _____    ______ ____
ROOT
ATOM      1  C   LIG    1       25.282 -21.419   6.768  0.00  0.00    +0.179 C 
ENDROOT
BRANCH   1   4
ATOM      2  C   LIG    1       26.385 -19.882   4.236  0.00  0.00    +0.044 C 
ATOM      3  C   LIG    1       24.957 -19.828   4.708  0.00  0.00    -0.044 A 
ATOM      4  C   LIG    1       24.432 -20.602   5.770  0.00  0.00    -0.012 A 
ATOM      5  C   LIG    1       23.025 -20.588   5.949  0.00  0.00    +0.007 A 
ATOM      6  C   LIG    1       22.175 -19.862   5.113  0.00  0.00    +0.000 A 
ATOM      7  C   LIG    1       22.708 -19.050   4.128  0.00  0.00    +0.000 A 
ATOM      8  C   LIG    1       24.088 -19.025   3.935  0.00  0.00    +0.003 A 
ENDBRANCH   1   4
BRANCH   1   9
ATOM      9  C   LIG    1       24.986 -22.922   6.856  0.00  0.00    -0.015 A 
ATOM     10  C   LIG    1       23.651 -23.352   6.804  0.00  0.00    +0.006 A 
ATOM     11  C   LIG    1       23.316 -24.670   6.490  0.00  0.00    +0.000 A 
ATOM     12  C   LIG    1       24.333 -25.612   6.302  0.00  0.00    +0.000 A 
ATOM     13  C   LIG    1       25.650 -25.240   6.506  0.00  0.00    +0.000 A 
ATOM     14  C   LIG    1       25.986 -23.914   6.786  0.00  0.00    +0.006 A 
ENDBRANCH   1   9
BRANCH   1  15
ATOM     15  O   LIG    1       25.086 -20.780   8.059  0.00  0.00    -0.366 OA
BRANCH  15  16
ATOM     16  C   LIG    1       26.264 -20.312   8.720  0.00  0.00    +0.176 C 
BRANCH  16  17
ATOM     17  C   LIG    1       27.503 -20.266   7.792  0.00  0.00    +0.112 C 
BRANCH  17  18
ATOM     18  N   LIG    1       28.853 -20.192   8.378  0.00  0.00    -0.306 NA
ATOM     19  C   LIG    1       29.555 -18.976   7.979  0.00  0.00    +0.104 C 
ATOM     20  C   LIG    1       29.662 -21.371   8.104  0.00  0.00    +0.104 C 
ENDBRANCH  17  18
ENDBRANCH  16  17
ENDBRANCH  15  16
ENDBRANCH   1  15
TORSDOF 6
ENDMDL
MODEL 4
REMARK VINA RESULT:      -8.1      2.055      5.608
REMARK  Name = *****
REMARK                            x       y       z     vdW  Elec       q    Type
REMARK                         _______ _______ _______ _____ _____    ______ ____
ROOT
ATOM      1  C   LIG    1       26.370 -21.081   6.833  0.00  0.00    +0.179 C 
ENDROOT
BRANCH   1   4
ATOM      2  C   LIG    1       23.291 -20.791   7.482  0.00  0.00    +0.044 C 
ATOM      3  C   LIG    1       23.911 -20.482   6.147  0.00  0.00    -0.044 A 
ATOM      4  C   LIG    1       25.300 -20.498   5.882  0.00  0.00    -0.012 A 
ATOM      5  C   LIG    1       25.730 -19.979   4.636  0.00  0.00    +0.007 A 
ATOM      6  C   LIG    1       24.838 -19.452   3.700  0.00  0.00    +0.000 A 
ATOM      7  C   LIG    1       23.477 -19.512   3.940  0.00  0.00    +0.000 A 
ATOM      8  C   LIG    1       23.017 -20.033   5.147  0.00  0.00    +0.003 A 
ENDBRANCH   1   4
BRANCH   1   9
ATOM      9  C   LIG    1       27.741 -20.391   6.832  0.00  0.00    -0.015 A 
ATOM     10  C   LIG    1       28.190 -19.782   5.650  0.00  0.00    +0.006 A 
ATOM     11  C   LIG    1       29.206 -18.826   5.658  0.00  0.00    +0.000 A 
ATOM     12  C   LIG    1       29.856 -18.522   6.859  0.00  0.00    +0.000 A 
ATOM     13  C   LIG    1       29.533 -19.229   8.003  0.00  0.00    +0.000 A 
ATOM     14  C   LIG    1       28.494 -20.161   8.002  0.00  0.00    +0.006 A 
ENDBRANCH   1   9
BRANCH   1  15
ATOM     15  O   LIG    1       26.499 -22.481   6.463  0.00  0.00    -0.366 OA
BRANCH  15  16
ATOM     16  C   LIG    1       25.940 -23.431   7.372  0.00  0.00    +0.176 C 
BRANCH  16  17
ATOM     17  C   LIG    1       25.767 -24.839   6.750  0.00  0.00    +0.112 C 
BRANCH  17  18
ATOM     18  N   LIG    1       24.415 -25.382   6.535  0.00  0.00    -0.306 NA
ATOM     19  C   LIG    1       24.324 -26.146   5.294  0.00  0.00    +0.104 C 
ATOM     20  C   LIG    1       23.372 -24.367   6.595  0.00  0.00    +0.104 C 
ENDBRANCH  17  18
ENDBRANCH  16  17
ENDBRANCH  15  16
ENDBRANCH   1  15
TORSDOF 6
ENDMDL
MODEL 5
REMARK VINA RESULT:      -7.9      2.213      5.142
REMARK  Name = *****
REMARK                            x       y       z     vdW  Elec       q    Type
REMARK                         _______ _______ _______ _____ _____    ______ ____
ROOT
ATOM      1  C   LIG    1       25.802 -21.338   5.807  0.00  0.00    +0.179 C 
ENDROOT
BRANCH   1   4
ATOM      2  C   LIG    1       25.891 -20.732   8.908  0.00  0.00    +0.044 C 
ATOM      3  C   LIG    1       26.992 -20.388   7.942  0.00  0.00    -0.044 A 
ATOM      4  C   LIG    1       27.009 -20.758   6.577  0.00  0.00    -0.012 A 
ATOM      5  C   LIG    1       28.213 -20.539   5.860  0.00  0.00    +0.007 A 
ATOM      6  C   LIG    1       29.351 -19.998   6.462  0.00  0.00    +0.000 A 
ATOM      7  C   LIG    1       29.295 -19.571   7.777  0.00  0.00    +0.000 A 
ATOM      8  C   LIG    1       28.123 -19.753   8.506  0.00  0.00    +0.003 A 
ENDBRANCH   1   4
BRANCH   1   9
ATOM      9  C   LIG    1       24.712 -20.344   5.384  0.00  0.00    -0.015 A 
ATOM     10  C   LIG    1       24.923 -19.559   4.240  0.00  0.00    +0.006 A 
ATOM     11  C   LIG    1       23.867 -18.936   3.574  0.00  0.00    +0.000 A 
ATOM     12  C   LIG    1       22.574 -19.023   4.100  0.00  0.00    +0.000 A 
ATOM     13  C   LIG    1       22.376 -19.660   5.312  0.00  0.00    +0.000 A 
ATOM     14  C   LIG    1       23.426 -20.312   5.960  0.00  0.00    +0.006 A 
ENDBRANCH   1   9
BRANCH   1  15
ATOM     15  O   LIG    1       25.250 -22.370   6.670  0.00  0.00    -0.366 OA
BRANCH  15  16
ATOM     16  C   LIG    1       25.796 -23.682   6.518  0.00  0.00    +0.176 C 
BRANCH  16  17
ATOM     17  C   LIG    1       25.080 -24.516   5.427  0.00  0.00    +0.112 C 
BRANCH  17  18
ATOM     18  N   LIG    1       25.393 -25.949   5.278  0.00  0.00    -0.306 NA
ATOM     19  C   LIG    1       24.252 -26.794   5.614  0.00  0.00    +0.104 C 
ATOM     20  C   LIG    1       26.577 -26.357   6.022  0.00  0.00    +0.104 C 
ENDBRANCH  17  18
ENDBRANCH  16  17
ENDBRANCH  15  16
ENDBRANCH   1  15
TORSDOF 6
ENDMDL
MODEL 6
REMARK VINA RESULT:      -7.8      1.407      2.104
REMARK  Name = *****
REMARK                            x       y       z     vdW  Elec       q    Type
REMARK                         _______ _______ _______ _____ _____    ______ ____
ROOT
ATOM      1  C   LIG    1       25.509 -21.010   6.070  0.00  0.00    +0.179 C 
ENDROOT
BRANCH   1   4
ATOM      2  C   LIG    1       26.149 -22.706   8.658  0.00  0.00    +0.044 C 
ATOM      3  C   LIG    1       25.824 -23.297   7.313  0.00  0.00    -0.044 A 
ATOM      4  C   LIG    1       25.424 -22.549   6.182  0.00  0.00    -0.012 A 
ATOM      5  C   LIG    1       24.952 -23.272   5.058  0.00  0.00    +0.007 A 
ATOM      6  C   LIG    1       24.861 -24.666   5.053  0.00  0.00    +0.000 A 
ATOM      7  C   LIG    1       25.326 -25.388   6.138  0.00  0.00    +0.000 A 
ATOM      8  C   LIG    1       25.814 -24.710   7.253  0.00  0.00    +0.003 A 
ENDBRANCH   1   4
BRANCH   1   9
ATOM      9  C   LIG    1       24.441 -20.322   5.208  0.00  0.00    -0.015 A 
ATOM     10  C   LIG    1       23.143 -20.185   5.723  0.00  0.00    +0.006 A 
ATOM     11  C   LIG    1       22.240 -19.260   5.200  0.00  0.00    +0.000 A 
ATOM     12  C   LIG    1       22.601 -18.503   4.080  0.00  0.00    +0.000 A 
ATOM     13  C   LIG    1       23.817 -18.740   3.464  0.00  0.00    +0.000 A 
ATOM     14  C   LIG    1       24.733 -19.642   4.008  0.00  0.00    +0.006 A 
ENDBRANCH   1   9
BRANCH   1  15
ATOM     15  O   LIG    1       26.841 -20.730   5.559  0.00  0.00    -0.366 OA
BRANCH  15  16
ATOM     16  C   LIG    1       27.716 -20.013   6.433  0.00  0.00    +0.176 C 
BRANCH  16  17
ATOM     17  C   LIG    1       28.896 -20.874   6.950  0.00  0.00    +0.112 C 
BRANCH  17  18
ATOM     18  N   LIG    1       29.946 -20.253   7.777  0.00  0.00    -0.306 NA
ATOM     19  C   LIG    1       30.845 -19.421   6.983  0.00  0.00    +0.104 C 
ATOM     20  C   LIG    1       30.697 -21.218   8.569  0.00  0.00    +0.104 C 
ENDBRANCH  17  18
ENDBRANCH  16  17
ENDBRANCH  15  16
ENDBRANCH   1  15
TORSDOF 6
ENDMDL
MODEL 7
REMARK VINA RESULT:      -7.7      2.322      5.772
REMARK  Name = *****
REMARK                            x       y       z     vdW  Elec       q    Type
REMARK                         _______ _______ _______ _____ _____    ______ ____
ROOT
ATOM      1  C   LIG    1       25.381 -20.836   5.873  0.00  0.00    +0.179 C 
ENDROOT
BRANCH   1   4
ATOM      2  C   LIG    1       26.130 -20.817   8.944  0.00  0.00    +0.044 C 
ATOM      3  C   LIG    1       27.017 -20.291   7.849  0.00  0.00    -0.044 A 
ATOM      4  C   LIG    1       26.739 -20.401   6.466  0.00  0.00    -0.012 A 
ATOM      5  C   LIG    1       27.774 -20.044   5.565  0.00  0.00    +0.007 A 
ATOM      6  C   LIG    1       29.029 -19.617   6.003  0.00  0.00    +0.000 A 
ATOM      7  C   LIG    1       29.261 -19.442   7.356  0.00  0.00    +0.000 A 
ATOM      8  C   LIG    1       28.260 -19.765   8.269  0.00  0.00    +0.003 A 
ENDBRANCH   1   4
BRANCH   1   9
ATOM      9  C   LIG    1       24.825 -22.188   6.342  0.00  0.00    -0.015 A 
ATOM     10  C   LIG    1       23.470 -22.274   6.698  0.00  0.00    +0.006 A 
ATOM     11  C   LIG    1       22.803 -23.498   6.756  0.00  0.00    +0.000 A 
ATOM     12  C   LIG    1       23.516 -24.681   6.535  0.00  0.00    +0.000 A 
ATOM     13  C   LIG    1       24.884 -24.623   6.340  0.00  0.00    +0.000 A 
ATOM     14  C   LIG    1       25.545 -23.396   6.249  0.00  0.00    +0.006 A 
ENDBRANCH   1   9
BRANCH   1  15
ATOM     15  O   LIG    1       25.564 -20.828   4.431  0.00  0.00    -0.366 OA
BRANCH  15  16
ATOM     16  C   LIG    1       24.394 -20.598   3.644  0.00  0.00    +0.176 C 
BRANCH  16  17
ATOM     17  C   LIG    1       23.906 -19.129   3.696  0.00  0.00    +0.112 C 
BRANCH  17  18
ATOM     18  N   LIG    1       22.497 -18.837   4.016  0.00  0.00    -0.306 NA
ATOM     19  C   LIG    1       22.337 -17.519   4.623  0.00  0.00    +0.104 C 
ATOM     20  C   LIG    1       21.871 -19.865   4.836  0.00  0.00    +0.104 C 
ENDBRANCH  17  18
ENDBRANCH  16  17
ENDBRANCH  15  16
ENDBRANCH   1  15
TORSDOF 6
ENDMDL
MODEL 8
REMARK VINA RESULT:      -7.7      2.598      5.446
REMARK  Name = *****
REMARK                            x       y       z     vdW  Elec       q    Type
REMARK                         _______ _______ _______ _____ _____    ______ ____
ROOT
ATOM      1  C   LIG    1       25.031 -21.593   5.266  0.00  0.00    +0.179 C 
ENDROOT
BRANCH   1   4
ATOM      2  C   LIG    1       27.738 -19.963   5.196  0.00  0.00    +0.044 C 
ATOM      3  C   LIG    1       27.068 -20.445   6.453  0.00  0.00    -0.044 A 
ATOM      4  C   LIG    1       25.802 -21.074   6.500  0.00  0.00    -0.012 A 
ATOM      5  C   LIG    1       25.223 -21.275   7.778  0.00  0.00    +0.007 A 
ATOM      6  C   LIG    1       25.852 -20.863   8.954  0.00  0.00    +0.000 A 
ATOM      7  C   LIG    1       27.123 -20.319   8.899  0.00  0.00    +0.000 A 
ATOM      8  C   LIG    1       27.730 -20.123   7.661  0.00  0.00    +0.003 A 
ENDBRANCH   1   4
BRANCH   1   9
ATOM      9  C   LIG    1       24.023 -20.628   4.626  0.00  0.00    -0.015 A 
ATOM     10  C   LIG    1       22.671 -20.724   4.993  0.00  0.00    +0.006 A 
ATOM     11  C   LIG    1       21.776 -19.676   4.775  0.00  0.00    +0.000 A 
ATOM     12  C   LIG    1       22.210 -18.530   4.100  0.00  0.00    +0.000 A 
ATOM     13  C   LIG    1       23.496 -18.487   3.593  0.00  0.00    +0.000 A 
ATOM     14  C   LIG    1       24.401 -19.521   3.840  0.00  0.00    +0.006 A 
ENDBRANCH   1   9
BRANCH   1  15
ATOM     15  O   LIG    1       24.370 -22.812   5.704  0.00  0.00    -0.366 OA
BRANCH  15  16
ATOM     16  C   LIG    1       25.002 -24.041   5.343  0.00  0.00    +0.176 C 
BRANCH  16  17
ATOM     17  C   LIG    1       24.308 -25.284   5.954  0.00  0.00    +0.112 C 
BRANCH  17  18
ATOM     18  N   LIG    1       24.555 -26.617   5.377  0.00  0.00    -0.306 NA
ATOM     19  C   LIG    1       24.384 -27.679   6.364  0.00  0.00    +0.104 C 
ATOM     20  C   LIG    1       25.849 -26.726   4.718  0.00  0.00    +0.104 C 
ENDBRANCH  17  18
ENDBRANCH  16  17
ENDBRANCH  15  16
ENDBRANCH   1  15
TORSDOF 6
ENDMDL
MODEL 9
REMARK VINA RESULT:      -7.0      2.414      5.974
REMARK  Name = *****
REMARK                            x       y       z     vdW  Elec       q    Type
REMARK                         _______ _______ _______ _____ _____    ______ ____
ROOT
ATOM      1  C   LIG    1       24.434 -21.977   6.557  0.00  0.00    +0.179 C 
ENDROOT
BRANCH   1   4
ATOM      2  C   LIG    1       26.167 -20.293   4.520  0.00  0.00    +0.044 C 
ATOM      3  C   LIG    1       24.700 -20.075   4.772  0.00  0.00    -0.044 A 
ATOM      4  C   LIG    1       23.894 -20.896   5.594  0.00  0.00    -0.012 A 
ATOM      5  C   LIG    1       22.494 -20.679   5.557  0.00  0.00    +0.007 A 
ATOM      6  C   LIG    1       21.911 -19.710   4.737  0.00  0.00    +0.000 A 
ATOM      7  C   LIG    1       22.717 -18.864   3.996  0.00  0.00    +0.000 A 
ATOM      8  C   LIG    1       24.099 -19.037   4.023  0.00  0.00    +0.003 A 
ENDBRANCH   1   4
BRANCH   1   9
ATOM      9  C   LIG    1       25.709 -21.630   7.338  0.00  0.00    -0.015 A 
ATOM     10  C   LIG    1       26.893 -22.321   7.038  0.00  0.00    +0.006 A 
ATOM     11  C   LIG    1       28.145 -21.824   7.402  0.00  0.00    +0.000 A 
ATOM     12  C   LIG    1       28.226 -20.649   8.156  0.00  0.00    +0.000 A 
ATOM     13  C   LIG    1       27.062 -20.041   8.594  0.00  0.00    +0.000 A 
ATOM     14  C   LIG    1       25.811 -20.521   8.202  0.00  0.00    +0.006 A 
ENDBRANCH   1   9
BRANCH   1  15
ATOM     15  O   LIG    1       24.639 -23.161   5.739  0.00  0.00    -0.366 OA
BRANCH  15  16
ATOM     16  C   LIG    1       24.129 -24.389   6.261  0.00  0.00    +0.176 C 
BRANCH  16  17
ATOM     17  C   LIG    1       25.188 -25.518   6.302  0.00  0.00    +0.112 C 
BRANCH  17  18
ATOM     18  N   LIG    1       25.018 -26.711   5.454  0.00  0.00    -0.306 NA
ATOM     19  C   LIG    1       24.354 -27.798   6.168  0.00  0.00    +0.104 C 
ATOM     20  C   LIG    1       26.263 -27.171   4.854  0.00  0.00    +0.104 C 
ENDBRANCH  17  18
ENDBRANCH  16  17
ENDBRANCH  15  16
ENDBRANCH   1  15
TORSDOF 6
ENDMDL
