MODEL 1
REMARK VINA RESULT:      -7.4      0.000      0.000
REMARK  Name = *****
REMARK                            x       y       z     vdW  Elec       q    Type
REMARK                         _______ _______ _______ _____ _____    ______ ____
ROOT
ATOM      1  N   LIG    1       30.542 -19.762   7.777  0.00  0.00    -0.269 N 
ATOM      2  C   LIG    1       30.405 -21.030   8.301  0.00  0.00    +0.368 A 
ATOM      3  C   LIG    1       29.438 -21.657   7.558  0.00  0.00    +0.217 A 
ATOM      4  N   LIG    1       28.937 -20.799   6.621  0.00  0.00    -0.234 NA
ATOM      5  C   LIG    1       29.600 -19.664   6.759  0.00  0.00    +0.112 A 
ATOM      6  C   LIG    1       29.376 -18.485   5.879  0.00  0.00    +0.086 C 
ENDROOT
BRANCH   2   7
ATOM      7  N   LIG    1       31.141 -21.589   9.383  0.00  0.00    +0.100 N 
ATOM      8  O   LIG    1       32.368 -21.455   9.346  0.00  0.00    -0.575 OA
ATOM      9  O   LIG    1       30.505 -22.153  10.281  0.00  0.00    +0.043 OA
ENDBRANCH   2   7
BRANCH   1  10
ATOM     10  C   LIG    1       31.479 -18.714   8.171  0.00  0.00    +0.152 C 
BRANCH  10  11
ATOM     11  C   LIG    1       30.781 -17.497   8.760  0.00  0.00    +0.187 C 
BRANCH  11  12
ATOM     12  S   LIG    1       30.942 -17.390  10.530  0.00  0.00    -0.030 S 
ATOM     13  O   LIG    1       30.074 -16.309  10.978  0.00  0.00    -0.174 OA
ATOM     14  O   LIG    1       30.765 -18.738  11.052  0.00  0.00    -0.174 OA
BRANCH  12  16
ATOM     15  C   LIG    1       33.022 -15.625  10.093  0.00  0.00    +0.028 C 
ATOM     16  C   LIG    1       32.631 -16.902  10.813  0.00  0.00    +0.162 C 
ENDBRANCH  12  16
ENDBRANCH  11  12
ENDBRANCH  10  11
ENDBRANCH   1  10
TORSDOF 5
ENDMDL
MODEL 2
REMARK VINA RESULT:      -7.2      2.937      4.958
REMARK  Name = *****
REMARK                            x       y       z     vdW  Elec       q    Type
REMARK                         _______ _______ _______ _____ _____    ______ ____
ROOT
ATOM      1  N   LIG    1       30.030 -20.318   7.518  0.00  0.00    -0.269 N 
ATOM      2  C   LIG    1       31.020 -20.498   8.461  0.00  0.00    +0.368 A 
ATOM      3  C   LIG    1       31.680 -19.301   8.567  0.00  0.00    +0.217 A 
ATOM      4  N   LIG    1       31.161 -18.400   7.682  0.00  0.00    -0.234 NA
ATOM      5  C   LIG    1       30.175 -19.015   7.055  0.00  0.00    +0.112 A 
ATOM      6  C   LIG    1       29.320 -18.344   6.037  0.00  0.00    +0.086 C 
ENDROOT
BRANCH   2   7
ATOM      7  N   LIG    1       31.288 -21.685   9.199  0.00  0.00    +0.100 N 
ATOM      8  O   LIG    1       32.056 -22.500   8.678  0.00  0.00    -0.575 OA
ATOM      9  O   LIG    1       30.748 -21.810  10.304  0.00  0.00    +0.043 OA
ENDBRANCH   2   7
BRANCH   1  10
ATOM     10  C   LIG    1       29.012 -21.268   7.079  0.00  0.00    +0.152 C 
BRANCH  10  11
ATOM     11  C   LIG    1       28.071 -21.678   8.202  0.00  0.00    +0.187 C 
BRANCH  11  12
ATOM     12  S   LIG    1       26.437 -20.993   8.026  0.00  0.00    -0.030 S 
ATOM     13  O   LIG    1       26.093 -20.363   9.294  0.00  0.00    -0.174 OA
ATOM     14  O   LIG    1       26.436 -20.215   6.795  0.00  0.00    -0.174 OA
BRANCH  12  16
ATOM     15  C   LIG    1       26.016 -23.531   7.018  0.00  0.00    +0.028 C 
ATOM     16  C   LIG    1       25.369 -22.399   7.794  0.00  0.00    +0.162 C 
ENDBRANCH  12  16
ENDBRANCH  11  12
ENDBRANCH  10  11
ENDBRANCH   1  10
TORSDOF 5
ENDMDL
MODEL 3
REMARK VINA RESULT:      -7.1      3.247      5.226
REMARK  Name = *****
REMARK                            x       y       z     vdW  Elec       q    Type
REMARK                         _______ _______ _______ _____ _____    ______ ____
ROOT
ATOM      1  N   LIG    1       29.990 -20.399   7.545  0.00  0.00    -0.269 N 
ATOM      2  C   LIG    1       31.063 -20.648   8.374  0.00  0.00    +0.368 A 
ATOM      3  C   LIG    1       31.875 -19.544   8.304  0.00  0.00    +0.217 A 
ATOM      4  N   LIG    1       31.361 -18.641   7.419  0.00  0.00    -0.234 NA
ATOM      5  C   LIG    1       30.234 -19.159   6.965  0.00  0.00    +0.112 A 
ATOM      6  C   LIG    1       29.345 -18.447   6.006  0.00  0.00    +0.086 C 
ENDROOT
BRANCH   2   7
ATOM      7  N   LIG    1       31.275 -21.810   9.168  0.00  0.00    +0.100 N 
ATOM      8  O   LIG    1       32.076 -22.642   8.729  0.00  0.00    -0.575 OA
ATOM      9  O   LIG    1       30.658 -21.898  10.235  0.00  0.00    +0.043 OA
ENDBRANCH   2   7
BRANCH   1  10
ATOM     10  C   LIG    1       28.815 -21.232   7.308  0.00  0.00    +0.152 C 
BRANCH  10  11
ATOM     11  C   LIG    1       27.557 -20.663   7.948  0.00  0.00    +0.187 C 
BRANCH  11  12
ATOM     12  S   LIG    1       26.153 -21.750   7.812  0.00  0.00    -0.030 S 
ATOM     13  O   LIG    1       26.619 -22.981   7.187  0.00  0.00    -0.174 OA
ATOM     14  O   LIG    1       25.519 -21.787   9.124  0.00  0.00    -0.174 OA
BRANCH  12  16
ATOM     15  C   LIG    1       23.620 -20.836   7.196  0.00  0.00    +0.028 C 
ATOM     16  C   LIG    1       25.044 -20.935   6.683  0.00  0.00    +0.162 C 
ENDBRANCH  12  16
ENDBRANCH  11  12
ENDBRANCH  10  11
ENDBRANCH   1  10
TORSDOF 5
ENDMDL
MODEL 4
REMARK VINA RESULT:      -6.7      2.846      3.900
REMARK  Name = *****
REMARK                            x       y       z     vdW  Elec       q    Type
REMARK                         _______ _______ _______ _____ _____    ______ ____
ROOT
ATOM      1  N   LIG    1       27.690 -20.106   7.191  0.00  0.00    -0.269 N 
ATOM      2  C   LIG    1       26.513 -20.822   7.253  0.00  0.00    +0.368 A 
ATOM      3  C   LIG    1       25.966 -20.782   5.997  0.00  0.00    +0.217 A 
ATOM      4  N   LIG    1       26.743 -20.022   5.171  0.00  0.00    -0.234 NA
ATOM      5  C   LIG    1       27.773 -19.618   5.892  0.00  0.00    +0.112 A 
ATOM      6  C   LIG    1       28.881 -18.798   5.331  0.00  0.00    +0.086 C 
ENDROOT
BRANCH   2   7
ATOM      7  N   LIG    1       25.983 -21.493   8.391  0.00  0.00    +0.100 N 
ATOM      8  O   LIG    1       25.814 -22.712   8.286  0.00  0.00    -0.575 OA
ATOM      9  O   LIG    1       25.743 -20.818   9.398  0.00  0.00    +0.043 OA
ENDBRANCH   2   7
BRANCH   1  10
ATOM     10  C   LIG    1       28.679 -19.894   8.244  0.00  0.00    +0.152 C 
BRANCH  10  11
ATOM     11  C   LIG    1       29.861 -20.847   8.137  0.00  0.00    +0.187 C 
BRANCH  11  12
ATOM     12  S   LIG    1       31.424 -20.056   8.454  0.00  0.00    -0.030 S 
ATOM     13  O   LIG    1       32.207 -20.963   9.282  0.00  0.00    -0.174 OA
ATOM     14  O   LIG    1       31.939 -19.607   7.167  0.00  0.00    -0.174 OA
BRANCH  12  16
ATOM     15  C   LIG    1       31.919 -17.424   9.135  0.00  0.00    +0.028 C 
ATOM     16  C   LIG    1       31.026 -18.617   9.425  0.00  0.00    +0.162 C 
ENDBRANCH  12  16
ENDBRANCH  11  12
ENDBRANCH  10  11
ENDBRANCH   1  10
TORSDOF 5
ENDMDL
MODEL 5
REMARK VINA RESULT:      -6.5      5.540      7.177
REMARK  Name = *****
REMARK                            x       y       z     vdW  Elec       q    Type
REMARK                         _______ _______ _______ _____ _____    ______ ____
ROOT
ATOM      1  N   LIG    1       24.637 -23.067   6.472  0.00  0.00    -0.269 N 
ATOM      2  C   LIG    1       23.424 -22.445   6.679  0.00  0.00    +0.368 A 
ATOM      3  C   LIG    1       22.489 -23.442   6.793  0.00  0.00    +0.217 A 
ATOM      4  N   LIG    1       23.079 -24.660   6.615  0.00  0.00    -0.234 NA
ATOM      5  C   LIG    1       24.365 -24.430   6.420  0.00  0.00    +0.112 A 
ATOM      6  C   LIG    1       25.363 -25.518   6.234  0.00  0.00    +0.086 C 
ENDROOT
BRANCH   2   7
ATOM      7  N   LIG    1       23.191 -21.045   6.780  0.00  0.00    +0.100 N 
ATOM      8  O   LIG    1       22.688 -20.495   5.795  0.00  0.00    -0.575 OA
ATOM      9  O   LIG    1       23.493 -20.486   7.840  0.00  0.00    +0.043 OA
ENDBRANCH   2   7
BRANCH   1  10
ATOM     10  C   LIG    1       25.958 -22.459   6.345  0.00  0.00    +0.152 C 
BRANCH  10  11
ATOM     11  C   LIG    1       26.732 -22.461   7.655  0.00  0.00    +0.187 C 
BRANCH  11  12
ATOM     12  S   LIG    1       27.540 -20.910   7.989  0.00  0.00    -0.030 S 
ATOM     13  O   LIG    1       26.680 -20.160   8.894  0.00  0.00    -0.174 OA
ATOM     14  O   LIG    1       28.912 -21.222   8.370  0.00  0.00    -0.174 OA
BRANCH  12  16
ATOM     15  C   LIG    1       28.947 -19.511   6.066  0.00  0.00    +0.028 C 
ATOM     16  C   LIG    1       27.579 -20.062   6.424  0.00  0.00    +0.162 C 
ENDBRANCH  12  16
ENDBRANCH  11  12
ENDBRANCH  10  11
ENDBRANCH   1  10
TORSDOF 5
ENDMDL
MODEL 6
REMARK VINA RESULT:      -6.4      3.618      4.680
REMARK  Name = *****
REMARK                            x       y       z     vdW  Elec       q    Type
REMARK                         _______ _______ _______ _____ _____    ______ ____
ROOT
ATOM      1  N   LIG    1       26.167 -20.438   6.323  0.00  0.00    -0.269 N 
ATOM      2  C   LIG    1       25.556 -21.058   7.393  0.00  0.00    +0.368 A 
ATOM      3  C   LIG    1       24.339 -21.502   6.943  0.00  0.00    +0.217 A 
ATOM      4  N   LIG    1       24.158 -21.132   5.641  0.00  0.00    -0.234 NA
ATOM      5  C   LIG    1       25.254 -20.493   5.276  0.00  0.00    +0.112 A 
ATOM      6  C   LIG    1       25.465 -19.971   3.898  0.00  0.00    +0.086 C 
ENDROOT
BRANCH   2   7
ATOM      7  N   LIG    1       26.093 -21.227   8.700  0.00  0.00    +0.100 N 
ATOM      8  O   LIG    1       25.929 -20.293   9.491  0.00  0.00    -0.575 OA
ATOM      9  O   LIG    1       26.669 -22.291   8.952  0.00  0.00    +0.043 OA
ENDBRANCH   2   7
BRANCH   1  10
ATOM     10  C   LIG    1       27.500 -19.846   6.258  0.00  0.00    +0.152 C 
BRANCH  10  11
ATOM     11  C   LIG    1       28.600 -20.846   6.584  0.00  0.00    +0.187 C 
BRANCH  11  12
ATOM     12  S   LIG    1       29.625 -20.335   7.947  0.00  0.00    -0.030 S 
ATOM     13  O   LIG    1       28.895 -19.306   8.675  0.00  0.00    -0.174 OA
ATOM     14  O   LIG    1       30.060 -21.548   8.627  0.00  0.00    -0.174 OA
BRANCH  12  16
ATOM     15  C   LIG    1       31.694 -18.506   8.054  0.00  0.00    +0.028 C 
ATOM     16  C   LIG    1       31.052 -19.579   7.195  0.00  0.00    +0.162 C 
ENDBRANCH  12  16
ENDBRANCH  11  12
ENDBRANCH  10  11
ENDBRANCH   1  10
TORSDOF 5
ENDMDL
MODEL 7
REMARK VINA RESULT:      -6.4      6.420      8.104
REMARK  Name = *****
REMARK                            x       y       z     vdW  Elec       q    Type
REMARK                         _______ _______ _______ _____ _____    ______ ____
ROOT
ATOM      1  N   LIG    1       24.518 -22.392   7.313  0.00  0.00    -0.269 N 
ATOM      2  C   LIG    1       25.795 -22.012   7.671  0.00  0.00    +0.368 A 
ATOM      3  C   LIG    1       26.628 -23.028   7.279  0.00  0.00    +0.217 A 
ATOM      4  N   LIG    1       25.901 -24.047   6.735  0.00  0.00    -0.234 NA
ATOM      5  C   LIG    1       24.638 -23.662   6.760  0.00  0.00    +0.112 A 
ATOM      6  C   LIG    1       23.529 -24.486   6.205  0.00  0.00    +0.086 C 
ENDROOT
BRANCH   2   7
ATOM      7  N   LIG    1       26.177 -20.793   8.299  0.00  0.00    +0.100 N 
ATOM      8  O   LIG    1       25.900 -20.677   9.497  0.00  0.00    -0.575 OA
ATOM      9  O   LIG    1       26.763 -19.950   7.611  0.00  0.00    +0.043 OA
ENDBRANCH   2   7
BRANCH   1  10
ATOM     10  C   LIG    1       23.275 -21.640   7.455  0.00  0.00    +0.152 C 
BRANCH  10  11
ATOM     11  C   LIG    1       23.297 -20.325   6.690  0.00  0.00    +0.187 C 
BRANCH  11  12
ATOM     12  S   LIG    1       22.653 -20.470   5.036  0.00  0.00    -0.030 S 
ATOM     13  O   LIG    1       21.695 -21.567   5.040  0.00  0.00    -0.174 OA
ATOM     14  O   LIG    1       22.240 -19.135   4.624  0.00  0.00    -0.174 OA
BRANCH  12  16
ATOM     15  C   LIG    1       25.312 -20.171   4.347  0.00  0.00    +0.028 C 
ATOM     16  C   LIG    1       24.048 -20.951   4.038  0.00  0.00    +0.162 C 
ENDBRANCH  12  16
ENDBRANCH  11  12
ENDBRANCH  10  11
ENDBRANCH   1  10
TORSDOF 5
ENDMDL
MODEL 8
REMARK VINA RESULT:      -6.3      5.551      6.988
REMARK  Name = *****
REMARK                            x       y       z     vdW  Elec       q    Type
REMARK                         _______ _______ _______ _____ _____    ______ ____
ROOT
ATOM      1  N   LIG    1       24.499 -20.384   5.151  0.00  0.00    -0.269 N 
ATOM      2  C   LIG    1       23.319 -20.694   5.794  0.00  0.00    +0.368 A 
ATOM      3  C   LIG    1       22.346 -19.920   5.216  0.00  0.00    +0.217 A 
ATOM      4  N   LIG    1       22.895 -19.105   4.269  0.00  0.00    -0.234 NA
ATOM      5  C   LIG    1       24.186 -19.385   4.236  0.00  0.00    +0.112 A 
ATOM      6  C   LIG    1       25.130 -18.734   3.288  0.00  0.00    +0.086 C 
ENDROOT
BRANCH   2   7
ATOM      7  N   LIG    1       23.141 -21.649   6.834  0.00  0.00    +0.100 N 
ATOM      8  O   LIG    1       23.325 -21.251   7.988  0.00  0.00    -0.575 OA
ATOM      9  O   LIG    1       22.807 -22.795   6.512  0.00  0.00    +0.043 OA
ENDBRANCH   2   7
BRANCH   1  10
ATOM     10  C   LIG    1       25.821 -20.970   5.349  0.00  0.00    +0.152 C 
BRANCH  10  11
ATOM     11  C   LIG    1       26.584 -20.319   6.493  0.00  0.00    +0.187 C 
BRANCH  11  12
ATOM     12  S   LIG    1       27.013 -21.465   7.787  0.00  0.00    -0.030 S 
ATOM     13  O   LIG    1       26.514 -20.911   9.038  0.00  0.00    -0.174 OA
ATOM     14  O   LIG    1       26.580 -22.783   7.343  0.00  0.00    -0.174 OA
BRANCH  12  16
ATOM     15  C   LIG    1       29.417 -20.296   7.087  0.00  0.00    +0.028 C 
ATOM     16  C   LIG    1       28.793 -21.455   7.842  0.00  0.00    +0.162 C 
ENDBRANCH  12  16
ENDBRANCH  11  12
ENDBRANCH  10  11
ENDBRANCH   1  10
TORSDOF 5
ENDMDL
MODEL 9
REMARK VINA RESULT:      -6.3      5.781      8.215
REMARK  Name = *****
REMARK                            x       y       z     vdW  Elec       q    Type
REMARK                         _______ _______ _______ _____ _____    ______ ____
ROOT
ATOM      1  N   LIG    1       25.678 -21.519   6.398  0.00  0.00    -0.269 N 
ATOM      2  C   LIG    1       26.923 -20.946   6.549  0.00  0.00    +0.368 A 
ATOM      3  C   LIG    1       27.046 -20.011   5.553  0.00  0.00    +0.217 A 
ATOM      4  N   LIG    1       25.934 -20.022   4.761  0.00  0.00    -0.234 NA
ATOM      5  C   LIG    1       25.119 -20.928   5.270  0.00  0.00    +0.112 A 
ATOM      6  C   LIG    1       23.767 -21.206   4.711  0.00  0.00    +0.086 C 
ENDROOT
BRANCH   2   7
ATOM      7  N   LIG    1       27.883 -21.247   7.555  0.00  0.00    +0.100 N 
ATOM      8  O   LIG    1       27.479 -21.250   8.722  0.00  0.00    -0.575 OA
ATOM      9  O   LIG    1       29.039 -21.494   7.193  0.00  0.00    +0.043 OA
ENDBRANCH   2   7
BRANCH   1  10
ATOM     10  C   LIG    1       25.036 -22.527   7.235  0.00  0.00    +0.152 C 
BRANCH  10  11
ATOM     11  C   LIG    1       25.679 -23.900   7.095  0.00  0.00    +0.187 C 
BRANCH  11  12
ATOM     12  S   LIG    1       24.727 -25.016   6.086  0.00  0.00    -0.030 S 
ATOM     13  O   LIG    1       23.342 -24.922   6.527  0.00  0.00    -0.174 OA
ATOM     14  O   LIG    1       25.077 -24.735   4.700  0.00  0.00    -0.174 OA
BRANCH  12  16
ATOM     15  C   LIG    1       24.445 -27.763   5.991  0.00  0.00    +0.028 C 
ATOM     16  C   LIG    1       25.333 -26.640   6.494  0.00  0.00    +0.162 C 
ENDBRANCH  12  16
ENDBRANCH  11  12
ENDBRANCH  10  11
ENDBRANCH   1  10
TORSDOF 5
ENDMDL
