MODEL 1
REMARK VINA RESULT:      -9.2      0.000      0.000
REMARK  Name = *****
REMARK                            x       y       z     vdW  Elec       q    Type
REMARK                         _______ _______ _______ _____ _____    ______ ____
ROOT
ATOM      1  C   LIG    1       30.705 -19.115   8.173  0.00  0.00    +0.037 A 
ATOM      2  C   LIG    1       30.389 -20.414   8.590  0.00  0.00    +0.015 A 
ATOM      3  C   LIG    1       29.296 -21.080   8.030  0.00  0.00    +0.030 A 
ATOM      4  C   LIG    1       28.475 -20.442   7.094  0.00  0.00    +0.086 A 
ATOM      5  C   LIG    1       28.816 -19.147   6.670  0.00  0.00    +0.030 A 
ATOM      6  C   LIG    1       29.918 -18.483   7.207  0.00  0.00    +0.015 A 
ENDROOT
BRANCH   1   9
ATOM      7  N   LIG    1       31.690 -17.009   8.921  0.00  0.00    -0.311 N 
ATOM      8  H   LIG    1       31.002 -16.552   8.336  0.00  0.00    +0.149 HD
ATOM      9  C   LIG    1       31.784 -18.381   8.874  0.00  0.00    +0.244 C 
ATOM     10  O   LIG    1       32.636 -19.023   9.481  0.00  0.00    -0.270 OA
BRANCH   7  11
ATOM     11  C   LIG    1       32.601 -16.128   9.642  0.00  0.00    +0.115 C 
BRANCH  11  12
ATOM     12  C   LIG    1       32.713 -16.335  11.146  0.00  0.00    +0.139 C 
BRANCH  12  14
ATOM     13  O   LIG    1       30.323 -16.496  11.376  0.00  0.00    -0.251 OA
ATOM     14  C   LIG    1       31.391 -16.100  11.824  0.00  0.00    +0.306 C 
BRANCH  14  15
ATOM     15  O   LIG    1       31.483 -15.438  12.998  0.00  0.00    -0.481 OA
ATOM     16  H   LIG    1       31.866 -14.534  12.888  0.00  0.00    +0.295 HD
ENDBRANCH  14  15
ENDBRANCH  12  14
ENDBRANCH  11  12
ENDBRANCH   7  11
ENDBRANCH   1   9
BRANCH   4  17
ATOM     17  N   LIG    1       27.308 -21.103   6.662  0.00  0.00    -0.149 NA
ATOM     18  N   LIG    1       26.333 -20.764   7.369  0.00  0.00    -0.149 NA
BRANCH  18  19
ATOM     19  C   LIG    1       25.208 -21.580   7.181  0.00  0.00    +0.087 A 
ATOM     20  C   LIG    1       25.407 -22.899   6.771  0.00  0.00    +0.048 A 
ATOM     21  C   LIG    1       24.320 -23.743   6.514  0.00  0.00    +0.102 A 
ATOM     22  C   LIG    1       23.017 -23.248   6.661  0.00  0.00    +0.131 A 
ATOM     23  C   LIG    1       22.802 -21.920   7.026  0.00  0.00    +0.048 A 
ATOM     24  C   LIG    1       23.896 -21.094   7.284  0.00  0.00    +0.033 A 
BRANCH  21  25
ATOM     25  C   LIG    1       24.641 -25.134   6.080  0.00  0.00    +0.340 C 
ATOM     26  O   LIG    1       23.882 -26.060   6.228  0.00  0.00    -0.245 OA
BRANCH  25  27
ATOM     27  O   LIG    1       25.819 -25.227   5.423  0.00  0.00    -0.477 OA
ATOM     28  H   LIG    1       26.596 -25.126   6.018  0.00  0.00    +0.295 HD
ENDBRANCH  25  27
ENDBRANCH  21  25
BRANCH  22  29
ATOM     29  O   LIG    1       21.946 -24.078   6.471  0.00  0.00    -0.506 OA
ATOM     30  H   LIG    1       21.531 -24.258   7.336  0.00  0.00    +0.292 HD
ENDBRANCH  22  29
ENDBRANCH  18  19
ENDBRANCH   4  17
TORSDOF 10
ENDMDL
MODEL 2
REMARK VINA RESULT:      -8.8      2.025     10.140
REMARK  Name = *****
REMARK                            x       y       z     vdW  Elec       q    Type
REMARK                         _______ _______ _______ _____ _____    ______ ____
ROOT
ATOM      1  C   LIG    1       24.808 -22.986   6.959  0.00  0.00    +0.037 A 
ATOM      2  C   LIG    1       25.896 -23.267   7.795  0.00  0.00    +0.015 A 
ATOM      3  C   LIG    1       26.772 -22.244   8.166  0.00  0.00    +0.030 A 
ATOM      4  C   LIG    1       26.609 -20.948   7.664  0.00  0.00    +0.086 A 
ATOM      5  C   LIG    1       25.503 -20.678   6.842  0.00  0.00    +0.030 A 
ATOM      6  C   LIG    1       24.610 -21.688   6.485  0.00  0.00    +0.015 A 
ENDROOT
BRANCH   1   9
ATOM      7  N   LIG    1       24.618 -25.171   5.883  0.00  0.00    -0.311 N 
ATOM      8  H   LIG    1       25.597 -25.069   5.644  0.00  0.00    +0.149 HD
ATOM      9  C   LIG    1       23.972 -24.109   6.473  0.00  0.00    +0.244 C 
ATOM     10  O   LIG    1       22.771 -24.103   6.726  0.00  0.00    -0.270 OA
BRANCH   7  11
ATOM     11  C   LIG    1       23.976 -26.400   5.431  0.00  0.00    +0.115 C 
BRANCH  11  12
ATOM     12  C   LIG    1       24.833 -27.657   5.412  0.00  0.00    +0.139 C 
BRANCH  12  14
ATOM     13  O   LIG    1       24.383 -29.061   7.314  0.00  0.00    -0.251 OA
ATOM     14  C   LIG    1       24.156 -28.784   6.145  0.00  0.00    +0.306 C 
BRANCH  14  15
ATOM     15  O   LIG    1       23.240 -29.449   5.407  0.00  0.00    -0.481 OA
ATOM     16  H   LIG    1       22.510 -28.860   5.097  0.00  0.00    +0.295 HD
ENDBRANCH  14  15
ENDBRANCH  12  14
ENDBRANCH  11  12
ENDBRANCH   7  11
ENDBRANCH   1   9
BRANCH   4  17
ATOM     17  N   LIG    1       27.596 -19.985   7.956  0.00  0.00    -0.149 NA
ATOM     18  N   LIG    1       28.654 -20.252   7.342  0.00  0.00    -0.149 NA
BRANCH  18  19
ATOM     19  C   LIG    1       29.752 -19.506   7.793  0.00  0.00    +0.087 A 
ATOM     20  C   LIG    1       29.666 -18.887   9.042  0.00  0.00    +0.048 A 
ATOM     21  C   LIG    1       30.711 -18.085   9.519  0.00  0.00    +0.102 A 
ATOM     22  C   LIG    1       31.849 -17.895   8.723  0.00  0.00    +0.131 A 
ATOM     23  C   LIG    1       31.930 -18.469   7.456  0.00  0.00    +0.048 A 
ATOM     24  C   LIG    1       30.883 -19.270   6.997  0.00  0.00    +0.033 A 
BRANCH  21  25
ATOM     25  C   LIG    1       30.519 -17.469  10.864  0.00  0.00    +0.340 C 
ATOM     26  O   LIG    1       30.093 -16.352  11.020  0.00  0.00    -0.245 OA
BRANCH  25  27
ATOM     27  O   LIG    1       30.778 -18.322  11.881  0.00  0.00    -0.477 OA
ATOM     28  H   LIG    1       29.994 -18.484  12.452  0.00  0.00    +0.295 HD
ENDBRANCH  25  27
ENDBRANCH  21  25
BRANCH  22  29
ATOM     29  O   LIG    1       32.901 -17.162   9.202  0.00  0.00    -0.506 OA
ATOM     30  H   LIG    1       32.600 -16.248   9.360  0.00  0.00    +0.292 HD
ENDBRANCH  22  29
ENDBRANCH  18  19
ENDBRANCH   4  17
TORSDOF 10
ENDMDL
MODEL 3
REMARK VINA RESULT:      -8.7      2.295      3.405
REMARK  Name = *****
REMARK                            x       y       z     vdW  Elec       q    Type
REMARK                         _______ _______ _______ _____ _____    ______ ____
ROOT
ATOM      1  C   LIG    1       28.686 -19.792   7.096  0.00  0.00    +0.037 A 
ATOM      2  C   LIG    1       27.796 -19.751   6.016  0.00  0.00    +0.015 A 
ATOM      3  C   LIG    1       26.829 -20.749   5.871  0.00  0.00    +0.030 A 
ATOM      4  C   LIG    1       26.775 -21.824   6.764  0.00  0.00    +0.086 A 
ATOM      5  C   LIG    1       27.662 -21.842   7.853  0.00  0.00    +0.030 A 
ATOM      6  C   LIG    1       28.615 -20.837   8.019  0.00  0.00    +0.015 A 
ENDROOT
BRANCH   1   9
ATOM      7  N   LIG    1       30.588 -18.809   8.273  0.00  0.00    -0.311 N 
ATOM      8  H   LIG    1       30.297 -19.358   9.072  0.00  0.00    +0.149 HD
ATOM      9  C   LIG    1       29.784 -18.799   7.155  0.00  0.00    +0.244 C 
ATOM     10  O   LIG    1       30.006 -18.104   6.168  0.00  0.00    -0.270 OA
BRANCH   7  11
ATOM     11  C   LIG    1       31.768 -17.975   8.467  0.00  0.00    +0.115 C 
BRANCH  11  12
ATOM     12  C   LIG    1       31.648 -16.836   9.469  0.00  0.00    +0.139 C 
BRANCH  12  14
ATOM     13  O   LIG    1       30.772 -18.435  11.038  0.00  0.00    -0.251 OA
ATOM     14  C   LIG    1       30.884 -17.268  10.691  0.00  0.00    +0.306 C 
BRANCH  14  15
ATOM     15  O   LIG    1       30.356 -16.247  11.400  0.00  0.00    -0.481 OA
ATOM     16  H   LIG    1       29.381 -16.346  11.526  0.00  0.00    +0.295 HD
ENDBRANCH  14  15
ENDBRANCH  12  14
ENDBRANCH  11  12
ENDBRANCH   7  11
ENDBRANCH   1   9
BRANCH   4  17
ATOM     17  N   LIG    1       25.875 -22.875   6.497  0.00  0.00    -0.149 NA
ATOM     18  N   LIG    1       26.282 -23.937   7.019  0.00  0.00    -0.149 NA
BRANCH  18  19
ATOM     19  C   LIG    1       25.592 -25.071   6.569  0.00  0.00    +0.087 A 
ATOM     20  C   LIG    1       25.835 -26.290   7.204  0.00  0.00    +0.048 A 
ATOM     21  C   LIG    1       25.216 -27.466   6.761  0.00  0.00    +0.102 A 
ATOM     22  C   LIG    1       24.352 -27.414   5.659  0.00  0.00    +0.131 A 
ATOM     23  C   LIG    1       24.135 -26.213   4.986  0.00  0.00    +0.048 A 
ATOM     24  C   LIG    1       24.755 -25.049   5.443  0.00  0.00    +0.033 A 
BRANCH  21  25
ATOM     25  C   LIG    1       25.543 -28.715   7.508  0.00  0.00    +0.340 C 
ATOM     26  O   LIG    1       25.129 -29.801   7.185  0.00  0.00    -0.245 OA
BRANCH  25  27
ATOM     27  O   LIG    1       26.421 -28.517   8.517  0.00  0.00    -0.477 OA
ATOM     28  H   LIG    1       26.583 -29.330   9.047  0.00  0.00    +0.295 HD
ENDBRANCH  25  27
ENDBRANCH  21  25
BRANCH  22  29
ATOM     29  O   LIG    1       23.695 -28.544   5.253  0.00  0.00    -0.506 OA
ATOM     30  H   LIG    1       24.272 -29.039   4.642  0.00  0.00    +0.292 HD
ENDBRANCH  22  29
ENDBRANCH  18  19
ENDBRANCH   4  17
TORSDOF 10
ENDMDL
MODEL 4
REMARK VINA RESULT:      -8.3      1.639      2.475
REMARK  Name = *****
REMARK                            x       y       z     vdW  Elec       q    Type
REMARK                         _______ _______ _______ _____ _____    ______ ____
ROOT
ATOM      1  C   LIG    1       31.121 -18.429   8.589  0.00  0.00    +0.037 A 
ATOM      2  C   LIG    1       31.117 -19.751   9.050  0.00  0.00    +0.015 A 
ATOM      3  C   LIG    1       30.227 -20.678   8.501  0.00  0.00    +0.030 A 
ATOM      4  C   LIG    1       29.297 -20.286   7.532  0.00  0.00    +0.086 A 
ATOM      5  C   LIG    1       29.327 -18.961   7.065  0.00  0.00    +0.030 A 
ATOM      6  C   LIG    1       30.227 -18.035   7.591  0.00  0.00    +0.015 A 
ENDROOT
BRANCH   1   9
ATOM      7  N   LIG    1       32.125 -17.559  10.639  0.00  0.00    -0.311 N 
ATOM      8  H   LIG    1       31.514 -18.197  11.134  0.00  0.00    +0.149 HD
ATOM      9  C   LIG    1       31.979 -17.436   9.276  0.00  0.00    +0.244 C 
ATOM     10  O   LIG    1       32.614 -16.633   8.598  0.00  0.00    -0.270 OA
BRANCH   7  11
ATOM     11  C   LIG    1       32.997 -16.738  11.470  0.00  0.00    +0.115 C 
BRANCH  11  12
ATOM     12  C   LIG    1       32.322 -15.783  12.443  0.00  0.00    +0.139 C 
BRANCH  12  14
ATOM     13  O   LIG    1       32.473 -17.350  14.262  0.00  0.00    -0.251 OA
ATOM     14  C   LIG    1       32.571 -16.196  13.868  0.00  0.00    +0.306 C 
BRANCH  14  15
ATOM     15  O   LIG    1       32.949 -15.184  14.678  0.00  0.00    -0.481 OA
ATOM     16  H   LIG    1       33.929 -15.059  14.686  0.00  0.00    +0.295 HD
ENDBRANCH  14  15
ENDBRANCH  12  14
ENDBRANCH  11  12
ENDBRANCH   7  11
ENDBRANCH   1   9
BRANCH   4  17
ATOM     17  N   LIG    1       28.331 -21.222   7.110  0.00  0.00    -0.149 NA
ATOM     18  N   LIG    1       27.248 -20.644   6.866  0.00  0.00    -0.149 NA
BRANCH  18  19
ATOM     19  C   LIG    1       26.175 -21.532   6.711  0.00  0.00    +0.087 A 
ATOM     20  C   LIG    1       24.963 -21.030   6.232  0.00  0.00    +0.048 A 
ATOM     21  C   LIG    1       23.841 -21.859   6.109  0.00  0.00    +0.102 A 
ATOM     22  C   LIG    1       23.938 -23.207   6.484  0.00  0.00    +0.131 A 
ATOM     23  C   LIG    1       25.128 -23.711   7.005  0.00  0.00    +0.048 A 
ATOM     24  C   LIG    1       26.239 -22.873   7.117  0.00  0.00    +0.033 A 
BRANCH  21  25
ATOM     25  C   LIG    1       22.595 -21.225   5.590  0.00  0.00    +0.340 C 
ATOM     26  O   LIG    1       21.648 -21.861   5.199  0.00  0.00    -0.245 OA
BRANCH  25  27
ATOM     27  O   LIG    1       22.602 -19.877   5.692  0.00  0.00    -0.477 OA
ATOM     28  H   LIG    1       22.829 -19.564   6.597  0.00  0.00    +0.295 HD
ENDBRANCH  25  27
ENDBRANCH  21  25
BRANCH  22  29
ATOM     29  O   LIG    1       22.868 -24.041   6.313  0.00  0.00    -0.506 OA
ATOM     30  H   LIG    1       22.165 -23.781   6.938  0.00  0.00    +0.292 HD
ENDBRANCH  22  29
ENDBRANCH  18  19
ENDBRANCH   4  17
TORSDOF 10
ENDMDL
MODEL 5
REMARK VINA RESULT:      -8.2      6.212      9.998
REMARK  Name = *****
REMARK                            x       y       z     vdW  Elec       q    Type
REMARK                         _______ _______ _______ _____ _____    ______ ____
ROOT
ATOM      1  C   LIG    1       25.041 -28.100   6.666  0.00  0.00    +0.037 A 
ATOM      2  C   LIG    1       24.227 -27.682   5.605  0.00  0.00    +0.015 A 
ATOM      3  C   LIG    1       24.287 -26.359   5.161  0.00  0.00    +0.030 A 
ATOM      4  C   LIG    1       25.112 -25.428   5.800  0.00  0.00    +0.086 A 
ATOM      5  C   LIG    1       25.937 -25.867   6.849  0.00  0.00    +0.030 A 
ATOM      6  C   LIG    1       25.901 -27.191   7.285  0.00  0.00    +0.015 A 
ENDROOT
BRANCH   1   9
ATOM      7  N   LIG    1       25.878 -30.373   6.983  0.00  0.00    -0.311 N 
ATOM      8  H   LIG    1       26.605 -30.130   6.323  0.00  0.00    +0.149 HD
ATOM      9  C   LIG    1       24.864 -29.468   7.205  0.00  0.00    +0.244 C 
ATOM     10  O   LIG    1       23.896 -29.700   7.923  0.00  0.00    -0.270 OA
BRANCH   7  11
ATOM     11  C   LIG    1       25.925 -31.730   7.514  0.00  0.00    +0.115 C 
BRANCH  11  12
ATOM     12  C   LIG    1       26.963 -32.013   8.590  0.00  0.00    +0.139 C 
BRANCH  12  14
ATOM     13  O   LIG    1       26.351 -31.220  10.778  0.00  0.00    -0.251 OA
ATOM     14  C   LIG    1       26.882 -30.999   9.699  0.00  0.00    +0.306 C 
BRANCH  14  15
ATOM     15  O   LIG    1       27.482 -29.823   9.415  0.00  0.00    -0.481 OA
ATOM     16  H   LIG    1       28.445 -29.832   9.636  0.00  0.00    +0.295 HD
ENDBRANCH  14  15
ENDBRANCH  12  14
ENDBRANCH  11  12
ENDBRANCH   7  11
ENDBRANCH   1   9
BRANCH   4  17
ATOM     17  N   LIG    1       25.035 -24.077   5.405  0.00  0.00    -0.149 NA
ATOM     18  N   LIG    1       24.195 -23.470   6.106  0.00  0.00    -0.149 NA
BRANCH  18  19
ATOM     19  C   LIG    1       23.865 -22.207   5.595  0.00  0.00    +0.087 A 
ATOM     20  C   LIG    1       24.891 -21.408   5.085  0.00  0.00    +0.048 A 
ATOM     21  C   LIG    1       24.628 -20.117   4.612  0.00  0.00    +0.102 A 
ATOM     22  C   LIG    1       23.319 -19.619   4.665  0.00  0.00    +0.131 A 
ATOM     23  C   LIG    1       22.292 -20.387   5.212  0.00  0.00    +0.048 A 
ATOM     24  C   LIG    1       22.569 -21.674   5.674  0.00  0.00    +0.033 A 
BRANCH  21  25
ATOM     25  C   LIG    1       25.794 -19.347   4.090  0.00  0.00    +0.340 C 
ATOM     26  O   LIG    1       25.677 -18.378   3.382  0.00  0.00    -0.245 OA
BRANCH  25  27
ATOM     27  O   LIG    1       26.980 -19.787   4.569  0.00  0.00    -0.477 OA
ATOM     28  H   LIG    1       26.924 -20.690   4.955  0.00  0.00    +0.295 HD
ENDBRANCH  25  27
ENDBRANCH  21  25
BRANCH  22  29
ATOM     29  O   LIG    1       23.038 -18.382   4.152  0.00  0.00    -0.506 OA
ATOM     30  H   LIG    1       22.320 -18.470   3.498  0.00  0.00    +0.292 HD
ENDBRANCH  22  29
ENDBRANCH  18  19
ENDBRANCH   4  17
TORSDOF 10
ENDMDL
MODEL 6
REMARK VINA RESULT:      -8.1      6.402      8.672
REMARK  Name = *****
REMARK                            x       y       z     vdW  Elec       q    Type
REMARK                         _______ _______ _______ _____ _____    ______ ____
ROOT
ATOM      1  C   LIG    1       24.135 -22.769   6.799  0.00  0.00    +0.037 A 
ATOM      2  C   LIG    1       23.238 -23.803   6.502  0.00  0.00    +0.015 A 
ATOM      3  C   LIG    1       23.695 -25.122   6.431  0.00  0.00    +0.030 A 
ATOM      4  C   LIG    1       25.052 -25.417   6.598  0.00  0.00    +0.086 A 
ATOM      5  C   LIG    1       25.935 -24.372   6.915  0.00  0.00    +0.030 A 
ATOM      6  C   LIG    1       25.485 -23.056   7.011  0.00  0.00    +0.015 A 
ENDROOT
BRANCH   1   9
ATOM      7  N   LIG    1       23.161 -20.920   5.535  0.00  0.00    -0.311 N 
ATOM      8  H   LIG    1       23.306 -21.490   4.711  0.00  0.00    +0.149 HD
ATOM      9  C   LIG    1       23.655 -21.369   6.738  0.00  0.00    +0.244 C 
ATOM     10  O   LIG    1       23.602 -20.716   7.777  0.00  0.00    -0.270 OA
BRANCH   7  11
ATOM     11  C   LIG    1       22.561 -19.610   5.307  0.00  0.00    +0.115 C 
BRANCH  11  12
ATOM     12  C   LIG    1       23.121 -18.788   4.156  0.00  0.00    +0.139 C 
BRANCH  12  14
ATOM     13  O   LIG    1       24.235 -20.563   2.974  0.00  0.00    -0.251 OA
ATOM     14  C   LIG    1       24.303 -19.474   3.526  0.00  0.00    +0.306 C 
BRANCH  14  15
ATOM     15  O   LIG    1       25.450 -18.764   3.588  0.00  0.00    -0.481 OA
ATOM     16  H   LIG    1       26.161 -19.153   3.022  0.00  0.00    +0.295 HD
ENDBRANCH  14  15
ENDBRANCH  12  14
ENDBRANCH  11  12
ENDBRANCH   7  11
ENDBRANCH   1   9
BRANCH   4  17
ATOM     17  N   LIG    1       25.484 -26.741   6.381  0.00  0.00    -0.149 NA
ATOM     18  N   LIG    1       24.523 -27.533   6.500  0.00  0.00    -0.149 NA
BRANCH  18  19
ATOM     19  C   LIG    1       24.924 -28.875   6.572  0.00  0.00    +0.087 A 
ATOM     20  C   LIG    1       25.166 -29.428   7.831  0.00  0.00    +0.048 A 
ATOM     21  C   LIG    1       25.621 -30.746   7.960  0.00  0.00    +0.102 A 
ATOM     22  C   LIG    1       25.846 -31.512   6.808  0.00  0.00    +0.131 A 
ATOM     23  C   LIG    1       25.651 -30.959   5.543  0.00  0.00    +0.048 A 
ATOM     24  C   LIG    1       25.192 -29.646   5.431  0.00  0.00    +0.033 A 
BRANCH  21  25
ATOM     25  C   LIG    1       25.851 -31.240   9.349  0.00  0.00    +0.340 C 
ATOM     26  O   LIG    1       24.966 -31.351  10.161  0.00  0.00    -0.245 OA
BRANCH  25  27
ATOM     27  O   LIG    1       27.124 -31.638   9.568  0.00  0.00    -0.477 OA
ATOM     28  H   LIG    1       27.781 -30.926   9.397  0.00  0.00    +0.295 HD
ENDBRANCH  25  27
ENDBRANCH  21  25
BRANCH  22  29
ATOM     29  O   LIG    1       26.233 -32.819   6.921  0.00  0.00    -0.506 OA
ATOM     30  H   LIG    1       25.794 -33.338   6.222  0.00  0.00    +0.292 HD
ENDBRANCH  22  29
ENDBRANCH  18  19
ENDBRANCH   4  17
TORSDOF 10
ENDMDL
MODEL 7
REMARK VINA RESULT:      -8.0      6.217     10.864
REMARK  Name = *****
REMARK                            x       y       z     vdW  Elec       q    Type
REMARK                         _______ _______ _______ _____ _____    ______ ____
ROOT
ATOM      1  C   LIG    1       25.117 -28.087   6.656  0.00  0.00    +0.037 A 
ATOM      2  C   LIG    1       24.283 -27.653   5.618  0.00  0.00    +0.015 A 
ATOM      3  C   LIG    1       24.336 -26.324   5.192  0.00  0.00    +0.030 A 
ATOM      4  C   LIG    1       25.173 -25.402   5.830  0.00  0.00    +0.086 A 
ATOM      5  C   LIG    1       26.017 -25.857   6.857  0.00  0.00    +0.030 A 
ATOM      6  C   LIG    1       25.988 -27.187   7.273  0.00  0.00    +0.015 A 
ENDROOT
BRANCH   1   9
ATOM      7  N   LIG    1       25.787 -30.436   6.681  0.00  0.00    -0.311 N 
ATOM      8  H   LIG    1       26.349 -30.219   5.867  0.00  0.00    +0.149 HD
ATOM      9  C   LIG    1       24.950 -29.463   7.178  0.00  0.00    +0.244 C 
ATOM     10  O   LIG    1       24.171 -29.652   8.108  0.00  0.00    -0.270 OA
BRANCH   7  11
ATOM     11  C   LIG    1       25.835 -31.819   7.139  0.00  0.00    +0.115 C 
BRANCH  11  12
ATOM     12  C   LIG    1       25.167 -32.861   6.253  0.00  0.00    +0.139 C 
BRANCH  12  14
ATOM     13  O   LIG    1       22.986 -33.486   7.054  0.00  0.00    -0.251 OA
ATOM     14  C   LIG    1       23.668 -32.764   6.341  0.00  0.00    +0.306 C 
BRANCH  14  15
ATOM     15  O   LIG    1       23.134 -31.779   5.586  0.00  0.00    -0.481 OA
ATOM     16  H   LIG    1       23.754 -31.018   5.472  0.00  0.00    +0.295 HD
ENDBRANCH  14  15
ENDBRANCH  12  14
ENDBRANCH  11  12
ENDBRANCH   7  11
ENDBRANCH   1   9
BRANCH   4  17
ATOM     17  N   LIG    1       25.089 -24.046   5.456  0.00  0.00    -0.149 NA
ATOM     18  N   LIG    1       24.166 -23.481   6.085  0.00  0.00    -0.149 NA
BRANCH  18  19
ATOM     19  C   LIG    1       23.844 -22.218   5.571  0.00  0.00    +0.087 A 
ATOM     20  C   LIG    1       24.877 -21.422   5.072  0.00  0.00    +0.048 A 
ATOM     21  C   LIG    1       24.622 -20.130   4.596  0.00  0.00    +0.102 A 
ATOM     22  C   LIG    1       23.314 -19.629   4.635  0.00  0.00    +0.131 A 
ATOM     23  C   LIG    1       22.280 -20.394   5.171  0.00  0.00    +0.048 A 
ATOM     24  C   LIG    1       22.549 -21.682   5.636  0.00  0.00    +0.033 A 
BRANCH  21  25
ATOM     25  C   LIG    1       25.796 -19.362   4.085  0.00  0.00    +0.340 C 
ATOM     26  O   LIG    1       25.688 -18.390   3.380  0.00  0.00    -0.245 OA
BRANCH  25  27
ATOM     27  O   LIG    1       26.975 -19.810   4.571  0.00  0.00    -0.477 OA
ATOM     28  H   LIG    1       27.247 -20.671   4.181  0.00  0.00    +0.295 HD
ENDBRANCH  25  27
ENDBRANCH  21  25
BRANCH  22  29
ATOM     29  O   LIG    1       23.041 -18.392   4.119  0.00  0.00    -0.506 OA
ATOM     30  H   LIG    1       23.337 -17.714   4.756  0.00  0.00    +0.292 HD
ENDBRANCH  22  29
ENDBRANCH  18  19
ENDBRANCH   4  17
TORSDOF 10
ENDMDL
MODEL 8
REMARK VINA RESULT:      -7.9      6.478      8.776
REMARK  Name = *****
REMARK                            x       y       z     vdW  Elec       q    Type
REMARK                         _______ _______ _______ _____ _____    ______ ____
ROOT
ATOM      1  C   LIG    1       24.124 -22.940   6.579  0.00  0.00    +0.037 A 
ATOM      2  C   LIG    1       25.490 -23.160   6.795  0.00  0.00    +0.015 A 
ATOM      3  C   LIG    1       25.994 -24.462   6.796  0.00  0.00    +0.030 A 
ATOM      4  C   LIG    1       25.139 -25.559   6.640  0.00  0.00    +0.086 A 
ATOM      5  C   LIG    1       23.775 -25.322   6.405  0.00  0.00    +0.030 A 
ATOM      6  C   LIG    1       23.266 -24.024   6.379  0.00  0.00    +0.015 A 
ENDROOT
BRANCH   1   9
ATOM      7  N   LIG    1       23.196 -20.922   5.562  0.00  0.00    -0.311 N 
ATOM      8  H   LIG    1       23.445 -21.332   4.671  0.00  0.00    +0.149 HD
ATOM      9  C   LIG    1       23.591 -21.564   6.713  0.00  0.00    +0.244 C 
ATOM     10  O   LIG    1       23.410 -21.108   7.839  0.00  0.00    -0.270 OA
BRANCH   7  11
ATOM     11  C   LIG    1       22.565 -19.609   5.506  0.00  0.00    +0.115 C 
BRANCH  11  12
ATOM     12  C   LIG    1       22.746 -18.812   4.222  0.00  0.00    +0.139 C 
BRANCH  12  14
ATOM     13  O   LIG    1       24.272 -20.265   3.060  0.00  0.00    -0.251 OA
ATOM     14  C   LIG    1       24.042 -19.166   3.544  0.00  0.00    +0.306 C 
BRANCH  14  15
ATOM     15  O   LIG    1       24.927 -18.147   3.482  0.00  0.00    -0.481 OA
ATOM     16  H   LIG    1       24.553 -17.305   3.838  0.00  0.00    +0.295 HD
ENDBRANCH  14  15
ENDBRANCH  12  14
ENDBRANCH  11  12
ENDBRANCH   7  11
ENDBRANCH   1   9
BRANCH   4  17
ATOM     17  N   LIG    1       25.675 -26.855   6.787  0.00  0.00    -0.149 NA
ATOM     18  N   LIG    1       24.767 -27.710   6.686  0.00  0.00    -0.149 NA
BRANCH  18  19
ATOM     19  C   LIG    1       25.171 -28.990   7.092  0.00  0.00    +0.087 A 
ATOM     20  C   LIG    1       25.807 -29.122   8.328  0.00  0.00    +0.048 A 
ATOM     21  C   LIG    1       26.282 -30.367   8.762  0.00  0.00    +0.102 A 
ATOM     22  C   LIG    1       26.124 -31.487   7.935  0.00  0.00    +0.131 A 
ATOM     23  C   LIG    1       25.532 -31.362   6.679  0.00  0.00    +0.048 A 
ATOM     24  C   LIG    1       25.060 -30.116   6.264  0.00  0.00    +0.033 A 
BRANCH  21  25
ATOM     25  C   LIG    1       26.946 -30.400  10.097  0.00  0.00    +0.340 C 
ATOM     26  O   LIG    1       27.846 -29.657  10.401  0.00  0.00    -0.245 OA
BRANCH  25  27
ATOM     27  O   LIG    1       26.375 -31.276  10.953  0.00  0.00    -0.477 OA
ATOM     28  H   LIG    1       25.831 -30.835  11.644  0.00  0.00    +0.295 HD
ENDBRANCH  25  27
ENDBRANCH  21  25
BRANCH  22  29
ATOM     29  O   LIG    1       26.530 -32.719   8.371  0.00  0.00    -0.506 OA
ATOM     30  H   LIG    1       26.551 -33.330   7.610  0.00  0.00    +0.292 HD
ENDBRANCH  22  29
ENDBRANCH  18  19
ENDBRANCH   4  17
TORSDOF 10
ENDMDL
MODEL 9
REMARK VINA RESULT:      -7.8      6.459      8.917
REMARK  Name = *****
REMARK                            x       y       z     vdW  Elec       q    Type
REMARK                         _______ _______ _______ _____ _____    ______ ____
ROOT
ATOM      1  C   LIG    1       24.361 -23.320   6.622  0.00  0.00    +0.037 A 
ATOM      2  C   LIG    1       25.693 -23.669   6.880  0.00  0.00    +0.015 A 
ATOM      3  C   LIG    1       26.091 -25.006   6.799  0.00  0.00    +0.030 A 
ATOM      4  C   LIG    1       25.160 -26.011   6.519  0.00  0.00    +0.086 A 
ATOM      5  C   LIG    1       23.832 -25.644   6.244  0.00  0.00    +0.030 A 
ATOM      6  C   LIG    1       23.431 -24.310   6.299  0.00  0.00    +0.015 A 
ENDROOT
BRANCH   1   9
ATOM      7  N   LIG    1       23.334 -21.266   5.790  0.00  0.00    -0.311 N 
ATOM      8  H   LIG    1       23.368 -21.695   4.874  0.00  0.00    +0.149 HD
ATOM      9  C   LIG    1       23.935 -21.919   6.842  0.00  0.00    +0.244 C 
ATOM     10  O   LIG    1       24.019 -21.446   7.972  0.00  0.00    -0.270 OA
BRANCH   7  11
ATOM     11  C   LIG    1       22.767 -19.923   5.846  0.00  0.00    +0.115 C 
BRANCH  11  12
ATOM     12  C   LIG    1       22.677 -19.159   4.533  0.00  0.00    +0.139 C 
BRANCH  12  14
ATOM     13  O   LIG    1       24.240 -20.427   3.214  0.00  0.00    -0.251 OA
ATOM     14  C   LIG    1       23.919 -19.354   3.708  0.00  0.00    +0.306 C 
BRANCH  14  15
ATOM     15  O   LIG    1       24.642 -18.228   3.524  0.00  0.00    -0.481 OA
ATOM     16  H   LIG    1       24.782 -17.732   4.368  0.00  0.00    +0.295 HD
ENDBRANCH  14  15
ENDBRANCH  12  14
ENDBRANCH  11  12
ENDBRANCH   7  11
ENDBRANCH   1   9
BRANCH   4  17
ATOM     17  N   LIG    1       25.581 -27.355   6.585  0.00  0.00    -0.149 NA
ATOM     18  N   LIG    1       24.720 -28.103   6.071  0.00  0.00    -0.149 NA
BRANCH  18  19
ATOM     19  C   LIG    1       24.938 -29.461   6.346  0.00  0.00    +0.087 A 
ATOM     20  C   LIG    1       25.388 -30.283   5.310  0.00  0.00    +0.048 A 
ATOM     21  C   LIG    1       25.571 -31.657   5.512  0.00  0.00    +0.102 A 
ATOM     22  C   LIG    1       25.286 -32.210   6.768  0.00  0.00    +0.131 A 
ATOM     23  C   LIG    1       24.793 -31.411   7.798  0.00  0.00    +0.048 A 
ATOM     24  C   LIG    1       24.622 -30.042   7.582  0.00  0.00    +0.033 A 
BRANCH  21  25
ATOM     25  C   LIG    1       26.053 -32.445   4.342  0.00  0.00    +0.340 C 
ATOM     26  O   LIG    1       26.976 -33.219   4.406  0.00  0.00    -0.245 OA
BRANCH  25  27
ATOM     27  O   LIG    1       25.293 -32.276   3.237  0.00  0.00    -0.477 OA
ATOM     28  H   LIG    1       25.563 -32.861   2.494  0.00  0.00    +0.295 HD
ENDBRANCH  25  27
ENDBRANCH  21  25
BRANCH  22  29
ATOM     29  O   LIG    1       25.516 -33.539   6.996  0.00  0.00    -0.506 OA
ATOM     30  H   LIG    1       26.477 -33.681   7.081  0.00  0.00    +0.292 HD
ENDBRANCH  22  29
ENDBRANCH  18  19
ENDBRANCH   4  17
TORSDOF 10
ENDMDL
