MODEL 1
REMARK VINA RESULT:      21.7      0.000      0.000
REMARK  Name = *****
REMARK                            x       y       z     vdW  Elec       q    Type
REMARK                         _______ _______ _______ _____ _____    ______ ____
ROOT
ATOM      1  C   LIG    1       22.156 -17.830   6.012  0.00  0.00    +0.013 C 
ATOM      2  C   LIG    1       22.787 -17.956   4.832  0.00  0.00    -0.035 C 
ATOM      3  C   LIG    1       23.792 -16.973   4.233  0.00  0.00    +0.085 C 
ATOM      4  C   LIG    1       25.124 -17.670   4.048  0.00  0.00    +0.050 C 
ATOM      5  C   LIG    1       26.304 -17.021   4.103  0.00  0.00    +0.141 C 
ATOM      6  C   LIG    1       26.405 -15.537   4.309  0.00  0.00    +0.192 C 
ATOM      7  C   LIG    1       25.070 -14.777   4.256  0.00  0.00    +0.090 C 
ATOM      8  C   LIG    1       25.318 -13.310   4.753  0.00  0.00    +0.132 C 
ATOM      9  C   LIG    1       26.677 -12.737   4.256  0.00  0.00    +0.127 C 
ATOM     10  C   LIG    1       27.584 -13.431   3.523  0.00  0.00    +0.121 C 
ATOM     11  C   LIG    1       27.182 -14.826   3.185  0.00  0.00    +0.211 C 
ATOM     12  O   LIG    1       27.286 -15.266   2.043  0.00  0.00    -0.288 OA
ATOM     13  C   LIG    1       25.123 -19.157   3.878  0.00  0.00    +0.197 C 
ATOM     14  O   LIG    1       26.161 -19.798   4.018  0.00  0.00    -0.287 OA
ATOM     15  C   LIG    1       23.825 -19.798   3.553  0.00  0.00    +0.072 A 
ATOM     16  C   LIG    1       23.781 -20.979   2.796  0.00  0.00    +0.128 A 
ATOM     17  C   LIG    1       22.563 -21.570   2.480  0.00  0.00    +0.047 A 
ATOM     18  C   LIG    1       21.381 -20.964   2.900  0.00  0.00    +0.024 A 
ATOM     19  C   LIG    1       21.411 -19.782   3.653  0.00  0.00    +0.049 A 
ATOM     20 CL   LIG    1       19.879 -19.067   4.020  0.00  0.00    -0.083 Cl
ATOM     21  C   LIG    1       23.959 -15.589   4.960  0.00  0.00    +0.135 C 
ATOM     22  C   LIG    1       22.638 -19.195   4.020  0.00  0.00    +0.011 A 
ENDROOT
BRANCH  10  23
ATOM     23  C   LIG    1       28.891 -12.908   3.054  0.00  0.00    +0.248 C 
ATOM     24  O   LIG    1       29.475 -13.344   2.058  0.00  0.00    -0.270 OA
ATOM     25  N   LIG    1       29.475 -11.941   3.804  0.00  0.00    -0.325 N 
ATOM     26  H   LIG    1       29.034 -11.589   4.648  0.00  0.00    +0.145 HD
ATOM     27  H   LIG    1       30.384 -11.598   3.530  0.00  0.00    +0.145 HD
ENDBRANCH  10  23
BRANCH   8  28
ATOM     28  N   LIG    1       24.126 -12.465   4.468  0.00  0.00    -0.298 NA
ATOM     29  C   LIG    1       23.854 -11.455   5.494  0.00  0.00    +0.105 C 
ATOM     30  C   LIG    1       24.072 -11.882   3.127  0.00  0.00    +0.105 C 
ENDBRANCH   8  28
BRANCH   5  31
ATOM     31  O   LIG    1       27.537 -17.662   4.102  0.00  0.00    -0.507 OA
ATOM     32  H   LIG    1       27.430 -18.540   4.541  0.00  0.00    +0.292 HD
ENDBRANCH   5  31
BRANCH   6  33
ATOM     33  O   LIG    1       27.029 -15.380   5.585  0.00  0.00    -0.373 OA
ATOM     34  H   LIG    1       27.752 -16.042   5.601  0.00  0.00    +0.211 HD
ENDBRANCH   6  33
BRANCH   9  35
ATOM     35  O   LIG    1       26.970 -11.447   4.686  0.00  0.00    -0.509 OA
ATOM     36  H   LIG    1       27.851 -11.488   5.099  0.00  0.00    +0.292 HD
ENDBRANCH   9  35
BRANCH  16  37
ATOM     37  O   LIG    1       24.929 -21.541   2.316  0.00  0.00    -0.506 OA
ATOM     38  H   LIG    1       25.393 -22.025   3.019  0.00  0.00    +0.292 HD
ENDBRANCH  16  37
BRANCH  21  39
ATOM     39  O   LIG    1       22.704 -14.901   4.891  0.00  0.00    -0.390 OA
ATOM     40  H   LIG    1       22.868 -13.972   4.634  0.00  0.00    +0.210 HD
ENDBRANCH  21  39
TORSDOF 7
ENDMDL
