MODEL 1
REMARK VINA RESULT:      -3.3      0.000      0.000
REMARK  Name = *****
REMARK                            x       y       z     vdW  Elec       q    Type
REMARK                         _______ _______ _______ _____ _____    ______ ____
ROOT
ATOM      1 CL   LIG    1       27.474 -13.997   3.418  0.00  0.00    +0.130 Cl
ENDROOT
BRANCH   1   2
ATOM      2  O   LIG    1       26.303 -13.346   4.402  0.00  0.00    -0.271 OA
ATOM      3  H   LIG    1       25.411 -13.434   4.025  0.00  0.00    +0.238 HD
ENDBRANCH   1   2
BRANCH   1   4
ATOM      4  O   LIG    1       27.871 -15.507   3.995  0.00  0.00    -0.271 OA
ATOM      5  H   LIG    1       28.800 -15.709   3.802  0.00  0.00    +0.238 HD
ENDBRANCH   1   4
BRANCH   1   6
ATOM      6  O   LIG    1       28.839 -13.051   3.425  0.00  0.00    -0.271 OA
ATOM      7  H   LIG    1       29.222 -12.931   4.309  0.00  0.00    +0.238 HD
ENDBRANCH   1   6
BRANCH   1   8
ATOM      8  O   LIG    1       26.877 -14.159   1.876  0.00  0.00    -0.271 OA
ATOM      9  H   LIG    1       27.418 -13.691   1.217  0.00  0.00    +0.238 HD
ENDBRANCH   1   8
TORSDOF 4
ENDMDL
MODEL 2
REMARK VINA RESULT:      -3.3      0.027      2.118
REMARK  Name = *****
REMARK                            x       y       z     vdW  Elec       q    Type
REMARK                         _______ _______ _______ _____ _____    ______ ____
ROOT
ATOM      1 CL   LIG    1       27.478 -14.009   3.427  0.00  0.00    +0.130 Cl
ENDROOT
BRANCH   1   2
ATOM      2  O   LIG    1       28.847 -13.066   3.439  0.00  0.00    -0.271 OA
ATOM      3  H   LIG    1       29.280 -13.052   4.309  0.00  0.00    +0.238 HD
ENDBRANCH   1   2
BRANCH   1   4
ATOM      4  O   LIG    1       27.873 -15.524   3.994  0.00  0.00    -0.271 OA
ATOM      5  H   LIG    1       28.770 -15.766   3.716  0.00  0.00    +0.238 HD
ENDBRANCH   1   4
BRANCH   1   6
ATOM      6  O   LIG    1       26.881 -14.160   1.884  0.00  0.00    -0.271 OA
ATOM      7  H   LIG    1       27.367 -14.803   1.343  0.00  0.00    +0.238 HD
ENDBRANCH   1   6
BRANCH   1   8
ATOM      8  O   LIG    1       26.338 -13.346   4.437  0.00  0.00    -0.271 OA
ATOM      9  H   LIG    1       25.613 -13.963   4.635  0.00  0.00    +0.238 HD
ENDBRANCH   1   8
TORSDOF 4
ENDMDL
MODEL 3
REMARK VINA RESULT:      -3.3      0.029      2.110
REMARK  Name = *****
REMARK                            x       y       z     vdW  Elec       q    Type
REMARK                         _______ _______ _______ _____ _____    ______ ____
ROOT
ATOM      1 CL   LIG    1       27.479 -14.007   3.439  0.00  0.00    +0.130 Cl
ENDROOT
BRANCH   1   2
ATOM      2  O   LIG    1       26.895 -14.153   1.890  0.00  0.00    -0.271 OA
ATOM      3  H   LIG    1       26.898 -15.073   1.577  0.00  0.00    +0.238 HD
ENDBRANCH   1   2
BRANCH   1   4
ATOM      4  O   LIG    1       27.878 -15.523   4.000  0.00  0.00    -0.271 OA
ATOM      5  H   LIG    1       27.992 -16.138   3.259  0.00  0.00    +0.238 HD
ENDBRANCH   1   4
BRANCH   1   6
ATOM      6  O   LIG    1       26.325 -13.358   4.443  0.00  0.00    -0.271 OA
ATOM      7  H   LIG    1       25.622 -12.886   3.969  0.00  0.00    +0.238 HD
ENDBRANCH   1   6
BRANCH   1   8
ATOM      8  O   LIG    1       28.849 -13.067   3.431  0.00  0.00    -0.271 OA
ATOM      9  H   LIG    1       28.669 -12.146   3.683  0.00  0.00    +0.238 HD
ENDBRANCH   1   8
TORSDOF 4
ENDMDL
MODEL 4
REMARK VINA RESULT:      -3.3      0.035      2.431
REMARK  Name = *****
REMARK                            x       y       z     vdW  Elec       q    Type
REMARK                         _______ _______ _______ _____ _____    ______ ____
ROOT
ATOM      1 CL   LIG    1       27.495 -14.040   3.415  0.00  0.00    +0.130 Cl
ENDROOT
BRANCH   1   2
ATOM      2  O   LIG    1       27.880 -15.544   4.007  0.00  0.00    -0.271 OA
ATOM      3  H   LIG    1       28.202 -16.144   3.314  0.00  0.00    +0.238 HD
ENDBRANCH   1   2
BRANCH   1   4
ATOM      4  O   LIG    1       26.339 -13.361   4.402  0.00  0.00    -0.271 OA
ATOM      5  H   LIG    1       25.829 -12.695   3.917  0.00  0.00    +0.238 HD
ENDBRANCH   1   4
BRANCH   1   6
ATOM      6  O   LIG    1       26.876 -14.154   1.877  0.00  0.00    -0.271 OA
ATOM      7  H   LIG    1       26.266 -14.900   1.760  0.00  0.00    +0.238 HD
ENDBRANCH   1   6
BRANCH   1   8
ATOM      8  O   LIG    1       28.845 -13.071   3.435  0.00  0.00    -0.271 OA
ATOM      9  H   LIG    1       29.261 -12.995   2.560  0.00  0.00    +0.238 HD
ENDBRANCH   1   8
TORSDOF 4
ENDMDL
MODEL 5
REMARK VINA RESULT:      -3.3      0.034      2.093
REMARK  Name = *****
REMARK                            x       y       z     vdW  Elec       q    Type
REMARK                         _______ _______ _______ _____ _____    ______ ____
ROOT
ATOM      1 CL   LIG    1       27.503 -14.033   3.420  0.00  0.00    +0.130 Cl
ENDROOT
BRANCH   1   2
ATOM      2  O   LIG    1       26.882 -14.160   1.884  0.00  0.00    -0.271 OA
ATOM      3  H   LIG    1       25.955 -13.871   1.833  0.00  0.00    +0.238 HD
ENDBRANCH   1   2
BRANCH   1   4
ATOM      4  O   LIG    1       26.345 -13.353   4.405  0.00  0.00    -0.271 OA
ATOM      5  H   LIG    1       25.603 -13.022   3.876  0.00  0.00    +0.238 HD
ENDBRANCH   1   4
BRANCH   1   6
ATOM      6  O   LIG    1       28.848 -13.058   3.431  0.00  0.00    -0.271 OA
ATOM      7  H   LIG    1       28.643 -12.119   3.569  0.00  0.00    +0.238 HD
ENDBRANCH   1   6
BRANCH   1   8
ATOM      8  O   LIG    1       27.868 -15.547   3.999  0.00  0.00    -0.271 OA
ATOM      9  H   LIG    1       27.853 -15.587   4.970  0.00  0.00    +0.238 HD
ENDBRANCH   1   8
TORSDOF 4
ENDMDL
MODEL 6
REMARK VINA RESULT:      -3.3      0.043      2.099
REMARK  Name = *****
REMARK                            x       y       z     vdW  Elec       q    Type
REMARK                         _______ _______ _______ _____ _____    ______ ____
ROOT
ATOM      1 CL   LIG    1       27.471 -14.044   3.437  0.00  0.00    +0.130 Cl
ENDROOT
BRANCH   1   2
ATOM      2  O   LIG    1       26.341 -13.357   4.443  0.00  0.00    -0.271 OA
ATOM      3  H   LIG    1       25.435 -13.456   4.105  0.00  0.00    +0.238 HD
ENDBRANCH   1   2
BRANCH   1   4
ATOM      4  O   LIG    1       28.830 -13.082   3.430  0.00  0.00    -0.271 OA
ATOM      5  H   LIG    1       29.623 -13.619   3.281  0.00  0.00    +0.238 HD
ENDBRANCH   1   4
BRANCH   1   6
ATOM      6  O   LIG    1       26.889 -14.150   1.884  0.00  0.00    -0.271 OA
ATOM      7  H   LIG    1       27.000 -15.030   1.489  0.00  0.00    +0.238 HD
ENDBRANCH   1   6
BRANCH   1   8
ATOM      8  O   LIG    1       27.888 -15.546   4.012  0.00  0.00    -0.271 OA
ATOM      9  H   LIG    1       28.666 -15.914   3.560  0.00  0.00    +0.238 HD
ENDBRANCH   1   8
TORSDOF 4
ENDMDL
MODEL 7
REMARK VINA RESULT:      -3.3      0.029      2.101
REMARK  Name = *****
REMARK                            x       y       z     vdW  Elec       q    Type
REMARK                         _______ _______ _______ _____ _____    ______ ____
ROOT
ATOM      1 CL   LIG    1       27.490 -14.034   3.413  0.00  0.00    +0.130 Cl
ENDROOT
BRANCH   1   2
ATOM      2  O   LIG    1       28.824 -13.044   3.406  0.00  0.00    -0.271 OA
ATOM      3  H   LIG    1       28.840 -12.437   4.166  0.00  0.00    +0.238 HD
ENDBRANCH   1   2
BRANCH   1   4
ATOM      4  O   LIG    1       26.329 -13.354   4.394  0.00  0.00    -0.271 OA
ATOM      5  H   LIG    1       26.372 -12.386   4.348  0.00  0.00    +0.238 HD
ENDBRANCH   1   4
BRANCH   1   6
ATOM      6  O   LIG    1       27.875 -15.536   4.010  0.00  0.00    -0.271 OA
ATOM      7  H   LIG    1       28.830 -15.682   4.102  0.00  0.00    +0.238 HD
ENDBRANCH   1   6
BRANCH   1   8
ATOM      8  O   LIG    1       26.877 -14.153   1.872  0.00  0.00    -0.271 OA
ATOM      9  H   LIG    1       26.236 -14.877   1.782  0.00  0.00    +0.238 HD
ENDBRANCH   1   8
TORSDOF 4
ENDMDL
MODEL 8
REMARK VINA RESULT:      -3.3      0.034      2.098
REMARK  Name = *****
REMARK                            x       y       z     vdW  Elec       q    Type
REMARK                         _______ _______ _______ _____ _____    ______ ____
ROOT
ATOM      1 CL   LIG    1       27.498 -14.023   3.449  0.00  0.00    +0.130 Cl
ENDROOT
BRANCH   1   2
ATOM      2  O   LIG    1       27.873 -15.545   4.001  0.00  0.00    -0.271 OA
ATOM      3  H   LIG    1       28.409 -16.049   3.366  0.00  0.00    +0.238 HD
ENDBRANCH   1   2
BRANCH   1   4
ATOM      4  O   LIG    1       26.907 -14.153   1.898  0.00  0.00    -0.271 OA
ATOM      5  H   LIG    1       26.085 -14.666   1.891  0.00  0.00    +0.238 HD
ENDBRANCH   1   4
BRANCH   1   6
ATOM      6  O   LIG    1       28.849 -13.058   3.423  0.00  0.00    -0.271 OA
ATOM      7  H   LIG    1       28.859 -12.387   4.125  0.00  0.00    +0.238 HD
ENDBRANCH   1   6
BRANCH   1   8
ATOM      8  O   LIG    1       26.318 -13.358   4.412  0.00  0.00    -0.271 OA
ATOM      9  H   LIG    1       25.547 -13.941   4.511  0.00  0.00    +0.238 HD
ENDBRANCH   1   8
TORSDOF 4
ENDMDL
MODEL 9
REMARK VINA RESULT:      -3.3      0.039      2.423
REMARK  Name = *****
REMARK                            x       y       z     vdW  Elec       q    Type
REMARK                         _______ _______ _______ _____ _____    ______ ____
ROOT
ATOM      1 CL   LIG    1       27.468 -14.049   3.437  0.00  0.00    +0.130 Cl
ENDROOT
BRANCH   1   2
ATOM      2  O   LIG    1       26.889 -14.153   1.883  0.00  0.00    -0.271 OA
ATOM      3  H   LIG    1       25.929 -14.007   1.834  0.00  0.00    +0.238 HD
ENDBRANCH   1   2
BRANCH   1   4
ATOM      4  O   LIG    1       28.824 -13.083   3.434  0.00  0.00    -0.271 OA
ATOM      5  H   LIG    1       29.050 -12.814   4.338  0.00  0.00    +0.238 HD
ENDBRANCH   1   4
BRANCH   1   6
ATOM      6  O   LIG    1       27.888 -15.550   4.011  0.00  0.00    -0.271 OA
ATOM      7  H   LIG    1       27.630 -15.697   4.935  0.00  0.00    +0.238 HD
ENDBRANCH   1   6
BRANCH   1   8
ATOM      8  O   LIG    1       26.320 -13.346   4.413  0.00  0.00    -0.271 OA
ATOM      9  H   LIG    1       25.458 -13.789   4.349  0.00  0.00    +0.238 HD
ENDBRANCH   1   8
TORSDOF 4
ENDMDL
