MODEL 1
REMARK VINA RESULT:       2.7      0.000      0.000
REMARK  Name = *****
REMARK                            x       y       z     vdW  Elec       q    Type
REMARK                         _______ _______ _______ _____ _____    ______ ____
ROOT
ATOM      1  C   LIG    1       24.194 -15.261   3.610  0.00  0.00    +0.242 C 
ATOM      2  C   LIG    1       24.527 -16.671   2.983  0.00  0.00    +0.199 C 
ATOM      3  N   LIG    1       23.667 -17.266   3.988  0.00  0.00    -0.244 N 
ATOM      4  C   LIG    1       23.533 -18.615   4.186  0.00  0.00    +0.125 C 
ATOM      5  C   LIG    1       24.432 -19.481   3.644  0.00  0.00    +0.006 C 
ATOM      6  C   LIG    1       25.667 -19.041   2.861  0.00  0.00    +0.107 C 
ATOM      7  S   LIG    1       26.198 -17.330   3.223  0.00  0.00    -0.128 S 
ATOM      8  C   LIG    1       23.083 -16.107   4.386  0.00  0.00    +0.275 C 
ATOM      9  O   LIG    1       22.158 -15.857   5.143  0.00  0.00    -0.270 OA
ENDROOT
BRANCH   1  10
ATOM     10  N   LIG    1       25.228 -14.688   4.535  0.00  0.00    -0.278 N 
ATOM     11  H   LIG    1       25.996 -15.283   4.827  0.00  0.00    +0.152 HD
ATOM     12  C   LIG    1       25.005 -13.517   5.233  0.00  0.00    +0.220 C 
ATOM     13  O   LIG    1       23.984 -12.847   5.119  0.00  0.00    -0.275 OA
BRANCH  12  14
ATOM     14  C   LIG    1       26.167 -13.071   6.099  0.00  0.00    +0.138 C 
BRANCH  14  15
ATOM     15  C   LIG    1       27.417 -12.807   5.314  0.00  0.00    -0.002 A 
ATOM     16  S   LIG    1       27.740 -13.782   3.933  0.00  0.00    -0.101 S 
ATOM     17  C   LIG    1       29.213 -12.979   3.619  0.00  0.00    +0.045 A 
ATOM     18  C   LIG    1       29.472 -11.999   4.548  0.00  0.00    +0.008 A 
ATOM     19  C   LIG    1       28.442 -11.905   5.532  0.00  0.00    +0.012 A 
ENDBRANCH  14  15
ENDBRANCH  12  14
ENDBRANCH   1  10
BRANCH   1  21
ATOM     20  C   LIG    1       24.559 -13.443   2.013  0.00  0.00    +0.197 C 
ATOM     21  O   LIG    1       23.644 -14.314   2.654  0.00  0.00    -0.349 OA
ENDBRANCH   1  21
BRANCH   4  22
ATOM     22  C   LIG    1       22.367 -19.082   5.022  0.00  0.00    +0.351 C 
ATOM     23  O   LIG    1       21.204 -19.193   4.676  0.00  0.00    -0.244 OA
BRANCH  22  24
ATOM     24  O   LIG    1       22.744 -19.384   6.271  0.00  0.00    -0.476 OA
ATOM     25  H   LIG    1       22.634 -18.590   6.829  0.00  0.00    +0.295 HD
ENDBRANCH  22  24
ENDBRANCH   4  22
BRANCH   5  26
ATOM     26  C   LIG    1       24.353 -20.998   3.756  0.00  0.00    +0.268 C 
BRANCH  26  27
ATOM     27  O   LIG    1       24.472 -21.396   5.134  0.00  0.00    -0.446 OA
BRANCH  27  28
ATOM     28  C   LIG    1       25.594 -21.017   5.783  0.00  0.00    +0.398 C 
ATOM     29  O   LIG    1       26.720 -20.964   5.319  0.00  0.00    -0.227 OA
ATOM     30  N   LIG    1       25.300 -20.662   7.057  0.00  0.00    -0.295 N 
ATOM     31  H   LIG    1       26.034 -20.277   7.635  0.00  0.00    +0.148 HD
ATOM     32  H   LIG    1       24.340 -20.603   7.358  0.00  0.00    +0.148 HD
ENDBRANCH  27  28
ENDBRANCH  26  27
ENDBRANCH   5  26
TORSDOF 9
ENDMDL
MODEL 2
REMARK VINA RESULT:       3.9      2.133      3.149
REMARK  Name = *****
REMARK                            x       y       z     vdW  Elec       q    Type
REMARK                         _______ _______ _______ _____ _____    ______ ____
ROOT
ATOM      1  C   LIG    1       22.863 -17.521   3.631  0.00  0.00    +0.242 C 
ATOM      2  C   LIG    1       23.980 -18.595   3.330  0.00  0.00    +0.199 C 
ATOM      3  N   LIG    1       23.785 -19.101   4.676  0.00  0.00    -0.244 N 
ATOM      4  C   LIG    1       24.570 -20.062   5.257  0.00  0.00    +0.125 C 
ATOM      5  C   LIG    1       25.772 -20.391   4.710  0.00  0.00    +0.006 C 
ATOM      6  C   LIG    1       26.367 -19.693   3.489  0.00  0.00    +0.107 C 
ATOM      7  S   LIG    1       25.693 -18.020   3.196  0.00  0.00    -0.128 S 
ATOM      8  C   LIG    1       22.623 -18.442   4.914  0.00  0.00    +0.275 C 
ATOM      9  O   LIG    1       21.816 -18.480   5.829  0.00  0.00    -0.270 OA
ENDROOT
BRANCH   1  10
ATOM     10  N   LIG    1       23.348 -16.147   3.994  0.00  0.00    -0.278 N 
ATOM     11  H   LIG    1       24.217 -15.819   3.587  0.00  0.00    +0.152 HD
ATOM     12  C   LIG    1       22.831 -15.459   5.075  0.00  0.00    +0.220 C 
ATOM     13  O   LIG    1       21.925 -15.892   5.781  0.00  0.00    -0.275 OA
BRANCH  12  14
ATOM     14  C   LIG    1       23.417 -14.076   5.278  0.00  0.00    +0.138 C 
BRANCH  14  15
ATOM     15  C   LIG    1       24.411 -13.699   4.220  0.00  0.00    -0.002 A 
ATOM     16  S   LIG    1       26.022 -14.289   4.360  0.00  0.00    -0.101 S 
ATOM     17  C   LIG    1       26.519 -13.482   2.940  0.00  0.00    +0.045 A 
ATOM     18  C   LIG    1       25.494 -12.763   2.372  0.00  0.00    +0.008 A 
ATOM     19  C   LIG    1       24.279 -12.879   3.114  0.00  0.00    +0.012 A 
ENDBRANCH  14  15
ENDBRANCH  12  14
ENDBRANCH   1  10
BRANCH   1  21
ATOM     20  C   LIG    1       20.663 -18.384   2.991  0.00  0.00    +0.197 C 
ATOM     21  O   LIG    1       21.762 -17.544   2.682  0.00  0.00    -0.349 OA
ENDBRANCH   1  21
BRANCH   4  22
ATOM     22  C   LIG    1       24.049 -20.719   6.511  0.00  0.00    +0.351 C 
ATOM     23  O   LIG    1       22.952 -20.576   7.022  0.00  0.00    -0.244 OA
BRANCH  22  24
ATOM     24  O   LIG    1       24.962 -21.529   7.062  0.00  0.00    -0.476 OA
ATOM     25  H   LIG    1       24.551 -21.991   7.818  0.00  0.00    +0.295 HD
ENDBRANCH  22  24
ENDBRANCH   4  22
BRANCH   5  26
ATOM     26  C   LIG    1       26.700 -21.475   5.241  0.00  0.00    +0.268 C 
BRANCH  26  27
ATOM     27  O   LIG    1       27.309 -21.042   6.471  0.00  0.00    -0.446 OA
BRANCH  27  28
ATOM     28  C   LIG    1       28.447 -20.321   6.367  0.00  0.00    +0.398 C 
ATOM     29  O   LIG    1       28.566 -19.221   5.857  0.00  0.00    -0.227 OA
ATOM     30  N   LIG    1       29.475 -20.985   6.947  0.00  0.00    -0.295 N 
ATOM     31  H   LIG    1       30.372 -20.525   7.017  0.00  0.00    +0.148 HD
ATOM     32  H   LIG    1       29.304 -21.833   7.465  0.00  0.00    +0.148 HD
ENDBRANCH  27  28
ENDBRANCH  26  27
ENDBRANCH   5  26
TORSDOF 9
ENDMDL
