MODEL 1
REMARK VINA RESULT:      -7.7      0.000      0.000
REMARK  Name = *****
REMARK                            x       y       z     vdW  Elec       q    Type
REMARK                         _______ _______ _______ _____ _____    ______ ____
ROOT
ATOM      1  C   LIG    1       30.164 -19.682   7.321  0.00  0.00    -0.032 A 
ATOM      2  C   LIG    1       29.428 -19.081   6.289  0.00  0.00    +0.006 A 
ATOM      3  C   LIG    1       28.176 -19.582   5.925  0.00  0.00    +0.013 A 
ATOM      4  C   LIG    1       27.627 -20.680   6.601  0.00  0.00    +0.037 A 
ATOM      5  C   LIG    1       28.362 -21.302   7.613  0.00  0.00    +0.013 A 
ATOM      6  C   LIG    1       29.621 -20.800   7.974  0.00  0.00    +0.006 A 
ENDROOT
BRANCH   4   7
ATOM      7  C   LIG    1       26.267 -21.188   6.250  0.00  0.00    +0.244 C 
ATOM      8  N   LIG    1       25.535 -20.353   5.432  0.00  0.00    -0.309 N 
ATOM      9  H   LIG    1       25.852 -19.400   5.325  0.00  0.00    +0.149 HD
ATOM     10  O   LIG    1       25.861 -22.255   6.686  0.00  0.00    -0.270 OA
BRANCH   8  11
ATOM     11  C   LIG    1       24.185 -20.647   4.981  0.00  0.00    +0.067 C 
ATOM     12  C   LIG    1       23.900 -19.827   3.725  0.00  0.00    +0.027 C 
ATOM     13  C   LIG    1       23.173 -20.327   6.075  0.00  0.00    +0.027 C 
ENDBRANCH   8  11
ENDBRANCH   4   7
BRANCH   1  14
ATOM     14  C   LIG    1       31.521 -19.127   7.709  0.00  0.00    +0.133 C 
BRANCH  14  15
ATOM     15  N   LIG    1       31.938 -19.571   9.054  0.00  0.00    -0.253 NA
ATOM     16  H   LIG    1       31.277 -20.292   9.358  0.00  0.00    +0.141 HD
BRANCH  15  18
ATOM     17  C   LIG    1       32.134 -17.191   9.209  0.00  0.00    +0.120 C 
ATOM     18  N   LIG    1       31.899 -18.425   9.965  0.00  0.00    -0.259 NA
ATOM     19  H   LIG    1       30.974 -18.347  10.400  0.00  0.00    +0.140 HD
ENDBRANCH  15  18
ENDBRANCH  14  15
ENDBRANCH   1  14
TORSDOF 5
ENDMDL
MODEL 2
REMARK VINA RESULT:      -7.7      1.501      1.986
REMARK  Name = *****
REMARK                            x       y       z     vdW  Elec       q    Type
REMARK                         _______ _______ _______ _____ _____    ______ ____
ROOT
ATOM      1  C   LIG    1       29.566 -19.409   7.501  0.00  0.00    -0.032 A 
ATOM      2  C   LIG    1       29.399 -19.099   6.144  0.00  0.00    +0.006 A 
ATOM      3  C   LIG    1       28.222 -19.447   5.476  0.00  0.00    +0.013 A 
ATOM      4  C   LIG    1       27.182 -20.090   6.159  0.00  0.00    +0.037 A 
ATOM      5  C   LIG    1       27.347 -20.426   7.505  0.00  0.00    +0.013 A 
ATOM      6  C   LIG    1       28.532 -20.081   8.172  0.00  0.00    +0.006 A 
ENDROOT
BRANCH   4   7
ATOM      7  C   LIG    1       25.901 -20.418   5.464  0.00  0.00    +0.244 C 
ATOM      8  N   LIG    1       24.953 -21.022   6.263  0.00  0.00    -0.309 N 
ATOM      9  H   LIG    1       25.254 -21.398   7.151  0.00  0.00    +0.149 HD
ATOM     10  O   LIG    1       25.748 -20.175   4.276  0.00  0.00    -0.270 OA
BRANCH   8  11
ATOM     11  C   LIG    1       23.644 -21.437   5.787  0.00  0.00    +0.067 C 
ATOM     12  C   LIG    1       22.730 -20.215   5.742  0.00  0.00    +0.027 C 
ATOM     13  C   LIG    1       23.060 -22.514   6.696  0.00  0.00    +0.027 C 
ENDBRANCH   8  11
ENDBRANCH   4   7
BRANCH   1  14
ATOM     14  C   LIG    1       30.848 -19.025   8.216  0.00  0.00    +0.133 C 
BRANCH  14  15
ATOM     15  N   LIG    1       31.027 -19.775   9.475  0.00  0.00    -0.253 NA
ATOM     16  H   LIG    1       31.334 -19.108  10.189  0.00  0.00    +0.141 HD
BRANCH  15  18
ATOM     17  C   LIG    1       31.394 -22.118   9.157  0.00  0.00    +0.120 C 
ATOM     18  N   LIG    1       32.045 -20.809   9.270  0.00  0.00    -0.259 NA
ATOM     19  H   LIG    1       32.551 -20.642   8.395  0.00  0.00    +0.140 HD
ENDBRANCH  15  18
ENDBRANCH  14  15
ENDBRANCH   1  14
TORSDOF 5
ENDMDL
MODEL 3
REMARK VINA RESULT:      -7.6      1.478      1.873
REMARK  Name = *****
REMARK                            x       y       z     vdW  Elec       q    Type
REMARK                         _______ _______ _______ _____ _____    ______ ____
ROOT
ATOM      1  C   LIG    1       30.180 -19.624   7.231  0.00  0.00    -0.032 A 
ATOM      2  C   LIG    1       29.507 -19.011   6.165  0.00  0.00    +0.006 A 
ATOM      3  C   LIG    1       28.251 -19.469   5.760  0.00  0.00    +0.013 A 
ATOM      4  C   LIG    1       27.634 -20.534   6.430  0.00  0.00    +0.037 A 
ATOM      5  C   LIG    1       28.306 -21.169   7.477  0.00  0.00    +0.013 A 
ATOM      6  C   LIG    1       29.570 -20.710   7.879  0.00  0.00    +0.006 A 
ENDROOT
BRANCH   4   7
ATOM      7  C   LIG    1       26.270 -20.995   6.035  0.00  0.00    +0.244 C 
ATOM      8  N   LIG    1       25.964 -22.282   6.427  0.00  0.00    -0.309 N 
ATOM      9  H   LIG    1       26.722 -22.878   6.728  0.00  0.00    +0.149 HD
ATOM     10  O   LIG    1       25.518 -20.271   5.399  0.00  0.00    -0.270 OA
BRANCH   8  11
ATOM     11  C   LIG    1       24.697 -22.933   6.137  0.00  0.00    +0.067 C 
ATOM     12  C   LIG    1       23.656 -22.447   7.140  0.00  0.00    +0.027 C 
ATOM     13  C   LIG    1       24.847 -24.449   6.206  0.00  0.00    +0.027 C 
ENDBRANCH   8  11
ENDBRANCH   4   7
BRANCH   1  14
ATOM     14  C   LIG    1       31.543 -19.116   7.662  0.00  0.00    +0.133 C 
BRANCH  14  15
ATOM     15  N   LIG    1       31.915 -19.599   9.007  0.00  0.00    -0.253 NA
ATOM     16  H   LIG    1       31.224 -20.303   9.283  0.00  0.00    +0.141 HD
BRANCH  15  18
ATOM     17  C   LIG    1       32.117 -17.222   9.201  0.00  0.00    +0.120 C 
ATOM     18  N   LIG    1       31.894 -18.469   9.940  0.00  0.00    -0.259 NA
ATOM     19  H   LIG    1       30.978 -18.398  10.392  0.00  0.00    +0.140 HD
ENDBRANCH  15  18
ENDBRANCH  14  15
ENDBRANCH   1  14
TORSDOF 5
ENDMDL
MODEL 4
REMARK VINA RESULT:      -7.4      2.521      7.054
REMARK  Name = *****
REMARK                            x       y       z     vdW  Elec       q    Type
REMARK                         _______ _______ _______ _____ _____    ______ ____
ROOT
ATOM      1  C   LIG    1       24.604 -20.807   6.606  0.00  0.00    -0.032 A 
ATOM      2  C   LIG    1       25.243 -20.888   7.852  0.00  0.00    +0.006 A 
ATOM      3  C   LIG    1       26.616 -20.651   7.962  0.00  0.00    +0.013 A 
ATOM      4  C   LIG    1       27.370 -20.306   6.833  0.00  0.00    +0.037 A 
ATOM      5  C   LIG    1       26.748 -20.248   5.583  0.00  0.00    +0.013 A 
ATOM      6  C   LIG    1       25.371 -20.491   5.473  0.00  0.00    +0.006 A 
ENDROOT
BRANCH   4   7
ATOM      7  C   LIG    1       28.827 -20.001   6.953  0.00  0.00    +0.244 C 
ATOM      8  N   LIG    1       29.465 -20.649   7.991  0.00  0.00    -0.309 N 
ATOM      9  H   LIG    1       28.892 -21.074   8.706  0.00  0.00    +0.149 HD
ATOM     10  O   LIG    1       29.374 -19.221   6.187  0.00  0.00    -0.270 OA
BRANCH   8  11
ATOM     11  C   LIG    1       30.876 -20.486   8.296  0.00  0.00    +0.067 C 
ATOM     12  C   LIG    1       31.360 -21.722   9.050  0.00  0.00    +0.027 C 
ATOM     13  C   LIG    1       31.104 -19.225   9.124  0.00  0.00    +0.027 C 
ENDBRANCH   8  11
ENDBRANCH   4   7
BRANCH   1  14
ATOM     14  C   LIG    1       23.113 -21.064   6.499  0.00  0.00    +0.133 C 
BRANCH  14  15
ATOM     15  N   LIG    1       22.815 -22.288   5.729  0.00  0.00    -0.253 NA
ATOM     16  H   LIG    1       21.985 -22.098   5.160  0.00  0.00    +0.141 HD
BRANCH  15  18
ATOM     17  C   LIG    1       23.642 -24.366   6.579  0.00  0.00    +0.120 C 
ATOM     18  N   LIG    1       22.555 -23.386   6.663  0.00  0.00    -0.259 NA
ATOM     19  H   LIG    1       22.532 -23.036   7.626  0.00  0.00    +0.140 HD
ENDBRANCH  15  18
ENDBRANCH  14  15
ENDBRANCH   1  14
TORSDOF 5
ENDMDL
MODEL 5
REMARK VINA RESULT:      -7.3      1.336      1.872
REMARK  Name = *****
REMARK                            x       y       z     vdW  Elec       q    Type
REMARK                         _______ _______ _______ _____ _____    ______ ____
ROOT
ATOM      1  C   LIG    1       29.832 -20.013   7.405  0.00  0.00    -0.032 A 
ATOM      2  C   LIG    1       28.899 -20.921   7.925  0.00  0.00    +0.006 A 
ATOM      3  C   LIG    1       27.641 -21.063   7.334  0.00  0.00    +0.013 A 
ATOM      4  C   LIG    1       27.302 -20.318   6.197  0.00  0.00    +0.037 A 
ATOM      5  C   LIG    1       28.215 -19.392   5.685  0.00  0.00    +0.013 A 
ATOM      6  C   LIG    1       29.475 -19.247   6.283  0.00  0.00    +0.006 A 
ENDROOT
BRANCH   4   7
ATOM      7  C   LIG    1       25.979 -20.503   5.530  0.00  0.00    +0.244 C 
ATOM      8  N   LIG    1       25.039 -21.164   6.294  0.00  0.00    -0.309 N 
ATOM      9  H   LIG    1       25.360 -21.661   7.113  0.00  0.00    +0.149 HD
ATOM     10  O   LIG    1       25.786 -20.106   4.391  0.00  0.00    -0.270 OA
BRANCH   8  11
ATOM     11  C   LIG    1       23.692 -21.461   5.835  0.00  0.00    +0.067 C 
ATOM     12  C   LIG    1       22.859 -20.184   5.906  0.00  0.00    +0.027 C 
ATOM     13  C   LIG    1       23.067 -22.561   6.686  0.00  0.00    +0.027 C 
ENDBRANCH   8  11
ENDBRANCH   4   7
BRANCH   1  14
ATOM     14  C   LIG    1       31.195 -19.869   8.054  0.00  0.00    +0.133 C 
BRANCH  14  15
ATOM     15  N   LIG    1       31.102 -19.774   9.525  0.00  0.00    -0.253 NA
ATOM     16  H   LIG    1       30.108 -19.789   9.771  0.00  0.00    +0.141 HD
BRANCH  15  18
ATOM     17  C   LIG    1       30.752 -17.751  10.754  0.00  0.00    +0.120 C 
ATOM     18  N   LIG    1       31.717 -18.517   9.959  0.00  0.00    -0.259 NA
ATOM     19  H   LIG    1       32.527 -18.706  10.558  0.00  0.00    +0.140 HD
ENDBRANCH  15  18
ENDBRANCH  14  15
ENDBRANCH   1  14
TORSDOF 5
ENDMDL
MODEL 6
REMARK VINA RESULT:      -7.3      2.384      6.922
REMARK  Name = *****
REMARK                            x       y       z     vdW  Elec       q    Type
REMARK                         _______ _______ _______ _____ _____    ______ ____
ROOT
ATOM      1  C   LIG    1       24.525 -20.775   6.672  0.00  0.00    -0.032 A 
ATOM      2  C   LIG    1       25.580 -20.594   5.766  0.00  0.00    +0.006 A 
ATOM      3  C   LIG    1       26.895 -20.475   6.222  0.00  0.00    +0.013 A 
ATOM      4  C   LIG    1       27.182 -20.558   7.591  0.00  0.00    +0.037 A 
ATOM      5  C   LIG    1       26.136 -20.712   8.504  0.00  0.00    +0.013 A 
ATOM      6  C   LIG    1       24.816 -20.826   8.045  0.00  0.00    +0.006 A 
ENDROOT
BRANCH   4   7
ATOM      7  C   LIG    1       28.591 -20.483   8.080  0.00  0.00    +0.244 C 
ATOM      8  N   LIG    1       29.119 -19.209   8.115  0.00  0.00    -0.309 N 
ATOM      9  H   LIG    1       28.631 -18.481   7.612  0.00  0.00    +0.149 HD
ATOM     10  O   LIG    1       29.203 -21.492   8.398  0.00  0.00    -0.270 OA
BRANCH   8  11
ATOM     11  C   LIG    1       30.475 -18.910   8.545  0.00  0.00    +0.067 C 
ATOM     12  C   LIG    1       30.497 -17.513   9.159  0.00  0.00    +0.027 C 
ATOM     13  C   LIG    1       31.441 -18.998   7.369  0.00  0.00    +0.027 C 
ENDBRANCH   8  11
ENDBRANCH   4   7
BRANCH   1  14
ATOM     14  C   LIG    1       23.102 -20.904   6.164  0.00  0.00    +0.133 C 
BRANCH  14  15
ATOM     15  N   LIG    1       22.852 -22.219   5.541  0.00  0.00    -0.253 NA
ATOM     16  H   LIG    1       22.073 -22.106   4.886  0.00  0.00    +0.141 HD
BRANCH  15  18
ATOM     17  C   LIG    1       23.492 -24.267   6.601  0.00  0.00    +0.120 C 
ATOM     18  N   LIG    1       22.505 -23.183   6.588  0.00  0.00    -0.259 NA
ATOM     19  H   LIG    1       22.531 -22.733   7.509  0.00  0.00    +0.140 HD
ENDBRANCH  15  18
ENDBRANCH  14  15
ENDBRANCH   1  14
TORSDOF 5
ENDMDL
MODEL 7
REMARK VINA RESULT:      -7.3      5.480      8.395
REMARK  Name = *****
REMARK                            x       y       z     vdW  Elec       q    Type
REMARK                         _______ _______ _______ _____ _____    ______ ____
ROOT
ATOM      1  C   LIG    1       25.130 -27.000   5.876  0.00  0.00    -0.032 A 
ATOM      2  C   LIG    1       23.918 -26.301   5.778  0.00  0.00    +0.006 A 
ATOM      3  C   LIG    1       23.847 -24.951   6.129  0.00  0.00    +0.013 A 
ATOM      4  C   LIG    1       24.992 -24.268   6.562  0.00  0.00    +0.037 A 
ATOM      5  C   LIG    1       26.198 -24.961   6.688  0.00  0.00    +0.013 A 
ATOM      6  C   LIG    1       26.267 -26.318   6.340  0.00  0.00    +0.006 A 
ENDROOT
BRANCH   4   7
ATOM      7  C   LIG    1       24.934 -22.813   6.890  0.00  0.00    +0.244 C 
ATOM      8  N   LIG    1       26.081 -22.110   6.584  0.00  0.00    -0.309 N 
ATOM      9  H   LIG    1       26.921 -22.636   6.392  0.00  0.00    +0.149 HD
ATOM     10  O   LIG    1       23.940 -22.321   7.405  0.00  0.00    -0.270 OA
BRANCH   8  11
ATOM     11  C   LIG    1       26.244 -20.687   6.832  0.00  0.00    +0.067 C 
ATOM     12  C   LIG    1       27.323 -20.148   5.897  0.00  0.00    +0.027 C 
ATOM     13  C   LIG    1       26.619 -20.437   8.289  0.00  0.00    +0.027 C 
ENDBRANCH   8  11
ENDBRANCH   4   7
BRANCH   1  14
ATOM     14  C   LIG    1       25.194 -28.465   5.490  0.00  0.00    +0.133 C 
BRANCH  14  15
ATOM     15  N   LIG    1       23.962 -28.917   4.815  0.00  0.00    -0.253 NA
ATOM     16  H   LIG    1       23.361 -28.096   4.692  0.00  0.00    +0.141 HD
BRANCH  15  18
ATOM     17  C   LIG    1       24.309 -30.732   6.334  0.00  0.00    +0.120 C 
ATOM     18  N   LIG    1       23.298 -29.915   5.656  0.00  0.00    -0.259 NA
ATOM     19  H   LIG    1       22.739 -29.455   6.381  0.00  0.00    +0.140 HD
ENDBRANCH  15  18
ENDBRANCH  14  15
ENDBRANCH   1  14
TORSDOF 5
ENDMDL
MODEL 8
REMARK VINA RESULT:      -7.2      5.743      8.514
REMARK  Name = *****
REMARK                            x       y       z     vdW  Elec       q    Type
REMARK                         _______ _______ _______ _____ _____    ______ ____
ROOT
ATOM      1  C   LIG    1       24.965 -27.340   5.904  0.00  0.00    -0.032 A 
ATOM      2  C   LIG    1       23.899 -26.484   5.593  0.00  0.00    +0.006 A 
ATOM      3  C   LIG    1       23.961 -25.126   5.913  0.00  0.00    +0.013 A 
ATOM      4  C   LIG    1       25.102 -24.593   6.529  0.00  0.00    +0.037 A 
ATOM      5  C   LIG    1       26.159 -25.441   6.868  0.00  0.00    +0.013 A 
ATOM      6  C   LIG    1       26.092 -26.806   6.550  0.00  0.00    +0.006 A 
ENDROOT
BRANCH   4   7
ATOM      7  C   LIG    1       25.196 -23.133   6.828  0.00  0.00    +0.244 C 
ATOM      8  N   LIG    1       24.668 -22.313   5.852  0.00  0.00    -0.309 N 
ATOM      9  H   LIG    1       24.479 -22.717   4.946  0.00  0.00    +0.149 HD
ATOM     10  O   LIG    1       25.723 -22.732   7.855  0.00  0.00    -0.270 OA
BRANCH   8  11
ATOM     11  C   LIG    1       24.667 -20.862   5.933  0.00  0.00    +0.067 C 
ATOM     12  C   LIG    1       23.238 -20.387   6.181  0.00  0.00    +0.027 C 
ATOM     13  C   LIG    1       25.223 -20.253   4.650  0.00  0.00    +0.027 C 
ENDBRANCH   8  11
ENDBRANCH   4   7
BRANCH   1  14
ATOM     14  C   LIG    1       24.886 -28.812   5.550  0.00  0.00    +0.133 C 
BRANCH  14  15
ATOM     15  N   LIG    1       23.492 -29.271   5.393  0.00  0.00    -0.253 NA
ATOM     16  H   LIG    1       22.910 -28.708   6.021  0.00  0.00    +0.141 HD
BRANCH  15  18
ATOM     17  C   LIG    1       24.526 -31.024   6.652  0.00  0.00    +0.120 C 
ATOM     18  N   LIG    1       23.414 -30.688   5.757  0.00  0.00    -0.259 NA
ATOM     19  H   LIG    1       22.544 -30.878   6.264  0.00  0.00    +0.140 HD
ENDBRANCH  15  18
ENDBRANCH  14  15
ENDBRANCH   1  14
TORSDOF 5
ENDMDL
MODEL 9
REMARK VINA RESULT:      -7.2      1.466      1.998
REMARK  Name = *****
REMARK                            x       y       z     vdW  Elec       q    Type
REMARK                         _______ _______ _______ _____ _____    ______ ____
ROOT
ATOM      1  C   LIG    1       28.600 -20.686   7.437  0.00  0.00    -0.032 A 
ATOM      2  C   LIG    1       28.030 -20.248   6.233  0.00  0.00    +0.006 A 
ATOM      3  C   LIG    1       26.646 -20.276   6.051  0.00  0.00    +0.013 A 
ATOM      4  C   LIG    1       25.803 -20.720   7.079  0.00  0.00    +0.037 A 
ATOM      5  C   LIG    1       26.361 -21.183   8.274  0.00  0.00    +0.013 A 
ATOM      6  C   LIG    1       27.753 -21.159   8.452  0.00  0.00    +0.006 A 
ENDROOT
BRANCH   4   7
ATOM      7  C   LIG    1       24.320 -20.704   6.910  0.00  0.00    +0.244 C 
ATOM      8  N   LIG    1       23.877 -20.040   5.784  0.00  0.00    -0.309 N 
ATOM      9  H   LIG    1       24.531 -19.439   5.303  0.00  0.00    +0.149 HD
ATOM     10  O   LIG    1       23.585 -21.230   7.734  0.00  0.00    -0.270 OA
BRANCH   8  11
ATOM     11  C   LIG    1       22.475 -19.894   5.434  0.00  0.00    +0.067 C 
ATOM     12  C   LIG    1       21.980 -21.207   4.835  0.00  0.00    +0.027 C 
ATOM     13  C   LIG    1       22.286 -18.746   4.448  0.00  0.00    +0.027 C 
ENDBRANCH   8  11
ENDBRANCH   4   7
BRANCH   1  14
ATOM     14  C   LIG    1       30.105 -20.649   7.623  0.00  0.00    +0.133 C 
BRANCH  14  15
ATOM     15  N   LIG    1       30.485 -20.323   9.012  0.00  0.00    -0.253 NA
ATOM     16  H   LIG    1       29.819 -19.624   9.356  0.00  0.00    +0.141 HD
BRANCH  15  18
ATOM     17  C   LIG    1       31.787 -18.316   8.990  0.00  0.00    +0.120 C 
ATOM     18  N   LIG    1       31.845 -19.780   9.017  0.00  0.00    -0.259 NA
ATOM     19  H   LIG    1       32.333 -20.052   9.876  0.00  0.00    +0.140 HD
ENDBRANCH  15  18
ENDBRANCH  14  15
ENDBRANCH   1  14
TORSDOF 5
ENDMDL
