MODEL 1
REMARK VINA RESULT:      -7.9      0.000      0.000
REMARK  Name = *****
REMARK                            x       y       z     vdW  Elec       q    Type
REMARK                         _______ _______ _______ _____ _____    ______ ____
ROOT
ATOM      1  N   LIG    1       25.768 -21.423   5.789  0.00  0.00    -0.298 N 
ATOM      2  C   LIG    1       25.060 -22.619   6.099  0.00  0.00    +0.049 A 
ATOM      3  C   LIG    1       23.649 -22.642   6.170  0.00  0.00    +0.034 A 
ATOM      4  C   LIG    1       22.953 -23.823   6.484  0.00  0.00    +0.018 A 
ATOM      5  C   LIG    1       23.638 -25.012   6.709  0.00  0.00    +0.020 A 
ATOM      6  C   LIG    1       25.024 -25.029   6.604  0.00  0.00    +0.054 A 
ATOM      7  S   LIG    1       22.652 -21.193   5.911  0.00  0.00    -0.086 S 
ATOM      8  C   LIG    1       23.785 -20.175   4.990  0.00  0.00    +0.034 A 
ATOM      9  C   LIG    1       23.206 -19.166   4.197  0.00  0.00    +0.017 A 
ATOM     10  C   LIG    1       24.001 -18.287   3.473  0.00  0.00    +0.001 A 
ATOM     11  C   LIG    1       25.380 -18.416   3.539  0.00  0.00    +0.002 A 
ATOM     12  C   LIG    1       25.961 -19.427   4.321  0.00  0.00    +0.024 A 
ATOM     13  C   LIG    1       25.718 -23.852   6.289  0.00  0.00    +0.043 A 
ATOM     14  C   LIG    1       25.188 -20.337   5.071  0.00  0.00    +0.048 A 
ENDROOT
BRANCH   6  15
ATOM     15  C   LIG    1       25.742 -26.253   6.815  0.00  0.00    +0.099 C 
ATOM     16  N   LIG    1       26.313 -27.244   6.988  0.00  0.00    -0.191 NA
ENDBRANCH   6  15
BRANCH   1  17
ATOM     17  C   LIG    1       27.152 -21.267   6.327  0.00  0.00    +0.115 C 
BRANCH  17  19
ATOM     18  C   LIG    1       26.359 -20.563   8.671  0.00  0.00    +0.010 C 
ATOM     19  C   LIG    1       27.275 -20.239   7.479  0.00  0.00    +0.018 C 
BRANCH  19  20
ATOM     20  C   LIG    1       28.733 -20.188   8.018  0.00  0.00    +0.088 C 
BRANCH  20  21
ATOM     21  N   LIG    1       29.529 -19.002   7.654  0.00  0.00    -0.308 NA
ATOM     22  C   LIG    1       30.653 -19.399   6.796  0.00  0.00    +0.104 C 
ATOM     23  C   LIG    1       30.036 -18.297   8.833  0.00  0.00    +0.104 C 
ENDBRANCH  20  21
ENDBRANCH  19  20
ENDBRANCH  17  19
ENDBRANCH   1  17
TORSDOF 5
ENDMDL
MODEL 2
REMARK VINA RESULT:      -7.1      1.794      5.870
REMARK  Name = *****
REMARK                            x       y       z     vdW  Elec       q    Type
REMARK                         _______ _______ _______ _____ _____    ______ ____
ROOT
ATOM      1  N   LIG    1       25.965 -21.976   6.763  0.00  0.00    -0.298 N 
ATOM      2  C   LIG    1       27.195 -21.258   6.752  0.00  0.00    +0.049 A 
ATOM      3  C   LIG    1       27.454 -20.257   5.790  0.00  0.00    +0.034 A 
ATOM      4  C   LIG    1       28.672 -19.554   5.777  0.00  0.00    +0.018 A 
ATOM      5  C   LIG    1       29.650 -19.811   6.731  0.00  0.00    +0.020 A 
ATOM      6  C   LIG    1       29.407 -20.761   7.716  0.00  0.00    +0.054 A 
ATOM      7  S   LIG    1       26.294 -19.833   4.510  0.00  0.00    -0.086 S 
ATOM      8  C   LIG    1       24.781 -20.441   5.225  0.00  0.00    +0.034 A 
ATOM      9  C   LIG    1       23.592 -19.864   4.738  0.00  0.00    +0.017 A 
ATOM     10  C   LIG    1       22.354 -20.298   5.195  0.00  0.00    +0.001 A 
ATOM     11  C   LIG    1       22.302 -21.310   6.141  0.00  0.00    +0.002 A 
ATOM     12  C   LIG    1       23.486 -21.880   6.636  0.00  0.00    +0.024 A 
ATOM     13  C   LIG    1       28.190 -21.460   7.731  0.00  0.00    +0.043 A 
ATOM     14  C   LIG    1       24.760 -21.469   6.196  0.00  0.00    +0.048 A 
ENDROOT
BRANCH   6  15
ATOM     15  C   LIG    1       30.398 -21.023   8.719  0.00  0.00    +0.099 C 
ATOM     16  N   LIG    1       31.200 -21.243   9.523  0.00  0.00    -0.191 NA
ENDBRANCH   6  15
BRANCH   1  17
ATOM     17  C   LIG    1       25.969 -23.365   7.312  0.00  0.00    +0.115 C 
BRANCH  17  19
ATOM     18  C   LIG    1       25.146 -24.112   4.992  0.00  0.00    +0.010 C 
ATOM     19  C   LIG    1       25.107 -24.369   6.507  0.00  0.00    +0.018 C 
BRANCH  19  20
ATOM     20  C   LIG    1       25.599 -25.826   6.740  0.00  0.00    +0.088 C 
BRANCH  20  21
ATOM     21  N   LIG    1       25.224 -26.820   5.716  0.00  0.00    -0.308 NA
ATOM     22  C   LIG    1       24.511 -27.939   6.344  0.00  0.00    +0.104 C 
ATOM     23  C   LIG    1       26.390 -27.324   4.988  0.00  0.00    +0.104 C 
ENDBRANCH  20  21
ENDBRANCH  19  20
ENDBRANCH  17  19
ENDBRANCH   1  17
TORSDOF 5
ENDMDL
MODEL 3
REMARK VINA RESULT:      -6.7      1.720      5.444
REMARK  Name = *****
REMARK                            x       y       z     vdW  Elec       q    Type
REMARK                         _______ _______ _______ _____ _____    ______ ____
ROOT
ATOM      1  N   LIG    1       25.615 -20.888   6.854  0.00  0.00    -0.298 N 
ATOM      2  C   LIG    1       26.961 -20.446   6.710  0.00  0.00    +0.049 A 
ATOM      3  C   LIG    1       27.437 -19.922   5.487  0.00  0.00    +0.034 A 
ATOM      4  C   LIG    1       28.769 -19.492   5.346  0.00  0.00    +0.018 A 
ATOM      5  C   LIG    1       29.651 -19.550   6.419  0.00  0.00    +0.020 A 
ATOM      6  C   LIG    1       29.199 -20.022   7.646  0.00  0.00    +0.054 A 
ATOM      7  S   LIG    1       26.418 -19.798   4.035  0.00  0.00    -0.086 S 
ATOM      8  C   LIG    1       24.796 -19.836   4.768  0.00  0.00    +0.034 A 
ATOM      9  C   LIG    1       23.757 -19.280   3.998  0.00  0.00    +0.017 A 
ATOM     10  C   LIG    1       22.446 -19.298   4.457  0.00  0.00    +0.001 A 
ATOM     11  C   LIG    1       22.170 -19.873   5.688  0.00  0.00    +0.002 A 
ATOM     12  C   LIG    1       23.206 -20.420   6.463  0.00  0.00    +0.024 A 
ATOM     13  C   LIG    1       27.870 -20.447   7.788  0.00  0.00    +0.043 A 
ATOM     14  C   LIG    1       24.548 -20.421   6.032  0.00  0.00    +0.048 A 
ENDROOT
BRANCH   6  15
ATOM     15  C   LIG    1       30.092 -20.069   8.768  0.00  0.00    +0.099 C 
ATOM     16  N   LIG    1       30.814 -20.097   9.671  0.00  0.00    -0.191 NA
ENDBRANCH   6  15
BRANCH   1  17
ATOM     17  C   LIG    1       25.332 -21.962   7.853  0.00  0.00    +0.115 C 
BRANCH  17  19
ATOM     18  C   LIG    1       23.341 -23.311   6.940  0.00  0.00    +0.010 C 
ATOM     19  C   LIG    1       24.851 -23.296   7.232  0.00  0.00    +0.018 C 
BRANCH  19  20
ATOM     20  C   LIG    1       25.582 -23.573   5.887  0.00  0.00    +0.088 C 
BRANCH  20  21
ATOM     21  N   LIG    1       25.959 -24.973   5.617  0.00  0.00    -0.308 NA
ATOM     22  C   LIG    1       25.069 -25.541   4.597  0.00  0.00    +0.104 C 
ATOM     23  C   LIG    1       25.910 -25.797   6.826  0.00  0.00    +0.104 C 
ENDBRANCH  20  21
ENDBRANCH  19  20
ENDBRANCH  17  19
ENDBRANCH   1  17
TORSDOF 5
ENDMDL
MODEL 4
REMARK VINA RESULT:      -5.4      1.524      2.284
REMARK  Name = *****
REMARK                            x       y       z     vdW  Elec       q    Type
REMARK                         _______ _______ _______ _____ _____    ______ ____
ROOT
ATOM      1  N   LIG    1       25.340 -21.362   5.403  0.00  0.00    -0.298 N 
ATOM      2  C   LIG    1       24.955 -22.684   5.768  0.00  0.00    +0.049 A 
ATOM      3  C   LIG    1       23.651 -22.968   6.233  0.00  0.00    +0.034 A 
ATOM      4  C   LIG    1       23.276 -24.273   6.599  0.00  0.00    +0.018 A 
ATOM      5  C   LIG    1       24.175 -25.328   6.490  0.00  0.00    +0.020 A 
ATOM      6  C   LIG    1       25.451 -25.085   5.995  0.00  0.00    +0.054 A 
ATOM      7  S   LIG    1       22.406 -21.713   6.427  0.00  0.00    -0.086 S 
ATOM      8  C   LIG    1       23.039 -20.453   5.340  0.00  0.00    +0.034 A 
ATOM      9  C   LIG    1       22.098 -19.523   4.859  0.00  0.00    +0.017 A 
ATOM     10  C   LIG    1       22.492 -18.473   4.041  0.00  0.00    +0.001 A 
ATOM     11  C   LIG    1       23.831 -18.350   3.699  0.00  0.00    +0.002 A 
ATOM     12  C   LIG    1       24.770 -19.282   4.169  0.00  0.00    +0.024 A 
ATOM     13  C   LIG    1       25.826 -23.784   5.627  0.00  0.00    +0.043 A 
ATOM     14  C   LIG    1       24.409 -20.360   5.002  0.00  0.00    +0.048 A 
ENDROOT
BRANCH   6  15
ATOM     15  C   LIG    1       26.384 -26.167   5.858  0.00  0.00    +0.099 C 
ATOM     16  N   LIG    1       27.143 -27.033   5.753  0.00  0.00    -0.191 NA
ENDBRANCH   6  15
BRANCH   1  17
ATOM     17  C   LIG    1       26.780 -20.988   5.542  0.00  0.00    +0.115 C 
BRANCH  17  19
ATOM     18  C   LIG    1       28.923 -21.218   6.946  0.00  0.00    +0.010 C 
ATOM     19  C   LIG    1       27.387 -21.301   6.931  0.00  0.00    +0.018 C 
BRANCH  19  20
ATOM     20  C   LIG    1       26.861 -20.301   8.000  0.00  0.00    +0.088 C 
BRANCH  20  21
ATOM     21  N   LIG    1       25.917 -20.838   8.998  0.00  0.00    -0.308 NA
ATOM     22  C   LIG    1       26.005 -22.304   9.028  0.00  0.00    +0.104 C 
ATOM     23  C   LIG    1       24.538 -20.433   8.721  0.00  0.00    +0.104 C 
ENDBRANCH  20  21
ENDBRANCH  19  20
ENDBRANCH  17  19
ENDBRANCH   1  17
TORSDOF 5
ENDMDL
MODEL 5
REMARK VINA RESULT:      -5.4      8.926     11.650
REMARK  Name = *****
REMARK                            x       y       z     vdW  Elec       q    Type
REMARK                         _______ _______ _______ _____ _____    ______ ____
ROOT
ATOM      1  N   LIG    1       23.034 -28.115  13.322  0.00  0.00    -0.298 N 
ATOM      2  C   LIG    1       24.223 -27.335  13.242  0.00  0.00    +0.049 A 
ATOM      3  C   LIG    1       25.366 -27.804  12.557  0.00  0.00    +0.034 A 
ATOM      4  C   LIG    1       26.541 -27.034  12.486  0.00  0.00    +0.018 A 
ATOM      5  C   LIG    1       26.601 -25.774  13.070  0.00  0.00    +0.020 A 
ATOM      6  C   LIG    1       25.477 -25.268  13.713  0.00  0.00    +0.054 A 
ATOM      7  S   LIG    1       25.428 -29.399  11.773  0.00  0.00    -0.086 S 
ATOM      8  C   LIG    1       23.691 -29.729  11.565  0.00  0.00    +0.034 A 
ATOM      9  C   LIG    1       23.355 -30.656  10.559  0.00  0.00    +0.017 A 
ATOM     10  C   LIG    1       22.032 -31.020  10.343  0.00  0.00    +0.001 A 
ATOM     11  C   LIG    1       21.041 -30.456  11.132  0.00  0.00    +0.002 A 
ATOM     12  C   LIG    1       21.372 -29.524  12.128  0.00  0.00    +0.024 A 
ATOM     13  C   LIG    1       24.304 -26.035  13.782  0.00  0.00    +0.043 A 
ATOM     14  C   LIG    1       22.702 -29.131  12.379  0.00  0.00    +0.048 A 
ENDROOT
BRANCH   6  15
ATOM     15  C   LIG    1       25.517 -23.962  14.303  0.00  0.00    +0.099 C 
ATOM     16  N   LIG    1       25.553 -22.903  14.770  0.00  0.00    -0.191 NA
ENDBRANCH   6  15
BRANCH   1  17
ATOM     17  C   LIG    1       22.146 -27.920  14.507  0.00  0.00    +0.115 C 
BRANCH  17  19
ATOM     18  C   LIG    1       20.736 -26.460  12.926  0.00  0.00    +0.010 C 
ATOM     19  C   LIG    1       21.167 -26.727  14.378  0.00  0.00    +0.018 C 
BRANCH  19  20
ATOM     20  C   LIG    1       19.873 -26.985  15.202  0.00  0.00    +0.088 C 
BRANCH  20  21
ATOM     21  N   LIG    1       18.715 -27.520  14.462  0.00  0.00    -0.308 NA
ATOM     22  C   LIG    1       17.512 -26.745  14.790  0.00  0.00    +0.104 C 
ATOM     23  C   LIG    1       18.483 -28.936  14.753  0.00  0.00    +0.104 C 
ENDBRANCH  20  21
ENDBRANCH  19  20
ENDBRANCH  17  19
ENDBRANCH   1  17
TORSDOF 5
ENDMDL
MODEL 6
REMARK VINA RESULT:      -5.2      8.755     10.894
REMARK  Name = *****
REMARK                            x       y       z     vdW  Elec       q    Type
REMARK                         _______ _______ _______ _____ _____    ______ ____
ROOT
ATOM      1  N   LIG    1       25.199 -28.827  12.718  0.00  0.00    -0.298 N 
ATOM      2  C   LIG    1       26.314 -28.423  13.506  0.00  0.00    +0.049 A 
ATOM      3  C   LIG    1       26.392 -27.125  14.060  0.00  0.00    +0.034 A 
ATOM      4  C   LIG    1       27.497 -26.727  14.833  0.00  0.00    +0.018 A 
ATOM      5  C   LIG    1       28.538 -27.612  15.093  0.00  0.00    +0.020 A 
ATOM      6  C   LIG    1       28.469 -28.908  14.596  0.00  0.00    +0.054 A 
ATOM      7  S   LIG    1       25.135 -25.894  13.801  0.00  0.00    -0.086 S 
ATOM      8  C   LIG    1       23.752 -26.925  13.361  0.00  0.00    +0.034 A 
ATOM      9  C   LIG    1       22.476 -26.362  13.555  0.00  0.00    +0.017 A 
ATOM     10  C   LIG    1       21.330 -27.064  13.204  0.00  0.00    +0.001 A 
ATOM     11  C   LIG    1       21.457 -28.332  12.657  0.00  0.00    +0.002 A 
ATOM     12  C   LIG    1       22.727 -28.899  12.471  0.00  0.00    +0.024 A 
ATOM     13  C   LIG    1       27.364 -29.307  13.828  0.00  0.00    +0.043 A 
ATOM     14  C   LIG    1       23.913 -28.219  12.814  0.00  0.00    +0.048 A 
ENDROOT
BRANCH   6  15
ATOM     15  C   LIG    1       29.525 -29.838  14.872  0.00  0.00    +0.099 C 
ATOM     16  N   LIG    1       30.375 -30.593  15.087  0.00  0.00    -0.191 NA
ENDBRANCH   6  15
BRANCH   1  17
ATOM     17  C   LIG    1       25.420 -29.874  11.675  0.00  0.00    +0.115 C 
BRANCH  17  19
ATOM     18  C   LIG    1       26.922 -28.916   9.819  0.00  0.00    +0.010 C 
ATOM     19  C   LIG    1       25.498 -29.324  10.229  0.00  0.00    +0.018 C 
BRANCH  19  20
ATOM     20  C   LIG    1       25.012 -30.393   9.208  0.00  0.00    +0.088 C 
BRANCH  20  21
ATOM     21  N   LIG    1       25.441 -30.209   7.809  0.00  0.00    -0.308 NA
ATOM     22  C   LIG    1       24.382 -29.535   7.047  0.00  0.00    +0.104 C 
ATOM     23  C   LIG    1       25.776 -31.481   7.166  0.00  0.00    +0.104 C 
ENDBRANCH  20  21
ENDBRANCH  19  20
ENDBRANCH  17  19
ENDBRANCH   1  17
TORSDOF 5
ENDMDL
MODEL 7
REMARK VINA RESULT:      -5.1      2.159      6.273
REMARK  Name = *****
REMARK                            x       y       z     vdW  Elec       q    Type
REMARK                         _______ _______ _______ _____ _____    ______ ____
ROOT
ATOM      1  N   LIG    1       25.442 -22.232   5.532  0.00  0.00    -0.298 N 
ATOM      2  C   LIG    1       26.486 -21.471   6.131  0.00  0.00    +0.049 A 
ATOM      3  C   LIG    1       27.027 -21.825   7.387  0.00  0.00    +0.034 A 
ATOM      4  C   LIG    1       28.054 -21.068   7.979  0.00  0.00    +0.018 A 
ATOM      5  C   LIG    1       28.583 -19.958   7.330  0.00  0.00    +0.020 A 
ATOM      6  C   LIG    1       28.100 -19.611   6.074  0.00  0.00    +0.054 A 
ATOM      7  S   LIG    1       26.439 -23.215   8.327  0.00  0.00    -0.086 S 
ATOM      8  C   LIG    1       25.670 -24.178   7.043  0.00  0.00    +0.034 A 
ATOM      9  C   LIG    1       25.523 -25.554   7.306  0.00  0.00    +0.017 A 
ATOM     10  C   LIG    1       24.895 -26.388   6.391  0.00  0.00    +0.001 A 
ATOM     11  C   LIG    1       24.414 -25.850   5.207  0.00  0.00    +0.002 A 
ATOM     12  C   LIG    1       24.569 -24.481   4.937  0.00  0.00    +0.024 A 
ATOM     13  C   LIG    1       27.077 -20.368   5.481  0.00  0.00    +0.043 A 
ATOM     14  C   LIG    1       25.198 -23.601   5.841  0.00  0.00    +0.048 A 
ENDROOT
BRANCH   6  15
ATOM     15  C   LIG    1       28.649 -18.480   5.383  0.00  0.00    +0.099 C 
ATOM     16  N   LIG    1       29.099 -17.567   4.834  0.00  0.00    -0.191 NA
ENDBRANCH   6  15
BRANCH   1  17
ATOM     17  C   LIG    1       24.503 -21.528   4.607  0.00  0.00    +0.115 C 
BRANCH  17  19
ATOM     18  C   LIG    1       23.246 -20.749   6.713  0.00  0.00    +0.010 C 
ATOM     19  C   LIG    1       23.134 -21.175   5.239  0.00  0.00    +0.018 C 
BRANCH  19  20
ATOM     20  C   LIG    1       22.461 -20.001   4.471  0.00  0.00    +0.088 C 
BRANCH  20  21
ATOM     21  N   LIG    1       23.111 -18.682   4.582  0.00  0.00    -0.308 NA
ATOM     22  C   LIG    1       22.104 -17.619   4.470  0.00  0.00    +0.104 C 
ATOM     23  C   LIG    1       24.144 -18.492   3.562  0.00  0.00    +0.104 C 
ENDBRANCH  20  21
ENDBRANCH  19  20
ENDBRANCH  17  19
ENDBRANCH   1  17
TORSDOF 5
ENDMDL
MODEL 8
REMARK VINA RESULT:      -5.1      2.086      4.927
REMARK  Name = *****
REMARK                            x       y       z     vdW  Elec       q    Type
REMARK                         _______ _______ _______ _____ _____    ______ ____
ROOT
ATOM      1  N   LIG    1       25.498 -20.884   5.185  0.00  0.00    -0.298 N 
ATOM      2  C   LIG    1       26.717 -20.163   5.340  0.00  0.00    +0.049 A 
ATOM      3  C   LIG    1       26.961 -18.969   4.626  0.00  0.00    +0.034 A 
ATOM      4  C   LIG    1       28.168 -18.263   4.777  0.00  0.00    +0.018 A 
ATOM      5  C   LIG    1       29.149 -18.712   5.654  0.00  0.00    +0.020 A 
ATOM      6  C   LIG    1       28.918 -19.861   6.402  0.00  0.00    +0.054 A 
ATOM      7  S   LIG    1       25.797 -18.288   3.468  0.00  0.00    -0.086 S 
ATOM      8  C   LIG    1       24.292 -19.063   4.021  0.00  0.00    +0.034 A 
ATOM      9  C   LIG    1       23.096 -18.409   3.669  0.00  0.00    +0.017 A 
ATOM     10  C   LIG    1       21.864 -18.952   4.011  0.00  0.00    +0.001 A 
ATOM     11  C   LIG    1       21.825 -20.150   4.708  0.00  0.00    +0.002 A 
ATOM     12  C   LIG    1       23.017 -20.799   5.069  0.00  0.00    +0.024 A 
ATOM     13  C   LIG    1       27.713 -20.564   6.254  0.00  0.00    +0.043 A 
ATOM     14  C   LIG    1       24.286 -20.281   4.739  0.00  0.00    +0.048 A 
ENDROOT
BRANCH   6  15
ATOM     15  C   LIG    1       29.912 -20.325   7.326  0.00  0.00    +0.099 C 
ATOM     16  N   LIG    1       30.718 -20.706   8.064  0.00  0.00    -0.191 NA
ENDBRANCH   6  15
BRANCH   1  17
ATOM     17  C   LIG    1       25.522 -22.360   5.410  0.00  0.00    +0.115 C 
BRANCH  17  19
ATOM     18  C   LIG    1       24.334 -24.316   6.586  0.00  0.00    +0.010 C 
ATOM     19  C   LIG    1       24.716 -22.828   6.647  0.00  0.00    +0.018 C 
BRANCH  19  20
ATOM     20  C   LIG    1       25.537 -22.616   7.951  0.00  0.00    +0.088 C 
BRANCH  20  21
ATOM     21  N   LIG    1       25.115 -21.502   8.822  0.00  0.00    -0.308 NA
ATOM     22  C   LIG    1       23.889 -20.892   8.292  0.00  0.00    +0.104 C 
ATOM     23  C   LIG    1       26.157 -20.482   8.950  0.00  0.00    +0.104 C 
ENDBRANCH  20  21
ENDBRANCH  19  20
ENDBRANCH  17  19
ENDBRANCH   1  17
TORSDOF 5
ENDMDL
MODEL 9
REMARK VINA RESULT:      -5.0      6.065     10.221
REMARK  Name = *****
REMARK                            x       y       z     vdW  Elec       q    Type
REMARK                         _______ _______ _______ _____ _____    ______ ____
ROOT
ATOM      1  N   LIG    1       24.446 -30.307   8.627  0.00  0.00    -0.298 N 
ATOM      2  C   LIG    1       24.831 -29.538   7.492  0.00  0.00    +0.049 A 
ATOM      3  C   LIG    1       24.941 -30.123   6.210  0.00  0.00    +0.034 A 
ATOM      4  C   LIG    1       25.328 -29.363   5.092  0.00  0.00    +0.018 A 
ATOM      5  C   LIG    1       25.591 -28.003   5.215  0.00  0.00    +0.020 A 
ATOM      6  C   LIG    1       25.449 -27.392   6.455  0.00  0.00    +0.054 A 
ATOM      7  S   LIG    1       24.641 -31.851   5.915  0.00  0.00    -0.086 S 
ATOM      8  C   LIG    1       23.643 -32.257   7.332  0.00  0.00    +0.034 A 
ATOM      9  C   LIG    1       22.820 -33.392   7.202  0.00  0.00    +0.017 A 
ATOM     10  C   LIG    1       22.034 -33.824   8.263  0.00  0.00    +0.001 A 
ATOM     11  C   LIG    1       22.070 -33.121   9.458  0.00  0.00    +0.002 A 
ATOM     12  C   LIG    1       22.882 -31.983   9.587  0.00  0.00    +0.024 A 
ATOM     13  C   LIG    1       25.060 -28.149   7.570  0.00  0.00    +0.043 A 
ATOM     14  C   LIG    1       23.694 -31.514   8.534  0.00  0.00    +0.048 A 
ENDROOT
BRANCH   6  15
ATOM     15  C   LIG    1       25.697 -25.986   6.593  0.00  0.00    +0.099 C 
ATOM     16  N   LIG    1       25.897 -24.851   6.694  0.00  0.00    -0.191 NA
ENDBRANCH   6  15
BRANCH   1  17
ATOM     17  C   LIG    1       24.939 -29.873   9.969  0.00  0.00    +0.115 C 
BRANCH  17  19
ATOM     18  C   LIG    1       26.920 -31.363   9.279  0.00  0.00    +0.010 C 
ATOM     19  C   LIG    1       26.366 -30.367  10.312  0.00  0.00    +0.018 C 
BRANCH  19  20
ATOM     20  C   LIG    1       27.361 -29.173  10.379  0.00  0.00    +0.088 C 
BRANCH  20  21
ATOM     21  N   LIG    1       27.634 -28.617  11.718  0.00  0.00    -0.308 NA
ATOM     22  C   LIG    1       27.339 -29.625  12.745  0.00  0.00    +0.104 C 
ATOM     23  C   LIG    1       26.855 -27.406  11.979  0.00  0.00    +0.104 C 
ENDBRANCH  20  21
ENDBRANCH  19  20
ENDBRANCH  17  19
ENDBRANCH   1  17
TORSDOF 5
ENDMDL
