MODEL 1
REMARK VINA RESULT:      -6.9      0.000      0.000
REMARK  Name = *****
REMARK                            x       y       z     vdW  Elec       q    Type
REMARK                         _______ _______ _______ _____ _____    ______ ____
ROOT
ATOM      1  C   LIG    1       24.342 -29.669  11.380  0.00  0.00    -0.011 A 
ATOM      2  C   LIG    1       24.968 -28.524  11.928  0.00  0.00    -0.012 A 
ATOM      3  C   LIG    1       24.252 -27.737  12.880  0.00  0.00    -0.009 A 
ATOM      4  C   LIG    1       24.972 -26.721  13.559  0.00  0.00    +0.021 A 
ATOM      5  C   LIG    1       26.309 -26.404  13.284  0.00  0.00    +0.055 A 
ATOM      6  C   LIG    1       26.937 -27.075  12.240  0.00  0.00    +0.013 A 
ATOM      7  C   LIG    1       22.860 -28.006  13.129  0.00  0.00    -0.007 A 
ATOM      8  C   LIG    1       22.248 -29.160  12.599  0.00  0.00    +0.002 A 
ATOM      9  C   LIG    1       20.886 -29.441  12.900  0.00  0.00    +0.050 A 
ATOM     10  C   LIG    1       20.109 -28.553  13.643  0.00  0.00    +0.040 A 
ATOM     11  C   LIG    1       20.681 -27.388  14.107  0.00  0.00    +0.043 A 
ATOM     12 CL   LIG    1       19.723 -26.241  14.961  0.00  0.00    -0.084 Cl
ATOM     13 CL   LIG    1       20.091 -30.884  12.360  0.00  0.00    -0.083 Cl
ATOM     14  C   LIG    1       22.031 -27.122  13.876  0.00  0.00    +0.029 A 
ATOM     15  C   LIG    1       26.280 -28.115  11.586  0.00  0.00    +0.009 A 
ATOM     16  C   LIG    1       23.023 -29.989  11.763  0.00  0.00    +0.016 A 
ENDROOT
BRANCH   5  17
ATOM     17  C   LIG    1       27.073 -25.393  14.102  0.00  0.00    +0.417 C 
ATOM     18  F   LIG    1       27.638 -25.933  15.215  0.00  0.00    -0.166 F 
ATOM     19  F   LIG    1       26.273 -24.379  14.541  0.00  0.00    -0.166 F 
ATOM     20  F   LIG    1       28.086 -24.792  13.417  0.00  0.00    -0.166 F 
ENDBRANCH   5  17
BRANCH   1  21
ATOM     21  C   LIG    1       25.016 -30.608  10.383  0.00  0.00    +0.146 C 
BRANCH  21  22
ATOM     22  O   LIG    1       25.244 -31.867  11.027  0.00  0.00    -0.387 OA
ATOM     23  H   LIG    1       25.781 -31.692  11.820  0.00  0.00    +0.210 HD
ENDBRANCH  21  22
BRANCH  21  24
ATOM     24  C   LIG    1       24.178 -30.842   9.106  0.00  0.00    +0.051 C 
BRANCH  24  25
ATOM     25  C   LIG    1       24.335 -29.682   8.094  0.00  0.00    +0.087 C 
BRANCH  25  26
ATOM     26  N   LIG    1       23.860 -29.950   6.720  0.00  0.00    -0.302 NA
BRANCH  26  27
ATOM     27  C   LIG    1       24.263 -28.878   5.781  0.00  0.00    +0.084 C 
BRANCH  27  28
ATOM     28  C   LIG    1       24.668 -27.525   6.407  0.00  0.00    +0.015 C 
BRANCH  28  30
ATOM     29  C   LIG    1       23.950 -25.082   6.332  0.00  0.00    +0.004 C 
ATOM     30  C   LIG    1       24.301 -26.326   5.531  0.00  0.00    -0.002 C 
ENDBRANCH  28  30
ENDBRANCH  27  28
ENDBRANCH  26  27
BRANCH  26  31
ATOM     31  C   LIG    1       24.279 -31.275   6.193  0.00  0.00    +0.084 C 
BRANCH  31  32
ATOM     32  C   LIG    1       25.500 -31.280   5.253  0.00  0.00    +0.015 C 
BRANCH  32  33
ATOM     33  C   LIG    1       26.531 -32.351   5.644  0.00  0.00    -0.002 C 
ATOM     34  C   LIG    1       26.837 -32.331   7.139  0.00  0.00    +0.004 C 
ENDBRANCH  32  33
ENDBRANCH  31  32
ENDBRANCH  26  31
ENDBRANCH  25  26
ENDBRANCH  24  25
ENDBRANCH  21  24
ENDBRANCH   1  21
TORSDOF 12
ENDMDL
MODEL 2
REMARK VINA RESULT:      -6.8      3.335      4.914
REMARK  Name = *****
REMARK                            x       y       z     vdW  Elec       q    Type
REMARK                         _______ _______ _______ _____ _____    ______ ____
ROOT
ATOM      1  C   LIG    1       23.479 -29.740  11.916  0.00  0.00    -0.011 A 
ATOM      2  C   LIG    1       22.435 -29.039  12.564  0.00  0.00    -0.012 A 
ATOM      3  C   LIG    1       22.697 -27.732  13.078  0.00  0.00    -0.009 A 
ATOM      4  C   LIG    1       21.588 -26.978  13.537  0.00  0.00    +0.021 A 
ATOM      5  C   LIG    1       20.279 -27.477  13.586  0.00  0.00    +0.055 A 
ATOM      6  C   LIG    1       20.074 -28.806  13.233  0.00  0.00    +0.013 A 
ATOM      7  C   LIG    1       24.045 -27.228  13.094  0.00  0.00    -0.007 A 
ATOM      8  C   LIG    1       25.077 -27.920  12.427  0.00  0.00    +0.002 A 
ATOM      9  C   LIG    1       26.393 -27.379  12.407  0.00  0.00    +0.050 A 
ATOM     10  C   LIG    1       26.711 -26.215  13.105  0.00  0.00    +0.040 A 
ATOM     11  C   LIG    1       25.722 -25.570  13.817  0.00  0.00    +0.043 A 
ATOM     12 CL   LIG    1       26.107 -24.174  14.748  0.00  0.00    -0.084 Cl
ATOM     13 CL   LIG    1       27.693 -28.124  11.533  0.00  0.00    -0.083 Cl
ATOM     14  C   LIG    1       24.412 -26.048  13.801  0.00  0.00    +0.029 A 
ATOM     15  C   LIG    1       21.130 -29.563  12.728  0.00  0.00    +0.009 A 
ATOM     16  C   LIG    1       24.756 -29.149  11.818  0.00  0.00    +0.016 A 
ENDROOT
BRANCH   5  17
ATOM     17  C   LIG    1       19.110 -26.608  13.977  0.00  0.00    +0.417 C 
ATOM     18  F   LIG    1       19.330 -25.912  15.125  0.00  0.00    -0.166 F 
ATOM     19  F   LIG    1       17.978 -27.338  14.194  0.00  0.00    -0.166 F 
ATOM     20  F   LIG    1       18.776 -25.685  13.033  0.00  0.00    -0.166 F 
ENDBRANCH   5  17
BRANCH   1  21
ATOM     21  C   LIG    1       23.313 -31.125  11.296  0.00  0.00    +0.146 C 
BRANCH  21  22
ATOM     22  O   LIG    1       22.575 -30.991  10.076  0.00  0.00    -0.387 OA
ATOM     23  H   LIG    1       21.724 -30.575  10.297  0.00  0.00    +0.210 HD
ENDBRANCH  21  22
BRANCH  21  24
ATOM     24  C   LIG    1       24.658 -31.823  10.996  0.00  0.00    +0.051 C 
BRANCH  24  25
ATOM     25  C   LIG    1       24.605 -32.635   9.681  0.00  0.00    +0.087 C 
BRANCH  25  26
ATOM     26  N   LIG    1       25.158 -31.969   8.483  0.00  0.00    -0.302 NA
BRANCH  26  27
ATOM     27  C   LIG    1       26.085 -30.871   8.845  0.00  0.00    +0.084 C 
BRANCH  27  28
ATOM     28  C   LIG    1       25.628 -29.436   8.498  0.00  0.00    +0.015 C 
BRANCH  28  30
ATOM     29  C   LIG    1       24.519 -28.438   6.434  0.00  0.00    +0.004 C 
ATOM     30  C   LIG    1       24.390 -29.402   7.601  0.00  0.00    -0.002 C 
ENDBRANCH  28  30
ENDBRANCH  27  28
ENDBRANCH  26  27
BRANCH  26  31
ATOM     31  C   LIG    1       25.817 -32.902   7.533  0.00  0.00    +0.084 C 
BRANCH  31  32
ATOM     32  C   LIG    1       26.717 -32.259   6.459  0.00  0.00    +0.015 C 
BRANCH  32  33
ATOM     33  C   LIG    1       25.917 -31.796   5.230  0.00  0.00    -0.002 C 
ATOM     34  C   LIG    1       26.238 -32.628   3.992  0.00  0.00    +0.004 C 
ENDBRANCH  32  33
ENDBRANCH  31  32
ENDBRANCH  26  31
ENDBRANCH  25  26
ENDBRANCH  24  25
ENDBRANCH  21  24
ENDBRANCH   1  21
TORSDOF 12
ENDMDL
MODEL 3
REMARK VINA RESULT:      -6.7      8.326     11.951
REMARK  Name = *****
REMARK                            x       y       z     vdW  Elec       q    Type
REMARK                         _______ _______ _______ _____ _____    ______ ____
ROOT
ATOM      1  C   LIG    1       27.203 -20.306   5.672  0.00  0.00    -0.011 A 
ATOM      2  C   LIG    1       26.378 -21.408   5.997  0.00  0.00    -0.012 A 
ATOM      3  C   LIG    1       25.038 -21.435   5.503  0.00  0.00    -0.009 A 
ATOM      4  C   LIG    1       24.305 -22.637   5.671  0.00  0.00    +0.021 A 
ATOM      5  C   LIG    1       24.796 -23.754   6.361  0.00  0.00    +0.055 A 
ATOM      6  C   LIG    1       26.040 -23.647   6.973  0.00  0.00    +0.013 A 
ATOM      7  C   LIG    1       24.495 -20.274   4.848  0.00  0.00    -0.007 A 
ATOM      8  C   LIG    1       25.327 -19.188   4.508  0.00  0.00    +0.002 A 
ATOM      9  C   LIG    1       24.784 -18.072   3.812  0.00  0.00    +0.050 A 
ATOM     10  C   LIG    1       23.422 -17.985   3.529  0.00  0.00    +0.040 A 
ATOM     11  C   LIG    1       22.589 -19.011   3.920  0.00  0.00    +0.043 A 
ATOM     12 CL   LIG    1       20.894 -18.892   3.649  0.00  0.00    -0.084 Cl
ATOM     13 CL   LIG    1       25.761 -16.742   3.280  0.00  0.00    -0.083 Cl
ATOM     14  C   LIG    1       23.109 -20.143   4.549  0.00  0.00    +0.029 A 
ATOM     15  C   LIG    1       26.812 -22.501   6.786  0.00  0.00    +0.009 A 
ATOM     16  C   LIG    1       26.679 -19.250   4.898  0.00  0.00    +0.016 A 
ENDROOT
BRANCH   5  17
ATOM     17  C   LIG    1       24.030 -25.051   6.425  0.00  0.00    +0.417 C 
ATOM     18  F   LIG    1       23.800 -25.589   5.197  0.00  0.00    -0.166 F 
ATOM     19  F   LIG    1       22.804 -24.896   7.002  0.00  0.00    -0.166 F 
ATOM     20  F   LIG    1       24.658 -26.020   7.149  0.00  0.00    -0.166 F 
ENDBRANCH   5  17
BRANCH   1  21
ATOM     21  C   LIG    1       28.660 -20.181   6.110  0.00  0.00    +0.146 C 
BRANCH  21  22
ATOM     22  O   LIG    1       29.332 -19.295   5.206  0.00  0.00    -0.387 OA
ATOM     23  H   LIG    1       29.852 -18.672   5.744  0.00  0.00    +0.210 HD
ENDBRANCH  21  22
BRANCH  21  24
ATOM     24  C   LIG    1       28.819 -19.644   7.550  0.00  0.00    +0.051 C 
BRANCH  24  25
ATOM     25  C   LIG    1       29.668 -18.351   7.592  0.00  0.00    +0.087 C 
BRANCH  25  26
ATOM     26  N   LIG    1       31.126 -18.537   7.745  0.00  0.00    -0.302 NA
BRANCH  26  27
ATOM     27  C   LIG    1       31.679 -17.680   8.820  0.00  0.00    +0.084 C 
BRANCH  27  28
ATOM     28  C   LIG    1       30.662 -16.856   9.641  0.00  0.00    +0.015 C 
BRANCH  28  30
ATOM     29  C   LIG    1       31.614 -16.475  11.972  0.00  0.00    +0.004 C 
ATOM     30  C   LIG    1       30.625 -17.250  11.118  0.00  0.00    -0.002 C 
ENDBRANCH  28  30
ENDBRANCH  27  28
ENDBRANCH  26  27
BRANCH  26  31
ATOM     31  C   LIG    1       31.527 -19.951   7.962  0.00  0.00    +0.084 C 
BRANCH  31  32
ATOM     32  C   LIG    1       31.388 -20.486   9.401  0.00  0.00    +0.015 C 
BRANCH  32  33
ATOM     33  C   LIG    1       30.999 -21.973   9.433  0.00  0.00    -0.002 C 
ATOM     34  C   LIG    1       31.854 -22.808   8.484  0.00  0.00    +0.004 C 
ENDBRANCH  32  33
ENDBRANCH  31  32
ENDBRANCH  26  31
ENDBRANCH  25  26
ENDBRANCH  24  25
ENDBRANCH  21  24
ENDBRANCH   1  21
TORSDOF 12
ENDMDL
MODEL 4
REMARK VINA RESULT:      -6.7      3.199      5.336
REMARK  Name = *****
REMARK                            x       y       z     vdW  Elec       q    Type
REMARK                         _______ _______ _______ _____ _____    ______ ____
ROOT
ATOM      1  C   LIG    1       23.269 -29.944  11.615  0.00  0.00    -0.011 A 
ATOM      2  C   LIG    1       22.297 -29.220  12.344  0.00  0.00    -0.012 A 
ATOM      3  C   LIG    1       22.668 -27.975  12.939  0.00  0.00    -0.009 A 
ATOM      4  C   LIG    1       21.630 -27.179  13.485  0.00  0.00    +0.021 A 
ATOM      5  C   LIG    1       20.290 -27.586  13.543  0.00  0.00    +0.055 A 
ATOM      6  C   LIG    1       19.979 -28.869  13.105  0.00  0.00    +0.013 A 
ATOM      7  C   LIG    1       24.049 -27.570  12.946  0.00  0.00    -0.007 A 
ATOM      8  C   LIG    1       25.009 -28.283  12.200  0.00  0.00    +0.002 A 
ATOM      9  C   LIG    1       26.360 -27.837  12.174  0.00  0.00    +0.050 A 
ATOM     10  C   LIG    1       26.781 -26.752  12.941  0.00  0.00    +0.040 A 
ATOM     11  C   LIG    1       25.862 -26.092  13.728  0.00  0.00    +0.043 A 
ATOM     12 CL   LIG    1       26.373 -24.797  14.742  0.00  0.00    -0.084 Cl
ATOM     13 CL   LIG    1       27.577 -28.608  11.209  0.00  0.00    -0.083 Cl
ATOM     14  C   LIG    1       24.521 -26.473  13.721  0.00  0.00    +0.029 A 
ATOM     15  C   LIG    1       20.962 -29.659  12.513  0.00  0.00    +0.009 A 
ATOM     16  C   LIG    1       24.582 -29.440  11.516  0.00  0.00    +0.016 A 
ENDROOT
BRANCH   5  17
ATOM     17  C   LIG    1       19.198 -26.667  14.032  0.00  0.00    +0.417 C 
ATOM     18  F   LIG    1       19.545 -25.988  15.158  0.00  0.00    -0.166 F 
ATOM     19  F   LIG    1       18.057 -27.346  14.340  0.00  0.00    -0.166 F 
ATOM     20  F   LIG    1       18.830 -25.724  13.120  0.00  0.00    -0.166 F 
ENDBRANCH   5  17
BRANCH   1  21
ATOM     21  C   LIG    1       22.985 -31.266  10.905  0.00  0.00    +0.146 C 
BRANCH  21  22
ATOM     22  O   LIG    1       22.218 -30.993   9.726  0.00  0.00    -0.387 OA
ATOM     23  H   LIG    1       22.638 -30.238   9.277  0.00  0.00    +0.210 HD
ENDBRANCH  21  22
BRANCH  21  24
ATOM     24  C   LIG    1       24.267 -32.029  10.505  0.00  0.00    +0.051 C 
BRANCH  24  25
ATOM     25  C   LIG    1       24.403 -32.162   8.970  0.00  0.00    +0.087 C 
BRANCH  25  26
ATOM     26  N   LIG    1       25.191 -31.110   8.295  0.00  0.00    -0.302 NA
BRANCH  26  27
ATOM     27  C   LIG    1       26.357 -31.675   7.575  0.00  0.00    +0.084 C 
BRANCH  27  28
ATOM     28  C   LIG    1       26.190 -33.098   6.995  0.00  0.00    +0.015 C 
BRANCH  28  30
ATOM     29  C   LIG    1       25.985 -32.035   4.690  0.00  0.00    +0.004 C 
ATOM     30  C   LIG    1       26.547 -33.185   5.510  0.00  0.00    -0.002 C 
ENDBRANCH  28  30
ENDBRANCH  27  28
ENDBRANCH  26  27
BRANCH  26  31
ATOM     31  C   LIG    1       24.388 -30.260   7.378  0.00  0.00    +0.084 C 
BRANCH  31  32
ATOM     32  C   LIG    1       24.830 -28.789   7.249  0.00  0.00    +0.015 C 
BRANCH  32  33
ATOM     33  C   LIG    1       24.355 -28.153   5.932  0.00  0.00    -0.002 C 
ATOM     34  C   LIG    1       24.368 -26.629   5.996  0.00  0.00    +0.004 C 
ENDBRANCH  32  33
ENDBRANCH  31  32
ENDBRANCH  26  31
ENDBRANCH  25  26
ENDBRANCH  24  25
ENDBRANCH  21  24
ENDBRANCH   1  21
TORSDOF 12
ENDMDL
MODEL 5
REMARK VINA RESULT:      -6.6      3.995      7.471
REMARK  Name = *****
REMARK                            x       y       z     vdW  Elec       q    Type
REMARK                         _______ _______ _______ _____ _____    ______ ____
ROOT
ATOM      1  C   LIG    1       25.740 -29.799   9.886  0.00  0.00    -0.011 A 
ATOM      2  C   LIG    1       25.746 -29.035   8.695  0.00  0.00    -0.012 A 
ATOM      3  C   LIG    1       25.008 -29.510   7.568  0.00  0.00    -0.009 A 
ATOM      4  C   LIG    1       24.867 -28.632   6.464  0.00  0.00    +0.021 A 
ATOM      5  C   LIG    1       25.477 -27.372   6.394  0.00  0.00    +0.055 A 
ATOM      6  C   LIG    1       26.322 -26.998   7.433  0.00  0.00    +0.013 A 
ATOM      7  C   LIG    1       24.429 -30.828   7.597  0.00  0.00    -0.007 A 
ATOM      8  C   LIG    1       24.406 -31.574   8.792  0.00  0.00    +0.002 A 
ATOM      9  C   LIG    1       23.780 -32.852   8.817  0.00  0.00    +0.050 A 
ATOM     10  C   LIG    1       23.259 -33.427   7.659  0.00  0.00    +0.040 A 
ATOM     11  C   LIG    1       23.339 -32.733   6.471  0.00  0.00    +0.043 A 
ATOM     12 CL   LIG    1       22.771 -33.454   5.015  0.00  0.00    -0.084 Cl
ATOM     13 CL   LIG    1       23.633 -33.789  10.268  0.00  0.00    -0.083 Cl
ATOM     14  C   LIG    1       23.893 -31.453   6.436  0.00  0.00    +0.029 A 
ATOM     15  C   LIG    1       26.445 -27.811   8.558  0.00  0.00    +0.009 A 
ATOM     16  C   LIG    1       25.033 -31.019   9.925  0.00  0.00    +0.016 A 
ENDROOT
BRANCH   5  17
ATOM     17  C   LIG    1       25.214 -26.422   5.252  0.00  0.00    +0.417 C 
ATOM     18  F   LIG    1       25.752 -25.189   5.458  0.00  0.00    -0.166 F 
ATOM     19  F   LIG    1       23.881 -26.220   5.049  0.00  0.00    -0.166 F 
ATOM     20  F   LIG    1       25.707 -26.854   4.058  0.00  0.00    -0.166 F 
ENDBRANCH   5  17
BRANCH   1  21
ATOM     21  C   LIG    1       26.459 -29.379  11.166  0.00  0.00    +0.146 C 
BRANCH  21  22
ATOM     22  O   LIG    1       25.985 -28.083  11.549  0.00  0.00    -0.387 OA
ATOM     23  H   LIG    1       26.104 -27.493  10.784  0.00  0.00    +0.210 HD
ENDBRANCH  21  22
BRANCH  21  24
ATOM     24  C   LIG    1       26.239 -30.362  12.337  0.00  0.00    +0.051 C 
BRANCH  24  25
ATOM     25  C   LIG    1       25.570 -29.672  13.550  0.00  0.00    +0.087 C 
BRANCH  25  26
ATOM     26  N   LIG    1       24.120 -29.413  13.431  0.00  0.00    -0.302 NA
BRANCH  26  27
ATOM     27  C   LIG    1       23.317 -30.595  13.823  0.00  0.00    +0.084 C 
BRANCH  27  28
ATOM     28  C   LIG    1       22.343 -31.154  12.762  0.00  0.00    +0.015 C 
BRANCH  28  30
ATOM     29  C   LIG    1       21.209 -30.754  10.517  0.00  0.00    +0.004 C 
ATOM     30  C   LIG    1       22.058 -30.165  11.631  0.00  0.00    -0.002 C 
ENDBRANCH  28  30
ENDBRANCH  27  28
ENDBRANCH  26  27
BRANCH  26  31
ATOM     31  C   LIG    1       23.666 -28.215  14.182  0.00  0.00    +0.084 C 
BRANCH  31  32
ATOM     32  C   LIG    1       23.084 -27.061  13.341  0.00  0.00    +0.015 C 
BRANCH  32  33
ATOM     33  C   LIG    1       21.735 -26.566  13.889  0.00  0.00    -0.002 C 
ATOM     34  C   LIG    1       20.583 -26.879  12.939  0.00  0.00    +0.004 C 
ENDBRANCH  32  33
ENDBRANCH  31  32
ENDBRANCH  26  31
ENDBRANCH  25  26
ENDBRANCH  24  25
ENDBRANCH  21  24
ENDBRANCH   1  21
TORSDOF 12
ENDMDL
MODEL 6
REMARK VINA RESULT:      -6.6      0.601      2.674
REMARK  Name = *****
REMARK                            x       y       z     vdW  Elec       q    Type
REMARK                         _______ _______ _______ _____ _____    ______ ____
ROOT
ATOM      1  C   LIG    1       24.678 -29.684  11.476  0.00  0.00    -0.011 A 
ATOM      2  C   LIG    1       25.166 -28.477  12.027  0.00  0.00    -0.012 A 
ATOM      3  C   LIG    1       24.306 -27.703  12.864  0.00  0.00    -0.009 A 
ATOM      4  C   LIG    1       24.883 -26.611  13.561  0.00  0.00    +0.021 A 
ATOM      5  C   LIG    1       26.217 -26.212  13.406  0.00  0.00    +0.055 A 
ATOM      6  C   LIG    1       26.993 -26.879  12.464  0.00  0.00    +0.013 A 
ATOM      7  C   LIG    1       22.917 -28.060  12.984  0.00  0.00    -0.007 A 
ATOM      8  C   LIG    1       22.441 -29.276  12.453  0.00  0.00    +0.002 A 
ATOM      9  C   LIG    1       21.076 -29.639  12.629  0.00  0.00    +0.050 A 
ATOM     10  C   LIG    1       20.169 -28.779  13.246  0.00  0.00    +0.040 A 
ATOM     11  C   LIG    1       20.612 -27.558  13.708  0.00  0.00    +0.043 A 
ATOM     12 CL   LIG    1       19.497 -26.448  14.406  0.00  0.00    -0.084 Cl
ATOM     13 CL   LIG    1       20.439 -31.157  12.083  0.00  0.00    -0.083 Cl
ATOM     14  C   LIG    1       21.958 -27.207  13.601  0.00  0.00    +0.029 A 
ATOM     15  C   LIG    1       26.477 -27.989  11.799  0.00  0.00    +0.009 A 
ATOM     16  C   LIG    1       23.351 -30.081  11.739  0.00  0.00    +0.016 A 
ENDROOT
BRANCH   5  17
ATOM     17  C   LIG    1       26.823 -25.115  14.246  0.00  0.00    +0.417 C 
ATOM     18  F   LIG    1       27.148 -25.530  15.500  0.00  0.00    -0.166 F 
ATOM     19  F   LIG    1       25.972 -24.063  14.408  0.00  0.00    -0.166 F 
ATOM     20  F   LIG    1       27.963 -24.589  13.715  0.00  0.00    -0.166 F 
ENDBRANCH   5  17
BRANCH   1  21
ATOM     21  C   LIG    1       25.512 -30.614  10.598  0.00  0.00    +0.146 C 
BRANCH  21  22
ATOM     22  O   LIG    1       25.716 -31.844  11.303  0.00  0.00    -0.387 OA
ATOM     23  H   LIG    1       26.250 -31.639  12.092  0.00  0.00    +0.210 HD
ENDBRANCH  21  22
BRANCH  21  24
ATOM     24  C   LIG    1       24.850 -30.920   9.236  0.00  0.00    +0.051 C 
BRANCH  24  25
ATOM     25  C   LIG    1       24.747 -29.657   8.349  0.00  0.00    +0.087 C 
BRANCH  25  26
ATOM     26  N   LIG    1       24.822 -29.881   6.890  0.00  0.00    -0.302 NA
BRANCH  26  27
ATOM     27  C   LIG    1       24.056 -31.082   6.479  0.00  0.00    +0.084 C 
BRANCH  27  28
ATOM     28  C   LIG    1       24.842 -32.180   5.728  0.00  0.00    +0.015 C 
BRANCH  28  30
ATOM     29  C   LIG    1       27.221 -32.661   6.498  0.00  0.00    +0.004 C 
ATOM     30  C   LIG    1       26.328 -31.853   5.572  0.00  0.00    -0.002 C 
ENDBRANCH  28  30
ENDBRANCH  27  28
ENDBRANCH  26  27
BRANCH  26  31
ATOM     31  C   LIG    1       24.399 -28.706   6.085  0.00  0.00    +0.084 C 
BRANCH  31  32
ATOM     32  C   LIG    1       25.484 -28.057   5.203  0.00  0.00    +0.015 C 
BRANCH  32  33
ATOM     33  C   LIG    1       25.352 -26.526   5.152  0.00  0.00    -0.002 C 
ATOM     34  C   LIG    1       24.235 -26.018   6.059  0.00  0.00    +0.004 C 
ENDBRANCH  32  33
ENDBRANCH  31  32
ENDBRANCH  26  31
ENDBRANCH  25  26
ENDBRANCH  24  25
ENDBRANCH  21  24
ENDBRANCH   1  21
TORSDOF 12
ENDMDL
MODEL 7
REMARK VINA RESULT:      -6.5      6.296      9.301
REMARK  Name = *****
REMARK                            x       y       z     vdW  Elec       q    Type
REMARK                         _______ _______ _______ _____ _____    ______ ____
ROOT
ATOM      1  C   LIG    1       25.793 -22.451   6.604  0.00  0.00    -0.011 A 
ATOM      2  C   LIG    1       27.019 -21.776   6.810  0.00  0.00    -0.012 A 
ATOM      3  C   LIG    1       27.187 -20.468   6.262  0.00  0.00    -0.009 A 
ATOM      4  C   LIG    1       28.339 -19.740   6.653  0.00  0.00    +0.021 A 
ATOM      5  C   LIG    1       29.346 -20.265   7.474  0.00  0.00    +0.055 A 
ATOM      6  C   LIG    1       29.241 -21.596   7.864  0.00  0.00    +0.013 A 
ATOM      7  C   LIG    1       26.194 -19.937   5.366  0.00  0.00    -0.007 A 
ATOM      8  C   LIG    1       24.965 -20.602   5.182  0.00  0.00    +0.002 A 
ATOM      9  C   LIG    1       23.972 -20.035   4.335  0.00  0.00    +0.050 A 
ATOM     10  C   LIG    1       24.217 -18.870   3.609  0.00  0.00    +0.040 A 
ATOM     11  C   LIG    1       25.442 -18.250   3.730  0.00  0.00    +0.043 A 
ATOM     12 CL   LIG    1       25.795 -16.853   2.787  0.00  0.00    -0.084 Cl
ATOM     13 CL   LIG    1       22.405 -20.747   4.130  0.00  0.00    -0.083 Cl
ATOM     14  C   LIG    1       26.407 -18.755   4.601  0.00  0.00    +0.029 A 
ATOM     15  C   LIG    1       28.099 -22.327   7.543  0.00  0.00    +0.009 A 
ATOM     16  C   LIG    1       24.780 -21.833   5.842  0.00  0.00    +0.016 A 
ENDROOT
BRANCH   5  17
ATOM     17  C   LIG    1       30.500 -19.424   7.957  0.00  0.00    +0.417 C 
ATOM     18  F   LIG    1       31.032 -19.878   9.124  0.00  0.00    -0.166 F 
ATOM     19  F   LIG    1       30.131 -18.132   8.191  0.00  0.00    -0.166 F 
ATOM     20  F   LIG    1       31.534 -19.357   7.072  0.00  0.00    -0.166 F 
ENDBRANCH   5  17
BRANCH   1  21
ATOM     21  C   LIG    1       25.481 -23.835   7.169  0.00  0.00    +0.146 C 
BRANCH  21  22
ATOM     22  O   LIG    1       24.062 -24.025   7.148  0.00  0.00    -0.387 OA
ATOM     23  H   LIG    1       23.767 -24.102   8.073  0.00  0.00    +0.210 HD
ENDBRANCH  21  22
BRANCH  21  24
ATOM     24  C   LIG    1       26.154 -24.980   6.380  0.00  0.00    +0.051 C 
BRANCH  24  25
ATOM     25  C   LIG    1       25.126 -26.035   5.909  0.00  0.00    +0.087 C 
BRANCH  25  26
ATOM     26  N   LIG    1       24.884 -27.164   6.833  0.00  0.00    -0.302 NA
BRANCH  26  27
ATOM     27  C   LIG    1       24.252 -28.313   6.143  0.00  0.00    +0.084 C 
BRANCH  27  28
ATOM     28  C   LIG    1       25.109 -29.041   5.083  0.00  0.00    +0.015 C 
BRANCH  28  30
ATOM     29  C   LIG    1       24.217 -31.156   6.185  0.00  0.00    +0.004 C 
ATOM     30  C   LIG    1       25.363 -30.510   5.425  0.00  0.00    -0.002 C 
ENDBRANCH  28  30
ENDBRANCH  27  28
ENDBRANCH  26  27
BRANCH  26  31
ATOM     31  C   LIG    1       26.102 -27.610   7.558  0.00  0.00    +0.084 C 
BRANCH  31  32
ATOM     32  C   LIG    1       25.901 -28.717   8.613  0.00  0.00    +0.015 C 
BRANCH  32  33
ATOM     33  C   LIG    1       26.658 -28.421   9.917  0.00  0.00    -0.002 C 
ATOM     34  C   LIG    1       27.321 -29.671  10.489  0.00  0.00    +0.004 C 
ENDBRANCH  32  33
ENDBRANCH  31  32
ENDBRANCH  26  31
ENDBRANCH  25  26
ENDBRANCH  24  25
ENDBRANCH  21  24
ENDBRANCH   1  21
TORSDOF 12
ENDMDL
MODEL 8
REMARK VINA RESULT:      -6.5      5.198      8.064
REMARK  Name = *****
REMARK                            x       y       z     vdW  Elec       q    Type
REMARK                         _______ _______ _______ _____ _____    ______ ____
ROOT
ATOM      1  C   LIG    1       25.998 -27.907   7.547  0.00  0.00    -0.011 A 
ATOM      2  C   LIG    1       25.626 -29.185   7.070  0.00  0.00    -0.012 A 
ATOM      3  C   LIG    1       25.361 -30.224   8.014  0.00  0.00    -0.009 A 
ATOM      4  C   LIG    1       24.797 -31.427   7.519  0.00  0.00    +0.021 A 
ATOM      5  C   LIG    1       24.568 -31.673   6.159  0.00  0.00    +0.055 A 
ATOM      6  C   LIG    1       24.984 -30.712   5.243  0.00  0.00    +0.013 A 
ATOM      7  C   LIG    1       25.650 -30.012   9.408  0.00  0.00    -0.007 A 
ATOM      8  C   LIG    1       25.998 -28.730   9.881  0.00  0.00    +0.002 A 
ATOM      9  C   LIG    1       26.227 -28.527  11.271  0.00  0.00    +0.050 A 
ATOM     10  C   LIG    1       26.198 -29.588  12.174  0.00  0.00    +0.040 A 
ATOM     11  C   LIG    1       25.926 -30.857  11.709  0.00  0.00    +0.043 A 
ATOM     12 CL   LIG    1       25.959 -32.194  12.793  0.00  0.00    -0.084 Cl
ATOM     13 CL   LIG    1       26.571 -26.964  11.939  0.00  0.00    -0.083 Cl
ATOM     14  C   LIG    1       25.638 -31.069  10.361  0.00  0.00    +0.029 A 
ATOM     15  C   LIG    1       25.493 -29.496   5.694  0.00  0.00    +0.009 A 
ATOM     16  C   LIG    1       26.127 -27.694   8.935  0.00  0.00    +0.016 A 
ENDROOT
BRANCH   5  17
ATOM     17  C   LIG    1       23.867 -32.919   5.681  0.00  0.00    +0.417 C 
ATOM     18  F   LIG    1       22.628 -32.668   5.179  0.00  0.00    -0.166 F 
ATOM     19  F   LIG    1       23.687 -33.824   6.686  0.00  0.00    -0.166 F 
ATOM     20  F   LIG    1       24.542 -33.585   4.703  0.00  0.00    -0.166 F 
ENDBRANCH   5  17
BRANCH   1  21
ATOM     21  C   LIG    1       26.271 -26.709   6.639  0.00  0.00    +0.146 C 
BRANCH  21  22
ATOM     22  O   LIG    1       27.246 -27.093   5.662  0.00  0.00    -0.387 OA
ATOM     23  H   LIG    1       27.543 -26.281   5.216  0.00  0.00    +0.210 HD
ENDBRANCH  21  22
BRANCH  21  24
ATOM     24  C   LIG    1       25.008 -26.195   5.914  0.00  0.00    +0.051 C 
BRANCH  24  25
ATOM     25  C   LIG    1       25.043 -24.661   5.716  0.00  0.00    +0.087 C 
BRANCH  25  26
ATOM     26  N   LIG    1       24.897 -23.845   6.939  0.00  0.00    -0.302 NA
BRANCH  26  27
ATOM     27  C   LIG    1       26.100 -23.018   7.194  0.00  0.00    +0.084 C 
BRANCH  27  28
ATOM     28  C   LIG    1       26.045 -22.074   8.416  0.00  0.00    +0.015 C 
BRANCH  28  30
ATOM     29  C   LIG    1       26.821 -20.442   6.622  0.00  0.00    +0.004 C 
ATOM     30  C   LIG    1       26.414 -20.630   8.074  0.00  0.00    -0.002 C 
ENDBRANCH  28  30
ENDBRANCH  27  28
ENDBRANCH  26  27
BRANCH  26  31
ATOM     31  C   LIG    1       23.680 -22.992   6.944  0.00  0.00    +0.084 C 
BRANCH  31  32
ATOM     32  C   LIG    1       23.551 -21.981   5.787  0.00  0.00    +0.015 C 
BRANCH  32  33
ATOM     33  C   LIG    1       23.003 -20.624   6.259  0.00  0.00    -0.002 C 
ATOM     34  C   LIG    1       22.862 -19.633   5.107  0.00  0.00    +0.004 C 
ENDBRANCH  32  33
ENDBRANCH  31  32
ENDBRANCH  26  31
ENDBRANCH  25  26
ENDBRANCH  24  25
ENDBRANCH  21  24
ENDBRANCH   1  21
TORSDOF 12
ENDMDL
MODEL 9
REMARK VINA RESULT:      -6.5      8.394     12.269
REMARK  Name = *****
REMARK                            x       y       z     vdW  Elec       q    Type
REMARK                         _______ _______ _______ _____ _____    ______ ____
ROOT
ATOM      1  C   LIG    1       27.104 -20.325   5.713  0.00  0.00    -0.011 A 
ATOM      2  C   LIG    1       26.304 -21.451   6.017  0.00  0.00    -0.012 A 
ATOM      3  C   LIG    1       24.972 -21.510   5.507  0.00  0.00    -0.009 A 
ATOM      4  C   LIG    1       24.268 -22.732   5.656  0.00  0.00    +0.021 A 
ATOM      5  C   LIG    1       24.781 -23.841   6.343  0.00  0.00    +0.055 A 
ATOM      6  C   LIG    1       26.014 -23.706   6.971  0.00  0.00    +0.013 A 
ATOM      7  C   LIG    1       24.406 -20.358   4.855  0.00  0.00    -0.007 A 
ATOM      8  C   LIG    1       25.213 -19.247   4.534  0.00  0.00    +0.002 A 
ATOM      9  C   LIG    1       24.650 -18.140   3.840  0.00  0.00    +0.050 A 
ATOM     10  C   LIG    1       23.289 -18.086   3.541  0.00  0.00    +0.040 A 
ATOM     11  C   LIG    1       22.479 -19.138   3.913  0.00  0.00    +0.043 A 
ATOM     12 CL   LIG    1       20.784 -19.061   3.622  0.00  0.00    -0.084 Cl
ATOM     13 CL   LIG    1       25.597 -16.779   3.332  0.00  0.00    -0.083 Cl
ATOM     14  C   LIG    1       23.021 -20.261   4.539  0.00  0.00    +0.029 A 
ATOM     15  C   LIG    1       26.757 -22.540   6.803  0.00  0.00    +0.009 A 
ATOM     16  C   LIG    1       26.562 -19.277   4.941  0.00  0.00    +0.016 A 
ENDROOT
BRANCH   5  17
ATOM     17  C   LIG    1       24.049 -25.159   6.386  0.00  0.00    +0.417 C 
ATOM     18  F   LIG    1       22.830 -25.066   6.983  0.00  0.00    -0.166 F 
ATOM     19  F   LIG    1       24.738 -26.105   7.086  0.00  0.00    -0.166 F 
ATOM     20  F   LIG    1       23.827 -25.700   5.156  0.00  0.00    -0.166 F 
ENDBRANCH   5  17
BRANCH   1  21
ATOM     21  C   LIG    1       28.552 -20.165   6.170  0.00  0.00    +0.146 C 
BRANCH  21  22
ATOM     22  O   LIG    1       29.174 -19.157   5.363  0.00  0.00    -0.387 OA
ATOM     23  H   LIG    1       29.867 -19.595   4.838  0.00  0.00    +0.210 HD
ENDBRANCH  21  22
BRANCH  21  24
ATOM     24  C   LIG    1       28.680 -19.768   7.657  0.00  0.00    +0.051 C 
BRANCH  24  25
ATOM     25  C   LIG    1       29.624 -18.558   7.851  0.00  0.00    +0.087 C 
BRANCH  25  26
ATOM     26  N   LIG    1       30.184 -18.382   9.207  0.00  0.00    -0.302 NA
BRANCH  26  27
ATOM     27  C   LIG    1       31.347 -19.269   9.440  0.00  0.00    +0.084 C 
BRANCH  27  28
ATOM     28  C   LIG    1       31.659 -20.306   8.338  0.00  0.00    +0.015 C 
BRANCH  28  30
ATOM     29  C   LIG    1       30.579 -22.135   9.744  0.00  0.00    +0.004 C 
ATOM     30  C   LIG    1       31.759 -21.736   8.872  0.00  0.00    -0.002 C 
ENDBRANCH  28  30
ENDBRANCH  27  28
ENDBRANCH  26  27
BRANCH  26  31
ATOM     31  C   LIG    1       30.542 -16.975   9.525  0.00  0.00    +0.084 C 
BRANCH  31  32
ATOM     32  C   LIG    1       32.036 -16.610   9.417  0.00  0.00    +0.015 C 
BRANCH  32  33
ATOM     33  C   LIG    1       32.595 -16.052  10.735  0.00  0.00    -0.002 C 
ATOM     34  C   LIG    1       31.670 -16.338  11.915  0.00  0.00    +0.004 C 
ENDBRANCH  32  33
ENDBRANCH  31  32
ENDBRANCH  26  31
ENDBRANCH  25  26
ENDBRANCH  24  25
ENDBRANCH  21  24
ENDBRANCH   1  21
TORSDOF 12
ENDMDL
