MODEL 1
REMARK VINA RESULT:      -8.6      0.000      0.000
REMARK  Name = *****
REMARK                            x       y       z     vdW  Elec       q    Type
REMARK                         _______ _______ _______ _____ _____    ______ ____
ROOT
ATOM      1  C   LIG    1       23.787 -19.029   3.792  0.00  0.00    -0.027 C 
ATOM      2  C   LIG    1       25.127 -19.337   3.826  0.00  0.00    -0.027 C 
ENDROOT
BRANCH   1   3
ATOM      3  C   LIG    1       22.532 -19.322   4.603  0.00  0.00    +0.054 C 
BRANCH   3   5
ATOM      4  C   LIG    1       22.774 -21.303   6.129  0.00  0.00    -0.027 C 
ATOM      5  C   LIG    1       22.239 -20.706   5.051  0.00  0.00    -0.027 C 
BRANCH   4   6
ATOM      6  C   LIG    1       23.614 -20.708   7.210  0.00  0.00    +0.054 C 
BRANCH   6   8
ATOM      7  C   LIG    1       25.384 -22.648   7.744  0.00  0.00    -0.027 C 
ATOM      8  C   LIG    1       24.659 -21.525   7.940  0.00  0.00    -0.027 C 
BRANCH   7   9
ATOM      9  C   LIG    1       25.539 -23.660   6.621  0.00  0.00    +0.054 C 
BRANCH   9  11
ATOM     10  C   LIG    1       24.284 -25.923   5.912  0.00  0.00    -0.031 C 
ATOM     11  C   LIG    1       24.436 -24.709   6.505  0.00  0.00    -0.027 C 
BRANCH  10  13
ATOM     12  C   LIG    1       26.551 -26.923   5.644  0.00  0.00    +0.008 C 
ATOM     13  C   LIG    1       25.170 -26.798   5.051  0.00  0.00    +0.023 C 
ENDBRANCH  10  13
ENDBRANCH   9  11
ENDBRANCH   7   9
ENDBRANCH   6   8
ENDBRANCH   4   6
ENDBRANCH   3   5
ENDBRANCH   1   3
BRANCH   2  14
ATOM     14  C   LIG    1       26.122 -20.302   4.614  0.00  0.00    +0.054 C 
BRANCH  14  15
ATOM     15  C   LIG    1       27.051 -19.648   5.566  0.00  0.00    -0.027 C 
ATOM     16  C   LIG    1       27.729 -20.442   6.501  0.00  0.00    -0.027 C 
BRANCH  16  17
ATOM     17  C   LIG    1       28.680 -19.877   7.399  0.00  0.00    +0.054 C 
BRANCH  17  18
ATOM     18  C   LIG    1       29.999 -19.714   6.718  0.00  0.00    -0.027 C 
ATOM     19  C   LIG    1       31.185 -19.259   7.157  0.00  0.00    -0.030 C 
BRANCH  19  20
ATOM     20  C   LIG    1       31.622 -18.695   8.484  0.00  0.00    +0.038 C 
BRANCH  20  21
ATOM     21  C   LIG    1       30.576 -17.703   9.016  0.00  0.00    +0.124 C 
BRANCH  21  22
ATOM     22  C   LIG    1       30.504 -17.566  10.458  0.00  0.00    +0.305 C 
ATOM     23  O   LIG    1       30.158 -16.404  11.062  0.00  0.00    -0.251 OA
BRANCH  22  24
ATOM     24  O   LIG    1       30.737 -18.653  11.195  0.00  0.00    -0.481 OA
ATOM     25  H   LIG    1       31.542 -18.564  11.743  0.00  0.00    +0.295 HD
ENDBRANCH  22  24
ENDBRANCH  21  22
ENDBRANCH  20  21
ENDBRANCH  19  20
ENDBRANCH  17  18
ENDBRANCH  16  17
ENDBRANCH  14  15
ENDBRANCH   2  14
TORSDOF 15
ENDMDL
MODEL 2
REMARK VINA RESULT:      -8.4      2.011      3.161
REMARK  Name = *****
REMARK                            x       y       z     vdW  Elec       q    Type
REMARK                         _______ _______ _______ _____ _____    ______ ____
ROOT
ATOM      1  C   LIG    1       22.932 -20.865   5.978  0.00  0.00    -0.027 C 
ATOM      2  C   LIG    1       23.745 -20.169   5.114  0.00  0.00    -0.027 C 
ENDROOT
BRANCH   1   3
ATOM      3  C   LIG    1       23.077 -21.850   7.130  0.00  0.00    +0.054 C 
BRANCH   3   5
ATOM      4  C   LIG    1       23.604 -24.204   6.427  0.00  0.00    -0.027 C 
ATOM      5  C   LIG    1       22.760 -23.286   6.928  0.00  0.00    -0.027 C 
BRANCH   4   6
ATOM      6  C   LIG    1       25.063 -24.075   6.130  0.00  0.00    +0.054 C 
BRANCH   6   8
ATOM      7  C   LIG    1       26.350 -26.424   6.188  0.00  0.00    -0.027 C 
ATOM      8  C   LIG    1       26.049 -25.151   6.529  0.00  0.00    -0.027 C 
BRANCH   7   9
ATOM      9  C   LIG    1       25.847 -27.422   5.159  0.00  0.00    +0.054 C 
BRANCH   9  11
ATOM     10  C   LIG    1       24.041 -29.222   5.993  0.00  0.00    -0.031 C 
ATOM     11  C   LIG    1       24.491 -28.061   5.449  0.00  0.00    -0.027 C 
BRANCH  10  13
ATOM     12  C   LIG    1       24.025 -31.712   6.081  0.00  0.00    +0.008 C 
ATOM     13  C   LIG    1       24.712 -30.457   6.556  0.00  0.00    +0.023 C 
ENDBRANCH  10  13
ENDBRANCH   9  11
ENDBRANCH   7   9
ENDBRANCH   6   8
ENDBRANCH   4   6
ENDBRANCH   3   5
ENDBRANCH   1   3
BRANCH   2  14
ATOM     14  C   LIG    1       25.281 -20.106   4.691  0.00  0.00    +0.054 C 
BRANCH  14  15
ATOM     15  C   LIG    1       26.236 -20.800   5.587  0.00  0.00    -0.027 C 
ATOM     16  C   LIG    1       26.388 -20.336   6.901  0.00  0.00    -0.027 C 
BRANCH  16  17
ATOM     17  C   LIG    1       27.245 -21.002   7.825  0.00  0.00    +0.054 C 
BRANCH  17  18
ATOM     18  C   LIG    1       28.586 -21.232   7.210  0.00  0.00    -0.027 C 
ATOM     19  C   LIG    1       29.570 -20.385   6.862  0.00  0.00    -0.030 C 
BRANCH  19  20
ATOM     20  C   LIG    1       29.676 -18.883   6.915  0.00  0.00    +0.038 C 
BRANCH  20  21
ATOM     21  C   LIG    1       30.108 -18.425   8.317  0.00  0.00    +0.124 C 
BRANCH  21  22
ATOM     22  C   LIG    1       31.527 -18.510   8.605  0.00  0.00    +0.305 C 
ATOM     23  O   LIG    1       32.083 -19.585   9.213  0.00  0.00    -0.251 OA
BRANCH  22  24
ATOM     24  O   LIG    1       32.303 -17.506   8.194  0.00  0.00    -0.481 OA
ATOM     25  H   LIG    1       33.254 -17.691   8.333  0.00  0.00    +0.295 HD
ENDBRANCH  22  24
ENDBRANCH  21  22
ENDBRANCH  20  21
ENDBRANCH  19  20
ENDBRANCH  17  18
ENDBRANCH  16  17
ENDBRANCH  14  15
ENDBRANCH   2  14
TORSDOF 15
ENDMDL
MODEL 3
REMARK VINA RESULT:      -8.4      1.445      2.494
REMARK  Name = *****
REMARK                            x       y       z     vdW  Elec       q    Type
REMARK                         _______ _______ _______ _____ _____    ______ ____
ROOT
ATOM      1  C   LIG    1       22.735 -20.742   5.826  0.00  0.00    -0.027 C 
ATOM      2  C   LIG    1       23.117 -20.378   4.556  0.00  0.00    -0.027 C 
ENDROOT
BRANCH   1   3
ATOM      3  C   LIG    1       23.387 -21.228   7.113  0.00  0.00    +0.054 C 
BRANCH   3   5
ATOM      4  C   LIG    1       25.554 -20.946   8.353  0.00  0.00    -0.027 C 
ATOM      5  C   LIG    1       24.469 -20.434   7.748  0.00  0.00    -0.027 C 
BRANCH   4   6
ATOM      6  C   LIG    1       26.031 -22.361   8.386  0.00  0.00    +0.054 C 
BRANCH   6   8
ATOM      7  C   LIG    1       25.555 -24.049   6.361  0.00  0.00    -0.027 C 
ATOM      8  C   LIG    1       26.234 -23.156   7.115  0.00  0.00    -0.027 C 
BRANCH   7   9
ATOM      9  C   LIG    1       24.175 -24.684   6.406  0.00  0.00    +0.054 C 
BRANCH   9  11
ATOM     10  C   LIG    1       24.452 -27.312   5.943  0.00  0.00    -0.031 C 
ATOM     11  C   LIG    1       24.036 -26.039   5.715  0.00  0.00    -0.027 C 
BRANCH  10  13
ATOM     12  C   LIG    1       24.687 -29.292   7.438  0.00  0.00    +0.008 C 
ATOM     13  C   LIG    1       25.290 -27.976   7.015  0.00  0.00    +0.023 C 
ENDBRANCH  10  13
ENDBRANCH   9  11
ENDBRANCH   7   9
ENDBRANCH   6   8
ENDBRANCH   4   6
ENDBRANCH   3   5
ENDBRANCH   1   3
BRANCH   2  14
ATOM     14  C   LIG    1       24.416 -20.408   3.632  0.00  0.00    +0.054 C 
BRANCH  14  15
ATOM     15  C   LIG    1       25.575 -19.614   4.106  0.00  0.00    -0.027 C 
ATOM     16  C   LIG    1       26.444 -20.183   5.046  0.00  0.00    -0.027 C 
BRANCH  16  17
ATOM     17  C   LIG    1       27.608 -19.491   5.491  0.00  0.00    +0.054 C 
BRANCH  17  18
ATOM     18  C   LIG    1       28.606 -20.458   6.036  0.00  0.00    -0.027 C 
ATOM     19  C   LIG    1       29.298 -20.479   7.188  0.00  0.00    -0.030 C 
BRANCH  19  20
ATOM     20  C   LIG    1       29.370 -19.512   8.341  0.00  0.00    +0.038 C 
BRANCH  20  21
ATOM     21  C   LIG    1       30.246 -18.303   7.973  0.00  0.00    +0.124 C 
BRANCH  21  22
ATOM     22  C   LIG    1       31.562 -18.264   8.579  0.00  0.00    +0.305 C 
ATOM     23  O   LIG    1       32.353 -17.165   8.531  0.00  0.00    -0.251 OA
BRANCH  22  24
ATOM     24  O   LIG    1       31.965 -19.342   9.254  0.00  0.00    -0.481 OA
ATOM     25  H   LIG    1       32.218 -19.130  10.175  0.00  0.00    +0.295 HD
ENDBRANCH  22  24
ENDBRANCH  21  22
ENDBRANCH  20  21
ENDBRANCH  19  20
ENDBRANCH  17  18
ENDBRANCH  16  17
ENDBRANCH  14  15
ENDBRANCH   2  14
TORSDOF 15
ENDMDL
MODEL 4
REMARK VINA RESULT:      -8.3      1.924      3.092
REMARK  Name = *****
REMARK                            x       y       z     vdW  Elec       q    Type
REMARK                         _______ _______ _______ _____ _____    ______ ____
ROOT
ATOM      1  C   LIG    1       22.866 -20.447   5.885  0.00  0.00    -0.027 C 
ATOM      2  C   LIG    1       23.487 -19.891   4.791  0.00  0.00    -0.027 C 
ENDROOT
BRANCH   1   3
ATOM      3  C   LIG    1       23.210 -21.391   7.029  0.00  0.00    +0.054 C 
BRANCH   3   5
ATOM      4  C   LIG    1       23.500 -23.846   6.581  0.00  0.00    -0.027 C 
ATOM      5  C   LIG    1       22.758 -22.804   6.993  0.00  0.00    -0.027 C 
BRANCH   4   6
ATOM      6  C   LIG    1       24.954 -23.888   6.246  0.00  0.00    +0.054 C 
BRANCH   6   8
ATOM      7  C   LIG    1       26.206 -26.255   6.338  0.00  0.00    -0.027 C 
ATOM      8  C   LIG    1       25.845 -25.013   6.728  0.00  0.00    -0.027 C 
BRANCH   7   9
ATOM      9  C   LIG    1       25.911 -27.150   5.146  0.00  0.00    +0.054 C 
BRANCH   9  11
ATOM     10  C   LIG    1       24.153 -29.052   5.846  0.00  0.00    -0.031 C 
ATOM     11  C   LIG    1       24.607 -27.942   5.207  0.00  0.00    -0.027 C 
BRANCH  10  13
ATOM     12  C   LIG    1       24.860 -29.478   8.197  0.00  0.00    +0.008 C 
ATOM     13  C   LIG    1       24.771 -30.049   6.804  0.00  0.00    +0.023 C 
ENDBRANCH  10  13
ENDBRANCH   9  11
ENDBRANCH   7   9
ENDBRANCH   6   8
ENDBRANCH   4   6
ENDBRANCH   3   5
ENDBRANCH   1   3
BRANCH   2  14
ATOM     14  C   LIG    1       24.853 -20.029   3.980  0.00  0.00    +0.054 C 
BRANCH  14  15
ATOM     15  C   LIG    1       26.099 -19.852   4.763  0.00  0.00    -0.027 C 
ATOM     16  C   LIG    1       26.310 -20.660   5.889  0.00  0.00    -0.027 C 
BRANCH  16  17
ATOM     17  C   LIG    1       27.517 -20.576   6.642  0.00  0.00    +0.054 C 
BRANCH  17  18
ATOM     18  C   LIG    1       28.467 -19.627   5.989  0.00  0.00    -0.027 C 
ATOM     19  C   LIG    1       29.499 -18.915   6.474  0.00  0.00    -0.030 C 
BRANCH  19  20
ATOM     20  C   LIG    1       30.057 -18.764   7.866  0.00  0.00    +0.038 C 
BRANCH  20  21
ATOM     21  C   LIG    1       31.321 -19.623   8.032  0.00  0.00    +0.124 C 
BRANCH  21  22
ATOM     22  C   LIG    1       31.163 -20.849   8.789  0.00  0.00    +0.305 C 
ATOM     23  O   LIG    1       32.183 -21.419   9.474  0.00  0.00    -0.251 OA
BRANCH  22  24
ATOM     24  O   LIG    1       29.943 -21.388   8.846  0.00  0.00    -0.481 OA
ATOM     25  H   LIG    1       29.942 -22.331   8.587  0.00  0.00    +0.295 HD
ENDBRANCH  22  24
ENDBRANCH  21  22
ENDBRANCH  20  21
ENDBRANCH  19  20
ENDBRANCH  17  18
ENDBRANCH  16  17
ENDBRANCH  14  15
ENDBRANCH   2  14
TORSDOF 15
ENDMDL
MODEL 5
REMARK VINA RESULT:      -8.3      3.470      8.104
REMARK  Name = *****
REMARK                            x       y       z     vdW  Elec       q    Type
REMARK                         _______ _______ _______ _____ _____    ______ ____
ROOT
ATOM      1  C   LIG    1       25.170 -19.561   3.622  0.00  0.00    -0.027 C 
ATOM      2  C   LIG    1       23.803 -19.415   3.601  0.00  0.00    -0.027 C 
ENDROOT
BRANCH   1   3
ATOM      3  C   LIG    1       26.288 -19.656   4.652  0.00  0.00    +0.054 C 
BRANCH   3   5
ATOM      4  C   LIG    1       27.158 -20.858   6.679  0.00  0.00    -0.027 C 
ATOM      5  C   LIG    1       26.236 -20.689   5.716  0.00  0.00    -0.027 C 
BRANCH   4   6
ATOM      6  C   LIG    1       28.317 -19.984   7.032  0.00  0.00    +0.054 C 
BRANCH   6   8
ATOM      7  C   LIG    1       30.772 -20.112   8.097  0.00  0.00    -0.027 C 
ATOM      8  C   LIG    1       29.586 -20.556   7.625  0.00  0.00    -0.027 C 
BRANCH   7   9
ATOM      9  C   LIG    1       31.418 -18.753   8.309  0.00  0.00    +0.054 C 
BRANCH   9  11
ATOM     10  C   LIG    1       30.404 -17.181  10.232  0.00  0.00    -0.031 C 
ATOM     11  C   LIG    1       30.549 -17.694   8.982  0.00  0.00    -0.027 C 
BRANCH  10  13
ATOM     12  C   LIG    1       31.742 -16.231  12.107  0.00  0.00    +0.008 C 
ATOM     13  C   LIG    1       31.051 -17.461  11.572  0.00  0.00    +0.023 C 
ENDBRANCH  10  13
ENDBRANCH   9  11
ENDBRANCH   7   9
ENDBRANCH   6   8
ENDBRANCH   4   6
ENDBRANCH   3   5
ENDBRANCH   1   3
BRANCH   2  14
ATOM     14  C   LIG    1       22.610 -19.089   4.607  0.00  0.00    +0.054 C 
BRANCH  14  15
ATOM     15  C   LIG    1       22.616 -19.830   5.892  0.00  0.00    -0.027 C 
ATOM     16  C   LIG    1       22.853 -21.211   5.873  0.00  0.00    -0.027 C 
BRANCH  16  17
ATOM     17  C   LIG    1       22.932 -21.964   7.081  0.00  0.00    +0.054 C 
BRANCH  17  18
ATOM     18  C   LIG    1       22.862 -23.425   6.783  0.00  0.00    -0.027 C 
ATOM     19  C   LIG    1       23.819 -24.356   6.630  0.00  0.00    -0.030 C 
BRANCH  19  20
ATOM     20  C   LIG    1       25.323 -24.271   6.650  0.00  0.00    +0.038 C 
BRANCH  20  21
ATOM     21  C   LIG    1       25.939 -25.676   6.743  0.00  0.00    +0.124 C 
BRANCH  21  22
ATOM     22  C   LIG    1       26.223 -26.331   5.480  0.00  0.00    +0.305 C 
ATOM     23  O   LIG    1       25.366 -26.293   4.432  0.00  0.00    -0.251 OA
BRANCH  22  24
ATOM     24  O   LIG    1       27.404 -26.937   5.350  0.00  0.00    -0.481 OA
ATOM     25  H   LIG    1       28.040 -26.663   6.041  0.00  0.00    +0.295 HD
ENDBRANCH  22  24
ENDBRANCH  21  22
ENDBRANCH  20  21
ENDBRANCH  19  20
ENDBRANCH  17  18
ENDBRANCH  16  17
ENDBRANCH  14  15
ENDBRANCH   2  14
TORSDOF 15
ENDMDL
MODEL 6
REMARK VINA RESULT:      -8.1      3.078      7.186
REMARK  Name = *****
REMARK                            x       y       z     vdW  Elec       q    Type
REMARK                         _______ _______ _______ _____ _____    ______ ____
ROOT
ATOM      1  C   LIG    1       24.963 -23.806   6.887  0.00  0.00    -0.027 C 
ATOM      2  C   LIG    1       23.680 -23.395   6.610  0.00  0.00    -0.027 C 
ENDROOT
BRANCH   1   3
ATOM      3  C   LIG    1       26.223 -23.243   7.531  0.00  0.00    +0.054 C 
BRANCH   3   5
ATOM      4  C   LIG    1       26.215 -20.782   8.033  0.00  0.00    -0.027 C 
ATOM      5  C   LIG    1       26.140 -22.064   8.428  0.00  0.00    -0.027 C 
BRANCH   4   6
ATOM      6  C   LIG    1       26.213 -20.225   6.648  0.00  0.00    +0.054 C 
BRANCH   6   8
ATOM      7  C   LIG    1       28.820 -20.068   6.052  0.00  0.00    -0.027 C 
ATOM      8  C   LIG    1       27.487 -20.115   5.838  0.00  0.00    -0.027 C 
BRANCH   7   9
ATOM      9  C   LIG    1       29.731 -20.150   7.265  0.00  0.00    +0.054 C 
BRANCH   9  11
ATOM     10  C   LIG    1       30.381 -18.164   8.949  0.00  0.00    -0.031 C 
ATOM     11  C   LIG    1       29.569 -19.042   8.304  0.00  0.00    -0.027 C 
BRANCH  10  13
ATOM     12  C   LIG    1       32.170 -16.468   9.311  0.00  0.00    +0.008 C 
ATOM     13  C   LIG    1       31.871 -17.898   8.939  0.00  0.00    +0.023 C 
ENDBRANCH  10  13
ENDBRANCH   9  11
ENDBRANCH   7   9
ENDBRANCH   6   8
ENDBRANCH   4   6
ENDBRANCH   3   5
ENDBRANCH   1   3
BRANCH   2  14
ATOM     14  C   LIG    1       22.809 -22.059   6.638  0.00  0.00    +0.054 C 
BRANCH  14  15
ATOM     15  C   LIG    1       22.817 -21.247   5.398  0.00  0.00    -0.027 C 
ATOM     16  C   LIG    1       22.981 -19.859   5.502  0.00  0.00    -0.027 C 
BRANCH  16  17
ATOM     17  C   LIG    1       23.058 -19.035   4.341  0.00  0.00    +0.054 C 
BRANCH  17  18
ATOM     18  C   LIG    1       24.397 -19.180   3.696  0.00  0.00    -0.027 C 
ATOM     19  C   LIG    1       25.327 -18.273   3.347  0.00  0.00    -0.030 C 
BRANCH  19  20
ATOM     20  C   LIG    1       25.351 -16.769   3.427  0.00  0.00    +0.038 C 
BRANCH  20  21
ATOM     21  C   LIG    1       26.800 -16.258   3.471  0.00  0.00    +0.124 C 
BRANCH  21  22
ATOM     22  C   LIG    1       26.982 -14.840   3.228  0.00  0.00    +0.305 C 
ATOM     23  O   LIG    1       27.510 -14.004   4.154  0.00  0.00    -0.251 OA
BRANCH  22  24
ATOM     24  O   LIG    1       26.665 -14.375   2.018  0.00  0.00    -0.481 OA
ATOM     25  H   LIG    1       26.204 -15.044   1.473  0.00  0.00    +0.295 HD
ENDBRANCH  22  24
ENDBRANCH  21  22
ENDBRANCH  20  21
ENDBRANCH  19  20
ENDBRANCH  17  18
ENDBRANCH  16  17
ENDBRANCH  14  15
ENDBRANCH   2  14
TORSDOF 15
ENDMDL
MODEL 7
REMARK VINA RESULT:      -8.0      2.518      4.805
REMARK  Name = *****
REMARK                            x       y       z     vdW  Elec       q    Type
REMARK                         _______ _______ _______ _____ _____    ______ ____
ROOT
ATOM      1  C   LIG    1       23.618 -23.691   6.595  0.00  0.00    -0.027 C 
ATOM      2  C   LIG    1       23.153 -22.503   7.107  0.00  0.00    -0.027 C 
ENDROOT
BRANCH   1   3
ATOM      3  C   LIG    1       24.857 -24.212   5.879  0.00  0.00    +0.054 C 
BRANCH   3   5
ATOM      4  C   LIG    1       26.198 -26.262   6.437  0.00  0.00    -0.027 C 
ATOM      5  C   LIG    1       25.891 -24.968   6.629  0.00  0.00    -0.027 C 
BRANCH   4   6
ATOM      6  C   LIG    1       25.742 -27.185   5.355  0.00  0.00    +0.054 C 
BRANCH   6   8
ATOM      7  C   LIG    1       24.079 -29.184   5.999  0.00  0.00    -0.027 C 
ATOM      8  C   LIG    1       24.471 -27.995   5.490  0.00  0.00    -0.027 C 
BRANCH   7   9
ATOM      9  C   LIG    1       24.750 -30.319   6.755  0.00  0.00    +0.054 C 
BRANCH   9  11
ATOM     10  C   LIG    1       25.336 -29.577   9.266  0.00  0.00    -0.031 C 
ATOM     11  C   LIG    1       24.682 -30.244   8.278  0.00  0.00    -0.027 C 
BRANCH  10  13
ATOM     12  C   LIG    1       26.792 -28.161  10.708  0.00  0.00    +0.008 C 
ATOM     13  C   LIG    1       26.483 -28.590   9.296  0.00  0.00    +0.023 C 
ENDBRANCH  10  13
ENDBRANCH   9  11
ENDBRANCH   7   9
ENDBRANCH   6   8
ENDBRANCH   4   6
ENDBRANCH   3   5
ENDBRANCH   1   3
BRANCH   2  14
ATOM     14  C   LIG    1       23.540 -20.956   7.108  0.00  0.00    +0.054 C 
BRANCH  14  15
ATOM     15  C   LIG    1       24.988 -20.643   7.041  0.00  0.00    -0.027 C 
ATOM     16  C   LIG    1       25.751 -20.727   8.214  0.00  0.00    -0.027 C 
BRANCH  16  17
ATOM     17  C   LIG    1       27.158 -20.498   8.198  0.00  0.00    +0.054 C 
BRANCH  17  18
ATOM     18  C   LIG    1       27.648 -20.408   6.790  0.00  0.00    -0.027 C 
ATOM     19  C   LIG    1       28.659 -19.717   6.235  0.00  0.00    -0.030 C 
BRANCH  19  20
ATOM     20  C   LIG    1       29.647 -18.736   6.810  0.00  0.00    +0.038 C 
BRANCH  20  21
ATOM     21  C   LIG    1       30.989 -19.430   7.094  0.00  0.00    +0.124 C 
BRANCH  21  22
ATOM     22  C   LIG    1       31.085 -20.136   8.357  0.00  0.00    +0.305 C 
ATOM     23  O   LIG    1       30.731 -19.571   9.536  0.00  0.00    -0.251 OA
BRANCH  22  24
ATOM     24  O   LIG    1       31.484 -21.409   8.325  0.00  0.00    -0.481 OA
ATOM     25  H   LIG    1       32.448 -21.499   8.466  0.00  0.00    +0.295 HD
ENDBRANCH  22  24
ENDBRANCH  21  22
ENDBRANCH  20  21
ENDBRANCH  19  20
ENDBRANCH  17  18
ENDBRANCH  16  17
ENDBRANCH  14  15
ENDBRANCH   2  14
TORSDOF 15
ENDMDL
MODEL 8
REMARK VINA RESULT:      -8.0      2.283      4.092
REMARK  Name = *****
REMARK                            x       y       z     vdW  Elec       q    Type
REMARK                         _______ _______ _______ _____ _____    ______ ____
ROOT
ATOM      1  C   LIG    1       22.863 -22.580   6.859  0.00  0.00    -0.027 C 
ATOM      2  C   LIG    1       23.085 -21.279   6.470  0.00  0.00    -0.027 C 
ENDROOT
BRANCH   1   3
ATOM      3  C   LIG    1       23.510 -23.947   6.680  0.00  0.00    +0.054 C 
BRANCH   3   5
ATOM      4  C   LIG    1       25.768 -24.931   6.185  0.00  0.00    -0.027 C 
ATOM      5  C   LIG    1       24.969 -24.116   6.893  0.00  0.00    -0.027 C 
BRANCH   4   6
ATOM      6  C   LIG    1       25.459 -25.701   4.943  0.00  0.00    +0.054 C 
BRANCH   6   8
ATOM      7  C   LIG    1       25.244 -28.297   5.570  0.00  0.00    -0.027 C 
ATOM      8  C   LIG    1       25.634 -27.203   4.879  0.00  0.00    -0.027 C 
BRANCH   7   9
ATOM      9  C   LIG    1       24.364 -28.564   6.779  0.00  0.00    +0.054 C 
BRANCH   9  11
ATOM     10  C   LIG    1       25.792 -29.471   8.861  0.00  0.00    -0.031 C 
ATOM     11  C   LIG    1       24.924 -29.533   7.817  0.00  0.00    -0.027 C 
BRANCH  10  13
ATOM     12  C   LIG    1       26.501 -28.347  10.969  0.00  0.00    +0.008 C 
ATOM     13  C   LIG    1       26.641 -28.374   9.468  0.00  0.00    +0.023 C 
ENDBRANCH  10  13
ENDBRANCH   9  11
ENDBRANCH   7   9
ENDBRANCH   6   8
ENDBRANCH   4   6
ENDBRANCH   3   5
ENDBRANCH   1   3
BRANCH   2  14
ATOM     14  C   LIG    1       24.032 -20.462   5.480  0.00  0.00    +0.054 C 
BRANCH  14  15
ATOM     15  C   LIG    1       25.480 -20.768   5.558  0.00  0.00    -0.027 C 
ATOM     16  C   LIG    1       26.131 -20.645   6.793  0.00  0.00    -0.027 C 
BRANCH  16  17
ATOM     17  C   LIG    1       27.507 -20.985   6.940  0.00  0.00    +0.054 C 
BRANCH  17  18
ATOM     18  C   LIG    1       28.367 -19.916   6.350  0.00  0.00    -0.027 C 
ATOM     19  C   LIG    1       29.356 -19.170   6.872  0.00  0.00    -0.030 C 
BRANCH  19  20
ATOM     20  C   LIG    1       29.938 -19.092   8.260  0.00  0.00    +0.038 C 
BRANCH  20  21
ATOM     21  C   LIG    1       30.404 -17.660   8.566  0.00  0.00    +0.124 C 
BRANCH  21  22
ATOM     22  C   LIG    1       31.756 -17.525   9.073  0.00  0.00    +0.305 C 
ATOM     23  O   LIG    1       32.275 -18.372   9.995  0.00  0.00    -0.251 OA
BRANCH  22  24
ATOM     24  O   LIG    1       32.517 -16.560   8.556  0.00  0.00    -0.481 OA
ATOM     25  H   LIG    1       33.433 -16.587   8.898  0.00  0.00    +0.295 HD
ENDBRANCH  22  24
ENDBRANCH  21  22
ENDBRANCH  20  21
ENDBRANCH  19  20
ENDBRANCH  17  18
ENDBRANCH  16  17
ENDBRANCH  14  15
ENDBRANCH   2  14
TORSDOF 15
ENDMDL
MODEL 9
REMARK VINA RESULT:      -7.9      2.686      4.394
REMARK  Name = *****
REMARK                            x       y       z     vdW  Elec       q    Type
REMARK                         _______ _______ _______ _____ _____    ______ ____
ROOT
ATOM      1  C   LIG    1       22.797 -22.902   6.578  0.00  0.00    -0.027 C 
ATOM      2  C   LIG    1       23.066 -21.622   6.153  0.00  0.00    -0.027 C 
ENDROOT
BRANCH   1   3
ATOM      3  C   LIG    1       23.538 -24.221   6.751  0.00  0.00    +0.054 C 
BRANCH   3   5
ATOM      4  C   LIG    1       25.832 -25.090   6.208  0.00  0.00    -0.027 C 
ATOM      5  C   LIG    1       25.019 -24.238   6.854  0.00  0.00    -0.027 C 
BRANCH   4   6
ATOM      6  C   LIG    1       25.500 -26.071   5.132  0.00  0.00    +0.054 C 
BRANCH   6   8
ATOM      7  C   LIG    1       24.337 -28.247   6.175  0.00  0.00    -0.027 C 
ATOM      8  C   LIG    1       24.501 -27.184   5.356  0.00  0.00    -0.027 C 
BRANCH   7   9
ATOM      9  C   LIG    1       25.094 -28.841   7.351  0.00  0.00    +0.054 C 
BRANCH   9  11
ATOM     10  C   LIG    1       24.030 -31.139   8.234  0.00  0.00    -0.031 C 
ATOM     11  C   LIG    1       24.312 -29.810   8.234  0.00  0.00    -0.027 C 
BRANCH  10  13
ATOM     12  C   LIG    1       23.622 -32.168   6.001  0.00  0.00    +0.008 C 
ATOM     13  C   LIG    1       24.361 -32.292   7.310  0.00  0.00    +0.023 C 
ENDBRANCH  10  13
ENDBRANCH   9  11
ENDBRANCH   7   9
ENDBRANCH   6   8
ENDBRANCH   4   6
ENDBRANCH   3   5
ENDBRANCH   1   3
BRANCH   2  14
ATOM     14  C   LIG    1       24.238 -20.809   5.440  0.00  0.00    +0.054 C 
BRANCH  14  15
ATOM     15  C   LIG    1       25.487 -20.641   6.221  0.00  0.00    -0.027 C 
ATOM     16  C   LIG    1       25.414 -20.644   7.620  0.00  0.00    -0.027 C 
BRANCH  16  17
ATOM     17  C   LIG    1       26.589 -20.549   8.422  0.00  0.00    +0.054 C 
BRANCH  17  18
ATOM     18  C   LIG    1       27.739 -21.205   7.729  0.00  0.00    -0.027 C 
ATOM     19  C   LIG    1       28.898 -20.715   7.257  0.00  0.00    -0.030 C 
BRANCH  19  20
ATOM     20  C   LIG    1       29.456 -19.317   7.201  0.00  0.00    +0.038 C 
BRANCH  20  21
ATOM     21  C   LIG    1       30.990 -19.356   7.106  0.00  0.00    +0.124 C 
BRANCH  21  22
ATOM     22  C   LIG    1       31.711 -18.773   8.222  0.00  0.00    +0.305 C 
ATOM     23  O   LIG    1       31.932 -17.441   8.330  0.00  0.00    -0.251 OA
BRANCH  22  24
ATOM     24  O   LIG    1       32.112 -19.593   9.195  0.00  0.00    -0.481 OA
ATOM     25  H   LIG    1       32.345 -20.482   8.858  0.00  0.00    +0.295 HD
ENDBRANCH  22  24
ENDBRANCH  21  22
ENDBRANCH  20  21
ENDBRANCH  19  20
ENDBRANCH  17  18
ENDBRANCH  16  17
ENDBRANCH  14  15
ENDBRANCH   2  14
TORSDOF 15
ENDMDL
