MODEL 1
REMARK VINA RESULT:      -6.6      0.000      0.000
REMARK  Name = *****
REMARK                            x       y       z     vdW  Elec       q    Type
REMARK                         _______ _______ _______ _____ _____    ______ ____
ROOT
ATOM      1  CA  LIG    1       23.469 -30.628  13.080  0.00  0.00    +0.191 C 
ATOM      2  C   LIG    1       23.614 -31.262  11.666  0.00  0.00    +0.169 C 
ATOM      3  N   LIG    1       24.856 -30.514  11.542  0.00  0.00    -0.248 N 
ATOM      4  CA  LIG    1       25.582 -30.384  10.381  0.00  0.00    +0.133 C 
ATOM      5  C   LIG    1       25.077 -30.881   9.210  0.00  0.00    +0.030 C 
ATOM      6  C   LIG    1       23.628 -31.313   9.031  0.00  0.00    +0.115 C 
ATOM      7  S   LIG    1       22.513 -30.726  10.346  0.00  0.00    -0.130 S 
ATOM      8  C   LIG    1       24.916 -30.146  12.835  0.00  0.00    +0.244 C 
ATOM      9  O   LIG    1       25.726 -29.571  13.551  0.00  0.00    -0.273 OA
ENDROOT
BRANCH   1  11
ATOM     10  C   LIG    1       21.883 -29.321  14.525  0.00  0.00    +0.270 C 
ATOM     11  N   LIG    1       22.539 -29.504  13.329  0.00  0.00    -0.296 N 
ATOM     12  H   LIG    1       22.330 -28.824  12.600  0.00  0.00    +0.150 HD
ATOM     13  O   LIG    1       21.961 -30.116  15.452  0.00  0.00    -0.268 OA
BRANCH  10  15
ATOM     14  N   LIG    1       21.531 -26.839  14.809  0.00  0.00    -0.076 NA
ATOM     15  C   LIG    1       21.053 -28.044  14.648  0.00  0.00    +0.208 C 
BRANCH  15  16
ATOM     16  C   LIG    1       19.594 -28.122  14.591  0.00  0.00    +0.197 A 
ATOM     17  N   LIG    1       18.981 -29.335  14.251  0.00  0.00    -0.202 NA
ATOM     18  C   LIG    1       17.683 -29.174  14.170  0.00  0.00    +0.187 A 
ATOM     19  S   LIG    1       17.243 -27.542  14.534  0.00  0.00    +0.050 S 
ATOM     20  N   LIG    1       18.816 -27.054  14.808  0.00  0.00    -0.185 NA
BRANCH  18  21
ATOM     21  N   LIG    1       16.854 -30.187  13.890  0.00  0.00    -0.230 N 
ATOM     22  H   LIG    1       15.957 -30.186  14.351  0.00  0.00    +0.160 HD
BRANCH  21  23
ATOM     23  P   LIG    1       17.249 -31.333  12.849  0.00  0.00    +0.423 P 
ATOM     24  O   LIG    1       18.527 -32.100  12.891  0.00  0.00    -0.237 OA
BRANCH  23  25
ATOM     25  O   LIG    1       17.049 -30.709  11.391  0.00  0.00    -0.310 OA
ATOM     26  H   LIG    1       16.189 -30.265  11.300  0.00  0.00    +0.221 HD
ENDBRANCH  23  25
BRANCH  23  27
ATOM     27  O   LIG    1       16.029 -32.372  12.835  0.00  0.00    -0.310 OA
ATOM     28  H   LIG    1       15.244 -32.002  13.279  0.00  0.00    +0.221 HD
ENDBRANCH  23  27
ENDBRANCH  21  23
ENDBRANCH  18  21
ENDBRANCH  15  16
BRANCH  14  29
ATOM     29  O   LIG    1       22.923 -26.724  14.815  0.00  0.00    -0.393 OA
BRANCH  29  31
ATOM     30  C   LIG    1       24.636 -25.395  13.762  0.00  0.00    +0.051 C 
ATOM     31  C   LIG    1       23.289 -26.064  13.594  0.00  0.00    +0.259 C 
ENDBRANCH  29  31
ENDBRANCH  14  29
ENDBRANCH  10  15
ENDBRANCH   1  11
BRANCH   4  32
ATOM     32  C   LIG    1       26.893 -29.662  10.404  0.00  0.00    +0.352 C 
ATOM     33  O   LIG    1       27.980 -30.084  10.757  0.00  0.00    -0.244 OA
BRANCH  32  34
ATOM     34  OXT LIG    1       26.798 -28.391   9.991  0.00  0.00    -0.476 OA
ATOM     35  HXT LIG    1       25.843 -28.260   9.827  0.00  0.00    +0.295 HD
ENDBRANCH  32  34
ENDBRANCH   4  32
BRANCH   5  36
ATOM     36  S   LIG    1       26.000 -31.063   7.714  0.00  0.00    -0.064 S 
BRANCH  36  37
ATOM     37  C   LIG    1       25.339 -29.722   6.784  0.00  0.00    +0.140 A 
ATOM     38  S   LIG    1       24.178 -29.988   5.550  0.00  0.00    -0.069 S 
ATOM     39  C   LIG    1       23.975 -28.294   5.402  0.00  0.00    +0.076 A 
ATOM     40  C   LIG    1       24.810 -27.627   6.281  0.00  0.00    +0.080 A 
ATOM     41  N   LIG    1       25.642 -28.457   7.015  0.00  0.00    -0.232 NA
BRANCH  40  42
ATOM     42  C   LIG    1       24.821 -26.174   6.475  0.00  0.00    +0.012 A 
ATOM     43  C   LIG    1       26.005 -25.496   6.779  0.00  0.00    +0.080 A 
ATOM     44  C   LIG    1       25.985 -24.123   7.008  0.00  0.00    +0.309 A 
ATOM     45  N   LIG    1       24.840 -23.420   6.869  0.00  0.00    -0.206 N 
ATOM     46  C   LIG    1       24.858 -21.956   7.023  0.00  0.00    +0.438 C 
ATOM     47  C   LIG    1       23.684 -24.043   6.562  0.00  0.00    +0.309 A 
ATOM     48  C   LIG    1       23.649 -25.421   6.379  0.00  0.00    +0.080 A 
ENDBRANCH  40  42
ENDBRANCH  36  37
ENDBRANCH   5  36
TORSDOF 14
ENDMDL
MODEL 2
REMARK VINA RESULT:      -6.5      3.726      9.187
REMARK  Name = *****
REMARK                            x       y       z     vdW  Elec       q    Type
REMARK                         _______ _______ _______ _____ _____    ______ ____
ROOT
ATOM      1  CA  LIG    1       26.963 -30.401   9.758  0.00  0.00    +0.191 C 
ATOM      2  C   LIG    1       27.313 -29.557  11.018  0.00  0.00    +0.169 C 
ATOM      3  N   LIG    1       26.380 -30.403  11.748  0.00  0.00    -0.248 N 
ATOM      4  CA  LIG    1       25.944 -30.166  13.031  0.00  0.00    +0.133 C 
ATOM      5  C   LIG    1       26.299 -29.004  13.661  0.00  0.00    +0.030 C 
ATOM      6  C   LIG    1       26.902 -27.804  12.943  0.00  0.00    +0.115 C 
ATOM      7  S   LIG    1       26.723 -27.860  11.131  0.00  0.00    -0.130 S 
ATOM      8  C   LIG    1       26.238 -31.316  10.769  0.00  0.00    +0.244 C 
ATOM      9  O   LIG    1       25.683 -32.400  10.650  0.00  0.00    -0.273 OA
ENDROOT
BRANCH   1  11
ATOM     10  C   LIG    1       25.797 -30.551   7.537  0.00  0.00    +0.270 C 
ATOM     11  N   LIG    1       26.049 -29.885   8.715  0.00  0.00    -0.296 N 
ATOM     12  H   LIG    1       25.581 -28.986   8.824  0.00  0.00    +0.150 HD
ATOM     13  O   LIG    1       26.367 -31.588   7.229  0.00  0.00    -0.268 OA
BRANCH  10  15
ATOM     14  N   LIG    1       23.621 -30.502   6.263  0.00  0.00    -0.076 NA
ATOM     15  C   LIG    1       24.739 -29.931   6.626  0.00  0.00    +0.208 C 
BRANCH  15  16
ATOM     16  C   LIG    1       24.946 -28.590   6.084  0.00  0.00    +0.197 A 
ATOM     17  N   LIG    1       24.116 -27.541   6.502  0.00  0.00    -0.202 NA
ATOM     18  C   LIG    1       24.405 -26.449   5.839  0.00  0.00    +0.187 A 
ATOM     19  S   LIG    1       25.704 -26.729   4.732  0.00  0.00    +0.050 S 
ATOM     20  N   LIG    1       25.878 -28.333   5.158  0.00  0.00    -0.185 NA
BRANCH  18  21
ATOM     21  N   LIG    1       23.780 -25.288   6.068  0.00  0.00    -0.230 N 
ATOM     22  H   LIG    1       22.772 -25.302   6.069  0.00  0.00    +0.160 HD
BRANCH  21  23
ATOM     23  P   LIG    1       24.589 -23.941   6.358  0.00  0.00    +0.423 P 
ATOM     24  O   LIG    1       25.876 -23.880   7.111  0.00  0.00    -0.237 OA
BRANCH  23  25
ATOM     25  O   LIG    1       23.545 -22.916   7.005  0.00  0.00    -0.310 OA
ATOM     26  H   LIG    1       22.706 -22.895   6.515  0.00  0.00    +0.221 HD
ENDBRANCH  23  25
BRANCH  23  27
ATOM     27  O   LIG    1       24.790 -23.218   4.943  0.00  0.00    -0.310 OA
ATOM     28  H   LIG    1       25.108 -23.844   4.268  0.00  0.00    +0.221 HD
ENDBRANCH  23  27
ENDBRANCH  21  23
ENDBRANCH  18  21
ENDBRANCH  15  16
BRANCH  14  29
ATOM     29  O   LIG    1       23.367 -31.764   6.805  0.00  0.00    -0.393 OA
BRANCH  29  31
ATOM     30  C   LIG    1       24.395 -33.592   5.617  0.00  0.00    +0.051 C 
ATOM     31  C   LIG    1       23.202 -32.663   5.700  0.00  0.00    +0.259 C 
ENDBRANCH  29  31
ENDBRANCH  14  29
ENDBRANCH  10  15
ENDBRANCH   1  11
BRANCH   4  32
ATOM     32  C   LIG    1       25.052 -31.161  13.706  0.00  0.00    +0.352 C 
ATOM     33  O   LIG    1       25.367 -32.191  14.276  0.00  0.00    -0.244 OA
BRANCH  32  34
ATOM     34  OXT LIG    1       23.754 -30.839  13.627  0.00  0.00    -0.476 OA
ATOM     35  HXT LIG    1       23.287 -31.633  13.956  0.00  0.00    +0.295 HD
ENDBRANCH  32  34
ENDBRANCH   4  32
BRANCH   5  36
ATOM     36  S   LIG    1       26.080 -28.688  15.385  0.00  0.00    -0.064 S 
BRANCH  36  37
ATOM     37  C   LIG    1       24.590 -27.749  15.336  0.00  0.00    +0.140 A 
ATOM     38  S   LIG    1       24.625 -26.042  15.182  0.00  0.00    -0.069 S 
ATOM     39  C   LIG    1       22.922 -26.044  14.997  0.00  0.00    +0.076 A 
ATOM     40  C   LIG    1       22.427 -27.332  15.081  0.00  0.00    +0.080 A 
ATOM     41  N   LIG    1       23.387 -28.294  15.351  0.00  0.00    -0.232 NA
BRANCH  40  42
ATOM     42  C   LIG    1       21.022 -27.697  14.875  0.00  0.00    +0.012 A 
ATOM     43  C   LIG    1       20.669 -28.953  14.371  0.00  0.00    +0.080 A 
ATOM     44  C   LIG    1       19.332 -29.261  14.137  0.00  0.00    +0.309 A 
ATOM     45  N   LIG    1       18.358 -28.383  14.460  0.00  0.00    -0.206 N 
ATOM     46  C   LIG    1       16.945 -28.764  14.292  0.00  0.00    +0.438 C 
ATOM     47  C   LIG    1       18.665 -27.169  14.961  0.00  0.00    +0.309 A 
ATOM     48  C   LIG    1       19.990 -26.800  15.159  0.00  0.00    +0.080 A 
ENDBRANCH  40  42
ENDBRANCH  36  37
ENDBRANCH   5  36
TORSDOF 14
ENDMDL
MODEL 3
REMARK VINA RESULT:      -5.6      4.822     10.032
REMARK  Name = *****
REMARK                            x       y       z     vdW  Elec       q    Type
REMARK                         _______ _______ _______ _____ _____    ______ ____
ROOT
ATOM      1  CA  LIG    1       26.300 -27.365   7.291  0.00  0.00    +0.191 C 
ATOM      2  C   LIG    1       26.684 -28.355   8.428  0.00  0.00    +0.169 C 
ATOM      3  N   LIG    1       25.376 -28.962   8.236  0.00  0.00    -0.248 N 
ATOM      4  CA  LIG    1       24.816 -29.902   9.070  0.00  0.00    +0.133 C 
ATOM      5  C   LIG    1       25.451 -30.232  10.238  0.00  0.00    +0.030 C 
ATOM      6  C   LIG    1       26.593 -29.422  10.837  0.00  0.00    +0.115 C 
ATOM      7  S   LIG    1       26.770 -27.755  10.124  0.00  0.00    -0.130 S 
ATOM      8  C   LIG    1       25.098 -28.313   7.091  0.00  0.00    +0.244 C 
ATOM      9  O   LIG    1       24.210 -28.353   6.249  0.00  0.00    -0.273 OA
ENDROOT
BRANCH   1  11
ATOM     10  C   LIG    1       25.879 -24.973   6.647  0.00  0.00    +0.270 C 
ATOM     11  N   LIG    1       25.876 -25.978   7.587  0.00  0.00    -0.296 N 
ATOM     12  H   LIG    1       25.583 -25.708   8.524  0.00  0.00    +0.150 HD
ATOM     13  O   LIG    1       26.301 -25.131   5.510  0.00  0.00    -0.268 OA
BRANCH  10  15
ATOM     14  N   LIG    1       24.028 -23.338   7.162  0.00  0.00    -0.076 NA
ATOM     15  C   LIG    1       25.299 -23.632   7.094  0.00  0.00    +0.208 C 
BRANCH  15  16
ATOM     16  C   LIG    1       26.200 -22.550   7.486  0.00  0.00    +0.197 A 
ATOM     17  N   LIG    1       27.523 -22.553   7.025  0.00  0.00    -0.202 NA
ATOM     18  C   LIG    1       28.185 -21.555   7.557  0.00  0.00    +0.187 A 
ATOM     19  S   LIG    1       27.162 -20.623   8.594  0.00  0.00    +0.050 S 
ATOM     20  N   LIG    1       25.817 -21.572   8.317  0.00  0.00    -0.185 NA
BRANCH  18  21
ATOM     21  N   LIG    1       29.466 -21.308   7.259  0.00  0.00    -0.230 N 
ATOM     22  H   LIG    1       29.884 -21.868   6.532  0.00  0.00    +0.160 HD
BRANCH  21  23
ATOM     23  P   LIG    1       30.295 -20.157   7.995  0.00  0.00    +0.423 P 
ATOM     24  O   LIG    1       29.813 -18.755   8.167  0.00  0.00    -0.237 OA
BRANCH  23  25
ATOM     25  O   LIG    1       31.746 -20.143   7.324  0.00  0.00    -0.310 OA
ATOM     26  H   LIG    1       31.748 -19.673   6.472  0.00  0.00    +0.221 HD
ENDBRANCH  23  25
BRANCH  23  27
ATOM     27  O   LIG    1       30.700 -20.738   9.431  0.00  0.00    -0.310 OA
ATOM     28  H   LIG    1       29.917 -20.855  10.000  0.00  0.00    +0.221 HD
ENDBRANCH  23  27
ENDBRANCH  21  23
ENDBRANCH  18  21
ENDBRANCH  15  16
BRANCH  14  29
ATOM     29  O   LIG    1       23.139 -24.367   6.843  0.00  0.00    -0.393 OA
BRANCH  29  31
ATOM     30  C   LIG    1       22.189 -22.326   5.983  0.00  0.00    +0.051 C 
ATOM     31  C   LIG    1       21.912 -23.743   6.437  0.00  0.00    +0.259 C 
ENDBRANCH  29  31
ENDBRANCH  14  29
ENDBRANCH  10  15
ENDBRANCH   1  11
BRANCH   4  32
ATOM     32  C   LIG    1       23.499 -30.518   8.714  0.00  0.00    +0.352 C 
ATOM     33  O   LIG    1       23.241 -31.259   7.782  0.00  0.00    -0.244 OA
BRANCH  32  34
ATOM     34  OXT LIG    1       22.513 -30.164   9.549  0.00  0.00    -0.476 OA
ATOM     35  HXT LIG    1       21.695 -30.429   9.083  0.00  0.00    +0.295 HD
ENDBRANCH  32  34
ENDBRANCH   4  32
BRANCH   5  36
ATOM     36  S   LIG    1       25.029 -31.614  11.255  0.00  0.00    -0.064 S 
BRANCH  36  37
ATOM     37  C   LIG    1       24.229 -30.779  12.584  0.00  0.00    +0.140 A 
ATOM     38  S   LIG    1       25.005 -30.585  14.101  0.00  0.00    -0.069 S 
ATOM     39  C   LIG    1       23.720 -29.570  14.606  0.00  0.00    +0.076 A 
ATOM     40  C   LIG    1       22.773 -29.454  13.605  0.00  0.00    +0.080 A 
ATOM     41  N   LIG    1       23.041 -30.214  12.477  0.00  0.00    -0.232 NA
BRANCH  40  42
ATOM     42  C   LIG    1       21.593 -28.587  13.675  0.00  0.00    +0.012 A 
ATOM     43  C   LIG    1       20.429 -29.004  14.329  0.00  0.00    +0.080 A 
ATOM     44  C   LIG    1       19.303 -28.186  14.342  0.00  0.00    +0.309 A 
ATOM     45  N   LIG    1       19.342 -26.955  13.789  0.00  0.00    -0.206 N 
ATOM     46  C   LIG    1       18.172 -26.068  13.895  0.00  0.00    +0.438 C 
ATOM     47  C   LIG    1       20.455 -26.517  13.163  0.00  0.00    +0.309 A 
ATOM     48  C   LIG    1       21.584 -27.325  13.079  0.00  0.00    +0.080 A 
ENDBRANCH  40  42
ENDBRANCH  36  37
ENDBRANCH   5  36
TORSDOF 14
ENDMDL
MODEL 4
REMARK VINA RESULT:      -5.0      3.690      8.918
REMARK  Name = *****
REMARK                            x       y       z     vdW  Elec       q    Type
REMARK                         _______ _______ _______ _____ _____    ______ ____
ROOT
ATOM      1  CA  LIG    1       27.404 -30.699   9.692  0.00  0.00    +0.191 C 
ATOM      2  C   LIG    1       27.423 -29.699  10.884  0.00  0.00    +0.169 C 
ATOM      3  N   LIG    1       26.496 -30.599  11.553  0.00  0.00    -0.248 N 
ATOM      4  CA  LIG    1       25.821 -30.308  12.716  0.00  0.00    +0.133 C 
ATOM      5  C   LIG    1       25.911 -29.052  13.253  0.00  0.00    +0.030 C 
ATOM      6  C   LIG    1       26.470 -27.851  12.503  0.00  0.00    +0.115 C 
ATOM      7  S   LIG    1       26.611 -28.102  10.705  0.00  0.00    -0.130 S 
ATOM      8  C   LIG    1       26.641 -31.610  10.678  0.00  0.00    +0.244 C 
ATOM      9  O   LIG    1       26.257 -32.770  10.601  0.00  0.00    -0.273 OA
ENDROOT
BRANCH   1  11
ATOM     10  C   LIG    1       25.248 -30.414   8.435  0.00  0.00    +0.270 C 
ATOM     11  N   LIG    1       26.624 -30.422   8.466  0.00  0.00    -0.296 N 
ATOM     12  H   LIG    1       27.088 -30.246   7.577  0.00  0.00    +0.150 HD
ATOM     13  O   LIG    1       24.562 -30.709   9.404  0.00  0.00    -0.268 OA
BRANCH  10  15
ATOM     14  N   LIG    1       23.666 -30.645   6.483  0.00  0.00    -0.076 NA
ATOM     15  C   LIG    1       24.607 -29.993   7.113  0.00  0.00    +0.208 C 
BRANCH  15  16
ATOM     16  C   LIG    1       25.050 -28.767   6.452  0.00  0.00    +0.197 A 
ATOM     17  N   LIG    1       25.138 -27.579   7.190  0.00  0.00    -0.202 NA
ATOM     18  C   LIG    1       25.465 -26.585   6.402  0.00  0.00    +0.187 A 
ATOM     19  S   LIG    1       25.679 -27.136   4.776  0.00  0.00    +0.050 S 
ATOM     20  N   LIG    1       25.332 -28.727   5.144  0.00  0.00    -0.185 NA
BRANCH  18  21
ATOM     21  N   LIG    1       25.648 -25.341   6.859  0.00  0.00    -0.230 N 
ATOM     22  H   LIG    1       26.388 -25.203   7.530  0.00  0.00    +0.160 HD
BRANCH  21  23
ATOM     23  P   LIG    1       24.756 -24.117   6.347  0.00  0.00    +0.423 P 
ATOM     24  O   LIG    1       24.926 -23.452   5.023  0.00  0.00    -0.237 OA
BRANCH  23  25
ATOM     25  O   LIG    1       24.792 -23.016   7.506  0.00  0.00    -0.310 OA
ATOM     26  H   LIG    1       24.835 -22.113   7.147  0.00  0.00    +0.221 HD
ENDBRANCH  23  25
BRANCH  23  27
ATOM     27  O   LIG    1       23.229 -24.575   6.499  0.00  0.00    -0.310 OA
ATOM     28  H   LIG    1       22.937 -25.095   5.728  0.00  0.00    +0.221 HD
ENDBRANCH  23  27
ENDBRANCH  21  23
ENDBRANCH  18  21
ENDBRANCH  15  16
BRANCH  14  29
ATOM     29  O   LIG    1       23.183 -31.795   7.114  0.00  0.00    -0.393 OA
BRANCH  29  31
ATOM     30  C   LIG    1       24.497 -33.785   6.770  0.00  0.00    +0.051 C 
ATOM     31  C   LIG    1       23.413 -32.888   6.214  0.00  0.00    +0.259 C 
ENDBRANCH  29  31
ENDBRANCH  14  29
ENDBRANCH  10  15
ENDBRANCH   1  11
BRANCH   4  32
ATOM     32  C   LIG    1       24.961 -31.354  13.355  0.00  0.00    +0.352 C 
ATOM     33  O   LIG    1       25.196 -32.019  14.348  0.00  0.00    -0.244 OA
BRANCH  32  34
ATOM     34  OXT LIG    1       23.809 -31.556  12.702  0.00  0.00    -0.476 OA
ATOM     35  HXT LIG    1       24.046 -31.461  11.757  0.00  0.00    +0.295 HD
ENDBRANCH  32  34
ENDBRANCH   4  32
BRANCH   5  36
ATOM     36  S   LIG    1       25.363 -28.610  14.874  0.00  0.00    -0.064 S 
BRANCH  36  37
ATOM     37  C   LIG    1       23.661 -28.295  14.543  0.00  0.00    +0.140 A 
ATOM     38  S   LIG    1       23.046 -26.695  14.523  0.00  0.00    -0.069 S 
ATOM     39  C   LIG    1       21.550 -27.299  13.946  0.00  0.00    +0.076 A 
ATOM     40  C   LIG    1       21.599 -28.675  13.820  0.00  0.00    +0.080 A 
ATOM     41  N   LIG    1       22.793 -29.242  14.238  0.00  0.00    -0.232 NA
BRANCH  40  42
ATOM     42  C   LIG    1       20.520 -29.498  13.266  0.00  0.00    +0.012 A 
ATOM     43  C   LIG    1       19.349 -29.736  13.992  0.00  0.00    +0.080 A 
ATOM     44  C   LIG    1       18.357 -30.560  13.467  0.00  0.00    +0.309 A 
ATOM     45  N   LIG    1       18.480 -31.078  12.226  0.00  0.00    -0.206 N 
ATOM     46  C   LIG    1       17.379 -31.870  11.652  0.00  0.00    +0.438 C 
ATOM     47  C   LIG    1       19.591 -30.855  11.494  0.00  0.00    +0.309 A 
ATOM     48  C   LIG    1       20.630 -30.083  12.002  0.00  0.00    +0.080 A 
ENDBRANCH  40  42
ENDBRANCH  36  37
ENDBRANCH   5  36
TORSDOF 14
ENDMDL
MODEL 5
REMARK VINA RESULT:      -5.0      2.338      3.370
REMARK  Name = *****
REMARK                            x       y       z     vdW  Elec       q    Type
REMARK                         _______ _______ _______ _____ _____    ______ ____
ROOT
ATOM      1  CA  LIG    1       24.417 -32.068  13.255  0.00  0.00    +0.191 C 
ATOM      2  C   LIG    1       24.749 -32.762  11.902  0.00  0.00    +0.169 C 
ATOM      3  N   LIG    1       25.544 -31.586  11.583  0.00  0.00    -0.248 N 
ATOM      4  CA  LIG    1       26.086 -31.316  10.348  0.00  0.00    +0.133 C 
ATOM      5  C   LIG    1       25.786 -32.127   9.286  0.00  0.00    +0.030 C 
ATOM      6  C   LIG    1       24.654 -33.146   9.296  0.00  0.00    +0.115 C 
ATOM      7  S   LIG    1       23.462 -32.914  10.653  0.00  0.00    -0.130 S 
ATOM      8  C   LIG    1       25.505 -31.061  12.821  0.00  0.00    +0.244 C 
ATOM      9  O   LIG    1       26.024 -30.112  13.393  0.00  0.00    -0.273 OA
ENDROOT
BRANCH   1  11
ATOM     10  C   LIG    1       22.730 -30.248  12.863  0.00  0.00    +0.270 C 
ATOM     11  N   LIG    1       23.109 -31.416  13.485  0.00  0.00    -0.296 N 
ATOM     12  H   LIG    1       22.437 -31.805  14.145  0.00  0.00    +0.150 HD
ATOM     13  O   LIG    1       23.476 -29.618  12.126  0.00  0.00    -0.268 OA
BRANCH  10  15
ATOM     14  N   LIG    1       20.217 -30.350  12.677  0.00  0.00    -0.076 NA
ATOM     15  C   LIG    1       21.301 -29.777  13.128  0.00  0.00    +0.208 C 
BRANCH  15  16
ATOM     16  C   LIG    1       21.070 -28.588  13.947  0.00  0.00    +0.197 A 
ATOM     17  N   LIG    1       19.765 -28.264  14.339  0.00  0.00    -0.202 NA
ATOM     18  C   LIG    1       19.761 -27.124  14.986  0.00  0.00    +0.187 A 
ATOM     19  S   LIG    1       21.364 -26.488  15.117  0.00  0.00    +0.050 S 
ATOM     20  N   LIG    1       22.065 -27.763  14.298  0.00  0.00    -0.185 NA
BRANCH  18  21
ATOM     21  N   LIG    1       18.643 -26.599  15.500  0.00  0.00    -0.230 N 
ATOM     22  H   LIG    1       18.753 -25.887  16.205  0.00  0.00    +0.160 HD
BRANCH  21  23
ATOM     23  P   LIG    1       17.194 -27.051  15.000  0.00  0.00    +0.423 P 
ATOM     24  O   LIG    1       16.517 -28.311  15.423  0.00  0.00    -0.237 OA
BRANCH  23  25
ATOM     25  O   LIG    1       17.221 -26.971  13.403  0.00  0.00    -0.310 OA
ATOM     26  H   LIG    1       17.136 -26.056  13.084  0.00  0.00    +0.221 HD
ENDBRANCH  23  25
BRANCH  23  27
ATOM     27  O   LIG    1       16.211 -25.820  15.287  0.00  0.00    -0.310 OA
ATOM     28  H   LIG    1       15.699 -25.583  14.493  0.00  0.00    +0.221 HD
ENDBRANCH  23  27
ENDBRANCH  21  23
ENDBRANCH  18  21
ENDBRANCH  15  16
BRANCH  14  29
ATOM     29  O   LIG    1       20.400 -31.519  11.934  0.00  0.00    -0.393 OA
BRANCH  29  31
ATOM     30  C   LIG    1       19.411 -33.665  11.463  0.00  0.00    +0.051 C 
ATOM     31  C   LIG    1       19.221 -32.315  12.120  0.00  0.00    +0.259 C 
ENDBRANCH  29  31
ENDBRANCH  14  29
ENDBRANCH  10  15
ENDBRANCH   1  11
BRANCH   4  32
ATOM     32  C   LIG    1       26.962 -30.115  10.169  0.00  0.00    +0.352 C 
ATOM     33  O   LIG    1       28.134 -29.985  10.474  0.00  0.00    -0.244 OA
BRANCH  32  34
ATOM     34  OXT LIG    1       26.320 -29.077   9.617  0.00  0.00    -0.476 OA
ATOM     35  HXT LIG    1       26.996 -28.371   9.570  0.00  0.00    +0.295 HD
ENDBRANCH  32  34
ENDBRANCH   4  32
BRANCH   5  36
ATOM     36  S   LIG    1       26.624 -32.100   7.731  0.00  0.00    -0.064 S 
BRANCH  36  37
ATOM     37  C   LIG    1       25.656 -30.894   6.886  0.00  0.00    +0.140 A 
ATOM     38  S   LIG    1       24.151 -31.308   6.175  0.00  0.00    -0.069 S 
ATOM     39  C   LIG    1       23.873 -29.649   5.848  0.00  0.00    +0.076 A 
ATOM     40  C   LIG    1       24.942 -28.884   6.278  0.00  0.00    +0.080 A 
ATOM     41  N   LIG    1       25.992 -29.620   6.805  0.00  0.00    -0.232 NA
BRANCH  40  42
ATOM     42  C   LIG    1       24.986 -27.420   6.233  0.00  0.00    +0.012 A 
ATOM     43  C   LIG    1       24.119 -26.697   5.408  0.00  0.00    +0.080 A 
ATOM     44  C   LIG    1       24.210 -25.310   5.343  0.00  0.00    +0.309 A 
ATOM     45  N   LIG    1       25.085 -24.641   6.126  0.00  0.00    -0.206 N 
ATOM     46  C   LIG    1       25.102 -23.169   6.111  0.00  0.00    +0.438 C 
ATOM     47  C   LIG    1       25.926 -25.309   6.943  0.00  0.00    +0.309 A 
ATOM     48  C   LIG    1       25.905 -26.698   6.998  0.00  0.00    +0.080 A 
ENDBRANCH  40  42
ENDBRANCH  36  37
ENDBRANCH   5  36
TORSDOF 14
ENDMDL
MODEL 6
REMARK VINA RESULT:      -4.8      2.287      4.144
REMARK  Name = *****
REMARK                            x       y       z     vdW  Elec       q    Type
REMARK                         _______ _______ _______ _____ _____    ______ ____
ROOT
ATOM      1  CA  LIG    1       24.203 -31.926  13.202  0.00  0.00    +0.191 C 
ATOM      2  C   LIG    1       24.539 -32.615  11.848  0.00  0.00    +0.169 C 
ATOM      3  N   LIG    1       25.371 -31.458  11.555  0.00  0.00    -0.248 N 
ATOM      4  CA  LIG    1       25.942 -31.191  10.332  0.00  0.00    +0.133 C 
ATOM      5  C   LIG    1       25.638 -31.982   9.257  0.00  0.00    +0.030 C 
ATOM      6  C   LIG    1       24.479 -32.970   9.236  0.00  0.00    +0.115 C 
ATOM      7  S   LIG    1       23.270 -32.718  10.575  0.00  0.00    -0.130 S 
ATOM      8  C   LIG    1       25.325 -30.945  12.798  0.00  0.00    +0.244 C 
ATOM      9  O   LIG    1       25.860 -30.016  13.388  0.00  0.00    -0.273 OA
ENDROOT
BRANCH   1  11
ATOM     10  C   LIG    1       22.387 -30.322  12.533  0.00  0.00    +0.270 C 
ATOM     11  N   LIG    1       22.909 -31.240  13.417  0.00  0.00    -0.296 N 
ATOM     12  H   LIG    1       22.358 -31.409  14.257  0.00  0.00    +0.150 HD
ATOM     13  O   LIG    1       22.988 -29.948  11.536  0.00  0.00    -0.268 OA
BRANCH  10  15
ATOM     14  N   LIG    1       19.865 -30.357  12.487  0.00  0.00    -0.076 NA
ATOM     15  C   LIG    1       20.988 -29.799  12.855  0.00  0.00    +0.208 C 
BRANCH  15  16
ATOM     16  C   LIG    1       20.836 -28.572  13.633  0.00  0.00    +0.197 A 
ATOM     17  N   LIG    1       21.973 -27.937  14.149  0.00  0.00    -0.202 NA
ATOM     18  C   LIG    1       21.619 -26.912  14.885  0.00  0.00    +0.187 A 
ATOM     19  S   LIG    1       19.899 -26.739  14.910  0.00  0.00    +0.050 S 
ATOM     20  N   LIG    1       19.634 -28.053  13.915  0.00  0.00    -0.185 NA
BRANCH  18  21
ATOM     21  N   LIG    1       22.516 -26.111  15.472  0.00  0.00    -0.230 N 
ATOM     22  H   LIG    1       22.195 -25.553  16.247  0.00  0.00    +0.160 HD
BRANCH  21  23
ATOM     23  P   LIG    1       24.040 -26.060  14.991  0.00  0.00    +0.423 P 
ATOM     24  O   LIG    1       25.048 -25.086  15.500  0.00  0.00    -0.237 OA
BRANCH  23  25
ATOM     25  O   LIG    1       24.008 -26.007  13.393  0.00  0.00    -0.310 OA
ATOM     26  H   LIG    1       24.625 -26.645  12.996  0.00  0.00    +0.221 HD
ENDBRANCH  23  25
BRANCH  23  27
ATOM     27  O   LIG    1       24.622 -27.541  15.171  0.00  0.00    -0.310 OA
ATOM     28  H   LIG    1       24.224 -28.158  14.531  0.00  0.00    +0.221 HD
ENDBRANCH  23  27
ENDBRANCH  21  23
ENDBRANCH  18  21
ENDBRANCH  15  16
BRANCH  14  29
ATOM     29  O   LIG    1       19.975 -31.560  11.785  0.00  0.00    -0.393 OA
BRANCH  29  31
ATOM     30  C   LIG    1       18.544 -31.260   9.870  0.00  0.00    +0.051 C 
ATOM     31  C   LIG    1       18.673 -31.851  11.257  0.00  0.00    +0.259 C 
ENDBRANCH  29  31
ENDBRANCH  14  29
ENDBRANCH  10  15
ENDBRANCH   1  11
BRANCH   4  32
ATOM     32  C   LIG    1       26.853 -30.012  10.181  0.00  0.00    +0.352 C 
ATOM     33  O   LIG    1       26.606 -28.927   9.686  0.00  0.00    -0.244 OA
BRANCH  32  34
ATOM     34  OXT LIG    1       28.087 -30.241  10.650  0.00  0.00    -0.476 OA
ATOM     35  HXT LIG    1       28.647 -30.286   9.849  0.00  0.00    +0.295 HD
ENDBRANCH  32  34
ENDBRANCH   4  32
BRANCH   5  36
ATOM     36  S   LIG    1       26.503 -31.962   7.717  0.00  0.00    -0.064 S 
BRANCH  36  37
ATOM     37  C   LIG    1       25.566 -30.742   6.858  0.00  0.00    +0.140 A 
ATOM     38  S   LIG    1       24.057 -31.129   6.140  0.00  0.00    -0.069 S 
ATOM     39  C   LIG    1       23.816 -29.468   5.800  0.00  0.00    +0.076 A 
ATOM     40  C   LIG    1       24.897 -28.722   6.232  0.00  0.00    +0.080 A 
ATOM     41  N   LIG    1       25.929 -29.476   6.770  0.00  0.00    -0.232 NA
BRANCH  40  42
ATOM     42  C   LIG    1       24.972 -27.259   6.178  0.00  0.00    +0.012 A 
ATOM     43  C   LIG    1       25.935 -26.558   6.910  0.00  0.00    +0.080 A 
ATOM     44  C   LIG    1       25.958 -25.167   6.882  0.00  0.00    +0.309 A 
ATOM     45  N   LIG    1       25.101 -24.481   6.094  0.00  0.00    -0.206 N 
ATOM     46  C   LIG    1       25.202 -23.015   6.007  0.00  0.00    +0.438 C 
ATOM     47  C   LIG    1       24.170 -25.129   5.364  0.00  0.00    +0.309 A 
ATOM     48  C   LIG    1       24.077 -26.516   5.406  0.00  0.00    +0.080 A 
ENDBRANCH  40  42
ENDBRANCH  36  37
ENDBRANCH   5  36
TORSDOF 14
ENDMDL
MODEL 7
REMARK VINA RESULT:      -4.3      4.695      9.304
REMARK  Name = *****
REMARK                            x       y       z     vdW  Elec       q    Type
REMARK                         _______ _______ _______ _____ _____    ______ ____
ROOT
ATOM      1  CA  LIG    1       26.313 -27.430   7.306  0.00  0.00    +0.191 C 
ATOM      2  C   LIG    1       26.668 -28.347   8.512  0.00  0.00    +0.169 C 
ATOM      3  N   LIG    1       25.356 -28.952   8.338  0.00  0.00    -0.248 N 
ATOM      4  CA  LIG    1       24.772 -29.829   9.223  0.00  0.00    +0.133 C 
ATOM      5  C   LIG    1       25.384 -30.087  10.421  0.00  0.00    +0.030 C 
ATOM      6  C   LIG    1       26.525 -29.251  10.984  0.00  0.00    +0.115 C 
ATOM      7  S   LIG    1       26.733 -27.637  10.166  0.00  0.00    -0.130 S 
ATOM      8  C   LIG    1       25.104 -28.377   7.148  0.00  0.00    +0.244 C 
ATOM      9  O   LIG    1       24.229 -28.464   6.296  0.00  0.00    -0.273 OA
ENDROOT
BRANCH   1  11
ATOM     10  C   LIG    1       25.890 -25.092   6.489  0.00  0.00    +0.270 C 
ATOM     11  N   LIG    1       25.901 -26.023   7.503  0.00  0.00    -0.296 N 
ATOM     12  H   LIG    1       25.625 -25.680   8.422  0.00  0.00    +0.150 HD
ATOM     13  O   LIG    1       26.292 -25.339   5.360  0.00  0.00    -0.268 OA
BRANCH  10  15
ATOM     14  N   LIG    1       25.964 -22.774   7.481  0.00  0.00    -0.076 NA
ATOM     15  C   LIG    1       25.325 -23.718   6.842  0.00  0.00    +0.208 C 
BRANCH  15  16
ATOM     16  C   LIG    1       23.955 -23.379   6.460  0.00  0.00    +0.197 A 
ATOM     17  N   LIG    1       23.723 -22.266   5.641  0.00  0.00    -0.202 NA
ATOM     18  C   LIG    1       22.434 -22.083   5.489  0.00  0.00    +0.187 A 
ATOM     19  S   LIG    1       21.537 -23.293   6.337  0.00  0.00    +0.050 S 
ATOM     20  N   LIG    1       22.900 -24.071   6.908  0.00  0.00    -0.185 NA
BRANCH  18  21
ATOM     21  N   LIG    1       21.938 -21.103   4.723  0.00  0.00    -0.230 N 
ATOM     22  H   LIG    1       21.171 -21.341   4.115  0.00  0.00    +0.160 HD
BRANCH  21  23
ATOM     23  P   LIG    1       22.512 -19.613   4.789  0.00  0.00    +0.423 P 
ATOM     24  O   LIG    1       21.792 -18.414   4.270  0.00  0.00    -0.237 OA
BRANCH  23  25
ATOM     25  O   LIG    1       23.981 -19.665   4.161  0.00  0.00    -0.310 OA
ATOM     26  H   LIG    1       24.068 -20.369   3.496  0.00  0.00    +0.221 HD
ENDBRANCH  23  25
BRANCH  23  27
ATOM     27  O   LIG    1       22.912 -19.348   6.317  0.00  0.00    -0.310 OA
ATOM     28  H   LIG    1       22.505 -20.006   6.909  0.00  0.00    +0.221 HD
ENDBRANCH  23  27
ENDBRANCH  21  23
ENDBRANCH  18  21
ENDBRANCH  15  16
BRANCH  14  29
ATOM     29  O   LIG    1       27.293 -23.047   7.815  0.00  0.00    -0.393 OA
BRANCH  29  31
ATOM     30  C   LIG    1       26.996 -20.659   7.952  0.00  0.00    +0.051 C 
ATOM     31  C   LIG    1       27.988 -21.792   7.802  0.00  0.00    +0.259 C 
ENDBRANCH  29  31
ENDBRANCH  14  29
ENDBRANCH  10  15
ENDBRANCH   1  11
BRANCH   4  32
ATOM     32  C   LIG    1       23.454 -30.454   8.887  0.00  0.00    +0.352 C 
ATOM     33  O   LIG    1       22.416 -30.412   9.523  0.00  0.00    -0.244 OA
BRANCH  32  34
ATOM     34  OXT LIG    1       23.482 -31.149   7.742  0.00  0.00    -0.476 OA
ATOM     35  HXT LIG    1       22.547 -31.390   7.582  0.00  0.00    +0.295 HD
ENDBRANCH  32  34
ENDBRANCH   4  32
BRANCH   5  36
ATOM     36  S   LIG    1       24.931 -31.394  11.520  0.00  0.00    -0.064 S 
BRANCH  36  37
ATOM     37  C   LIG    1       24.171 -30.460  12.805  0.00  0.00    +0.140 A 
ATOM     38  S   LIG    1       25.043 -30.022  14.215  0.00  0.00    -0.069 S 
ATOM     39  C   LIG    1       23.722 -29.048  14.706  0.00  0.00    +0.076 A 
ATOM     40  C   LIG    1       22.694 -29.126  13.784  0.00  0.00    +0.080 A 
ATOM     41  N   LIG    1       22.935 -30.000  12.735  0.00  0.00    -0.232 NA
BRANCH  40  42
ATOM     42  C   LIG    1       21.455 -28.345  13.854  0.00  0.00    +0.012 A 
ATOM     43  C   LIG    1       20.445 -28.674  14.763  0.00  0.00    +0.080 A 
ATOM     44  C   LIG    1       19.257 -27.949  14.779  0.00  0.00    +0.309 A 
ATOM     45  N   LIG    1       19.093 -26.879  13.971  0.00  0.00    -0.206 N 
ATOM     46  C   LIG    1       17.868 -26.069  14.069  0.00  0.00    +0.438 C 
ATOM     47  C   LIG    1       20.056 -26.527  13.093  0.00  0.00    +0.309 A 
ATOM     48  C   LIG    1       21.236 -27.257  13.006  0.00  0.00    +0.080 A 
ENDBRANCH  40  42
ENDBRANCH  36  37
ENDBRANCH   5  36
TORSDOF 14
ENDMDL
MODEL 8
REMARK VINA RESULT:      -4.1      5.492     11.009
REMARK  Name = *****
REMARK                            x       y       z     vdW  Elec       q    Type
REMARK                         _______ _______ _______ _____ _____    ______ ____
ROOT
ATOM      1  CA  LIG    1       24.419 -23.637   6.614  0.00  0.00    +0.191 C 
ATOM      2  C   LIG    1       24.054 -25.037   6.039  0.00  0.00    +0.169 C 
ATOM      3  N   LIG    1       25.248 -25.535   6.705  0.00  0.00    -0.248 N 
ATOM      4  CA  LIG    1       25.786 -26.788   6.520  0.00  0.00    +0.133 C 
ATOM      5  C   LIG    1       25.257 -27.615   5.566  0.00  0.00    +0.030 C 
ATOM      6  C   LIG    1       24.299 -27.147   4.479  0.00  0.00    +0.115 C 
ATOM      7  S   LIG    1       24.241 -25.338   4.274  0.00  0.00    -0.130 S 
ATOM      8  C   LIG    1       25.466 -24.424   7.431  0.00  0.00    +0.244 C 
ATOM      9  O   LIG    1       26.238 -24.090   8.321  0.00  0.00    -0.273 OA
ENDROOT
BRANCH   1  11
ATOM     10  C   LIG    1       25.279 -21.312   6.206  0.00  0.00    +0.270 C 
ATOM     11  N   LIG    1       25.038 -22.594   5.766  0.00  0.00    -0.296 N 
ATOM     12  H   LIG    1       25.291 -22.786   4.798  0.00  0.00    +0.150 HD
ATOM     13  O   LIG    1       24.933 -20.914   7.309  0.00  0.00    -0.268 OA
BRANCH  10  15
ATOM     14  N   LIG    1       25.567 -19.950   4.102  0.00  0.00    -0.076 NA
ATOM     15  C   LIG    1       26.031 -20.399   5.238  0.00  0.00    +0.208 C 
BRANCH  15  16
ATOM     16  C   LIG    1       27.389 -19.965   5.560  0.00  0.00    +0.197 A 
ATOM     17  N   LIG    1       28.157 -20.715   6.460  0.00  0.00    -0.202 NA
ATOM     18  C   LIG    1       29.301 -20.116   6.681  0.00  0.00    +0.187 A 
ATOM     19  S   LIG    1       29.416 -18.655   5.762  0.00  0.00    +0.050 S 
ATOM     20  N   LIG    1       27.913 -18.840   5.059  0.00  0.00    -0.185 NA
BRANCH  18  21
ATOM     21  N   LIG    1       30.238 -20.638   7.480  0.00  0.00    -0.230 N 
ATOM     22  H   LIG    1       30.346 -21.640   7.468  0.00  0.00    +0.160 HD
BRANCH  21  23
ATOM     23  P   LIG    1       31.172 -19.718   8.395  0.00  0.00    +0.423 P 
ATOM     24  O   LIG    1       32.055 -18.636   7.871  0.00  0.00    -0.237 OA
BRANCH  23  25
ATOM     25  O   LIG    1       32.030 -20.711   9.309  0.00  0.00    -0.310 OA
ATOM     26  H   LIG    1       31.465 -21.262   9.876  0.00  0.00    +0.221 HD
ENDBRANCH  23  25
BRANCH  23  27
ATOM     27  O   LIG    1       30.227 -19.102   9.531  0.00  0.00    -0.310 OA
ATOM     28  H   LIG    1       30.535 -18.220   9.809  0.00  0.00    +0.221 HD
ENDBRANCH  23  27
ENDBRANCH  21  23
ENDBRANCH  18  21
ENDBRANCH  15  16
BRANCH  14  29
ATOM     29  O   LIG    1       24.253 -20.304   3.788  0.00  0.00    -0.393 OA
BRANCH  29  31
ATOM     30  C   LIG    1       22.459 -19.210   4.968  0.00  0.00    +0.051 C 
ATOM     31  C   LIG    1       23.474 -19.101   3.851  0.00  0.00    +0.259 C 
ENDBRANCH  29  31
ENDBRANCH  14  29
ENDBRANCH  10  15
ENDBRANCH   1  11
BRANCH   4  32
ATOM     32  C   LIG    1       26.968 -27.214   7.333  0.00  0.00    +0.352 C 
ATOM     33  O   LIG    1       26.983 -27.644   8.473  0.00  0.00    -0.244 OA
BRANCH  32  34
ATOM     34  OXT LIG    1       28.130 -27.068   6.684  0.00  0.00    -0.476 OA
ATOM     35  HXT LIG    1       28.811 -27.282   7.353  0.00  0.00    +0.295 HD
ENDBRANCH  32  34
ENDBRANCH   4  32
BRANCH   5  36
ATOM     36  S   LIG    1       25.626 -29.336   5.411  0.00  0.00    -0.064 S 
BRANCH  36  37
ATOM     37  C   LIG    1       24.657 -29.974   6.736  0.00  0.00    +0.140 A 
ATOM     38  S   LIG    1       23.836 -31.473   6.590  0.00  0.00    -0.069 S 
ATOM     39  C   LIG    1       23.423 -31.386   8.251  0.00  0.00    +0.076 A 
ATOM     40  C   LIG    1       23.915 -30.222   8.812  0.00  0.00    +0.080 A 
ATOM     41  N   LIG    1       24.557 -29.384   7.913  0.00  0.00    -0.232 NA
BRANCH  40  42
ATOM     42  C   LIG    1       23.818 -29.880  10.234  0.00  0.00    +0.012 A 
ATOM     43  C   LIG    1       22.617 -30.034  10.933  0.00  0.00    +0.080 A 
ATOM     44  C   LIG    1       22.534 -29.659  12.271  0.00  0.00    +0.309 A 
ATOM     45  N   LIG    1       23.626 -29.210  12.928  0.00  0.00    -0.206 N 
ATOM     46  C   LIG    1       23.540 -28.906  14.366  0.00  0.00    +0.438 C 
ATOM     47  C   LIG    1       24.803 -29.064  12.285  0.00  0.00    +0.309 A 
ATOM     48  C   LIG    1       24.916 -29.375  10.935  0.00  0.00    +0.080 A 
ENDBRANCH  40  42
ENDBRANCH  36  37
ENDBRANCH   5  36
TORSDOF 14
ENDMDL
MODEL 9
REMARK VINA RESULT:      -4.0      4.565      6.337
REMARK  Name = *****
REMARK                            x       y       z     vdW  Elec       q    Type
REMARK                         _______ _______ _______ _____ _____    ______ ____
ROOT
ATOM      1  CA  LIG    1       24.231 -31.762  10.431  0.00  0.00    +0.191 C 
ATOM      2  C   LIG    1       24.350 -30.577   9.429  0.00  0.00    +0.169 C 
ATOM      3  N   LIG    1       24.990 -31.514   8.518  0.00  0.00    -0.248 N 
ATOM      4  CA  LIG    1       25.621 -31.164   7.347  0.00  0.00    +0.133 C 
ATOM      5  C   LIG    1       25.782 -29.840   7.036  0.00  0.00    +0.030 C 
ATOM      6  C   LIG    1       25.576 -28.707   8.033  0.00  0.00    +0.115 C 
ATOM      7  S   LIG    1       25.521 -29.253   9.770  0.00  0.00    -0.130 S 
ATOM      8  C   LIG    1       24.684 -32.616   9.227  0.00  0.00    +0.244 C 
ATOM      9  O   LIG    1       24.793 -33.825   9.067  0.00  0.00    -0.273 OA
ENDROOT
BRANCH   1  11
ATOM     10  C   LIG    1       24.946 -31.243  12.783  0.00  0.00    +0.270 C 
ATOM     11  N   LIG    1       25.148 -31.891  11.585  0.00  0.00    -0.296 N 
ATOM     12  H   LIG    1       25.992 -32.457  11.525  0.00  0.00    +0.150 HD
ATOM     13  O   LIG    1       24.030 -30.452  12.962  0.00  0.00    -0.268 OA
BRANCH  10  15
ATOM     14  N   LIG    1       25.908 -32.669  14.629  0.00  0.00    -0.076 NA
ATOM     15  C   LIG    1       25.927 -31.582  13.904  0.00  0.00    +0.208 C 
BRANCH  15  16
ATOM     16  C   LIG    1       26.995 -30.641  14.239  0.00  0.00    +0.197 A 
ATOM     17  N   LIG    1       26.737 -29.264  14.204  0.00  0.00    -0.202 NA
ATOM     18  C   LIG    1       27.838 -28.596  14.447  0.00  0.00    +0.187 A 
ATOM     19  S   LIG    1       29.160 -29.674  14.735  0.00  0.00    +0.050 S 
ATOM     20  N   LIG    1       28.236 -31.050  14.534  0.00  0.00    -0.185 NA
BRANCH  18  21
ATOM     21  N   LIG    1       27.863 -27.260  14.505  0.00  0.00    -0.230 N 
ATOM     22  H   LIG    1       28.448 -26.842  15.212  0.00  0.00    +0.160 HD
BRANCH  21  23
ATOM     23  P   LIG    1       27.030 -26.357  13.482  0.00  0.00    +0.423 P 
ATOM     24  O   LIG    1       25.588 -26.015  13.648  0.00  0.00    -0.237 OA
BRANCH  23  25
ATOM     25  O   LIG    1       27.266 -26.985  12.030  0.00  0.00    -0.310 OA
ATOM     26  H   LIG    1       26.980 -27.913  11.985  0.00  0.00    +0.221 HD
ENDBRANCH  23  25
BRANCH  23  27
ATOM     27  O   LIG    1       27.860 -25.001  13.295  0.00  0.00    -0.310 OA
ATOM     28  H   LIG    1       28.776 -25.181  13.014  0.00  0.00    +0.221 HD
ENDBRANCH  23  27
ENDBRANCH  21  23
ENDBRANCH  18  21
ENDBRANCH  15  16
BRANCH  14  29
ATOM     29  O   LIG    1       24.932 -33.612  14.300  0.00  0.00    -0.393 OA
BRANCH  29  31
ATOM     30  C   LIG    1       22.581 -33.431  14.798  0.00  0.00    +0.051 C 
ATOM     31  C   LIG    1       23.972 -33.603  15.367  0.00  0.00    +0.259 C 
ENDBRANCH  29  31
ENDBRANCH  14  29
ENDBRANCH  10  15
ENDBRANCH   1  11
BRANCH   4  32
ATOM     32  C   LIG    1       26.163 -32.232   6.449  0.00  0.00    +0.352 C 
ATOM     33  O   LIG    1       27.243 -32.793   6.512  0.00  0.00    -0.244 OA
BRANCH  32  34
ATOM     34  OXT LIG    1       25.322 -32.560   5.459  0.00  0.00    -0.476 OA
ATOM     35  HXT LIG    1       25.009 -33.456   5.695  0.00  0.00    +0.295 HD
ENDBRANCH  32  34
ENDBRANCH   4  32
BRANCH   5  36
ATOM     36  S   LIG    1       26.289 -29.232   5.457  0.00  0.00    -0.064 S 
BRANCH  36  37
ATOM     37  C   LIG    1       25.420 -27.700   5.428  0.00  0.00    +0.140 A 
ATOM     38  S   LIG    1       23.720 -27.651   5.209  0.00  0.00    -0.069 S 
ATOM     39  C   LIG    1       23.747 -25.968   5.531  0.00  0.00    +0.076 A 
ATOM     40  C   LIG    1       25.041 -25.541   5.766  0.00  0.00    +0.080 A 
ATOM     41  N   LIG    1       26.001 -26.531   5.630  0.00  0.00    -0.232 NA
BRANCH  40  42
ATOM     42  C   LIG    1       25.406 -24.177   6.162  0.00  0.00    +0.012 A 
ATOM     43  C   LIG    1       26.187 -23.940   7.297  0.00  0.00    +0.080 A 
ATOM     44  C   LIG    1       26.481 -22.635   7.683  0.00  0.00    +0.309 A 
ATOM     45  N   LIG    1       26.080 -21.589   6.929  0.00  0.00    -0.206 N 
ATOM     46  C   LIG    1       26.480 -20.222   7.303  0.00  0.00    +0.438 C 
ATOM     47  C   LIG    1       25.337 -21.786   5.820  0.00  0.00    +0.309 A 
ATOM     48  C   LIG    1       24.974 -23.069   5.429  0.00  0.00    +0.080 A 
ENDBRANCH  40  42
ENDBRANCH  36  37
ENDBRANCH   5  36
TORSDOF 14
ENDMDL
