MODEL 1
REMARK VINA RESULT:       8.5      0.000      0.000
REMARK  Name = *****
REMARK                            x       y       z     vdW  Elec       q    Type
REMARK                         _______ _______ _______ _____ _____    ______ ____
ROOT
ATOM      1  C   LIG    1       28.349 -15.389   4.437  0.00  0.00    +0.019 C 
ATOM      2  C   LIG    1       27.719 -14.017   4.065  0.00  0.00    +0.029 C 
ATOM      3  C   LIG    1       28.795 -12.944   4.218  0.00  0.00    +0.140 C 
ATOM      4  O   LIG    1       29.475 -12.498   3.335  0.00  0.00    -0.297 OA
ATOM      5  C   LIG    1       28.936 -12.517   5.649  0.00  0.00    +0.075 C 
ATOM      6  C   LIG    1       27.657 -13.051   6.289  0.00  0.00    +0.012 C 
ATOM      7  C   LIG    1       26.693 -13.543   5.163  0.00  0.00    +0.006 C 
ATOM      8  C   LIG    1       25.560 -12.571   4.629  0.00  0.00    +0.001 C 
ATOM      9  C   LIG    1       24.260 -12.408   5.485  0.00  0.00    +0.031 C 
ATOM     10  C   LIG    1       23.235 -13.503   5.325  0.00  0.00    -0.027 C 
ATOM     11  C   LIG    1       23.166 -14.296   4.242  0.00  0.00    -0.065 C 
ATOM     12  C   LIG    1       23.949 -13.976   2.945  0.00  0.00    -0.008 C 
ATOM     13  C   LIG    1       23.007 -13.477   1.812  0.00  0.00    +0.016 C 
ATOM     14  C   LIG    1       24.498 -15.336   2.460  0.00  0.00    +0.013 C 
ATOM     15  C   LIG    1       25.072 -16.054   3.672  0.00  0.00    +0.032 C 
ATOM     16  C   LIG    1       23.936 -16.714   4.426  0.00  0.00    +0.119 C 
ATOM     17  C   LIG    1       22.690 -15.765   4.424  0.00  0.00    +0.062 C 
ATOM     18  C   LIG    1       25.080 -12.854   3.166  0.00  0.00    +0.003 C 
ATOM     19  C   LIG    1       26.283 -12.948   2.222  0.00  0.00    +0.005 C 
ATOM     20  C   LIG    1       27.301 -14.018   2.593  0.00  0.00    +0.015 C 
ENDROOT
BRANCH  16  21
ATOM     21  O   LIG    1       23.703 -17.953   3.762  0.00  0.00    -0.392 OA
ATOM     22  H   LIG    1       23.150 -17.755   2.979  0.00  0.00    +0.210 HD
ENDBRANCH  16  21
TORSDOF 1
ENDMDL
