MODEL 1
REMARK VINA RESULT:       0.8      0.000      0.000
REMARK  Name = *****
REMARK                            x       y       z     vdW  Elec       q    Type
REMARK                         _______ _______ _______ _____ _____    ______ ____
ROOT
ATOM      1  C   LIG    1       26.361 -17.646   4.033  0.00  0.00    +0.144 C 
ATOM      2  C   LIG    1       26.154 -18.862   4.689  0.00  0.00    +0.014 C 
ENDROOT
BRANCH   2   3
ATOM      3  C   LIG    1       24.747 -19.515   4.534  0.00  0.00    -0.016 A 
ATOM      4  C   LIG    1       23.880 -19.661   5.635  0.00  0.00    +0.012 A 
ATOM      5  C   LIG    1       22.580 -20.194   5.488  0.00  0.00    +0.046 A 
ATOM      6  C   LIG    1       22.166 -20.731   4.270  0.00  0.00    +0.120 A 
ATOM      7  C   LIG    1       23.037 -20.657   3.193  0.00  0.00    +0.046 A 
ATOM      8  C   LIG    1       24.254 -19.975   3.302  0.00  0.00    +0.012 A 
BRANCH   6   9
ATOM      9  O   LIG    1       20.919 -21.300   4.220  0.00  0.00    -0.495 OA
ATOM     10  C   LIG    1       19.844 -20.376   4.034  0.00  0.00    +0.277 C 
ENDBRANCH   6   9
ENDBRANCH   2   3
BRANCH   2  11
ATOM     11  C   LIG    1       27.185 -19.647   5.561  0.00  0.00    -0.016 A 
ATOM     12  C   LIG    1       28.579 -19.463   5.548  0.00  0.00    +0.008 A 
ATOM     13  C   LIG    1       29.474 -20.235   6.314  0.00  0.00    +0.001 A 
ATOM     14  C   LIG    1       29.017 -21.321   7.038  0.00  0.00    +0.000 A 
ATOM     15  C   LIG    1       27.653 -21.571   7.062  0.00  0.00    +0.001 A 
ATOM     16  C   LIG    1       26.753 -20.725   6.375  0.00  0.00    +0.008 A 
ENDBRANCH   2  11
BRANCH   1  17
ATOM     17  C   LIG    1       27.591 -16.869   4.060  0.00  0.00    +0.350 C 
ATOM     18  O   LIG    1       28.595 -17.190   4.593  0.00  0.00    -0.244 OA
BRANCH  17  19
ATOM     19  O   LIG    1       27.409 -15.672   3.438  0.00  0.00    -0.460 OA
BRANCH  19  20
ATOM     20  C   LIG    1       27.270 -14.594   4.363  0.00  0.00    +0.236 C 
BRANCH  20  21
ATOM     21  C   LIG    1       27.043 -13.230   3.693  0.00  0.00    +0.026 C 
BRANCH  21  22
ATOM     22  C   LIG    1       28.348 -12.628   3.167  0.00  0.00    +0.003 C 
ATOM     23  C   LIG    1       29.240 -12.034   4.239  0.00  0.00    +0.004 C 
ENDBRANCH  21  22
BRANCH  21  24
ATOM     24  C   LIG    1       25.851 -13.157   2.727  0.00  0.00    +0.007 C 
BRANCH  24  25
ATOM     25  C   LIG    1       24.433 -13.091   3.282  0.00  0.00    +0.000 C 
BRANCH  25  27
ATOM     26  C   LIG    1       23.882 -11.823   5.384  0.00  0.00    +0.004 C 
ATOM     27  C   LIG    1       24.018 -11.747   3.878  0.00  0.00    -0.003 C 
ENDBRANCH  25  27
ENDBRANCH  24  25
ENDBRANCH  21  24
ENDBRANCH  20  21
ENDBRANCH  19  20
ENDBRANCH  17  19
ENDBRANCH   1  17
BRANCH   1  28
ATOM     28  C   LIG    1       25.283 -17.042   3.364  0.00  0.00    +0.107 C 
ATOM     29  N   LIG    1       24.400 -16.547   2.815  0.00  0.00    -0.191 NA
ENDBRANCH   1  28
TORSDOF 12
ENDMDL
MODEL 2
REMARK VINA RESULT:       2.1      2.306      7.239
REMARK  Name = *****
REMARK                            x       y       z     vdW  Elec       q    Type
REMARK                         _______ _______ _______ _____ _____    ______ ____
ROOT
ATOM      1  C   LIG    1       23.653 -15.839   4.310  0.00  0.00    +0.144 C 
ATOM      2  C   LIG    1       24.862 -16.420   3.920  0.00  0.00    +0.014 C 
ENDROOT
BRANCH   2   3
ATOM      3  C   LIG    1       26.065 -15.456   3.689  0.00  0.00    -0.016 A 
ATOM      4  C   LIG    1       27.155 -15.416   4.581  0.00  0.00    +0.012 A 
ATOM      5  C   LIG    1       28.277 -14.589   4.342  0.00  0.00    +0.046 A 
ATOM      6  C   LIG    1       28.274 -13.675   3.290  0.00  0.00    +0.120 A 
ATOM      7  C   LIG    1       27.175 -13.654   2.444  0.00  0.00    +0.046 A 
ATOM      8  C   LIG    1       26.146 -14.592   2.585  0.00  0.00    +0.012 A 
BRANCH   6   9
ATOM      9  O   LIG    1       29.364 -12.853   3.164  0.00  0.00    -0.495 OA
ATOM     10  C   LIG    1       29.460 -11.824   4.152  0.00  0.00    +0.277 C 
ENDBRANCH   6   9
ENDBRANCH   2   3
BRANCH   2  11
ATOM     11  C   LIG    1       25.144 -17.939   3.692  0.00  0.00    -0.016 A 
ATOM     12  C   LIG    1       24.400 -18.796   2.862  0.00  0.00    +0.008 A 
ATOM     13  C   LIG    1       24.660 -20.174   2.731  0.00  0.00    +0.001 A 
ATOM     14  C   LIG    1       25.606 -20.786   3.533  0.00  0.00    +0.000 A 
ATOM     15  C   LIG    1       26.350 -19.995   4.396  0.00  0.00    +0.001 A 
ATOM     16  C   LIG    1       26.154 -18.596   4.440  0.00  0.00    +0.008 A 
ENDBRANCH   2  11
BRANCH   1  17
ATOM     17  C   LIG    1       22.413 -16.555   4.562  0.00  0.00    +0.350 C 
ATOM     18  O   LIG    1       21.394 -16.067   4.907  0.00  0.00    -0.244 OA
BRANCH  17  19
ATOM     19  O   LIG    1       22.601 -17.895   4.412  0.00  0.00    -0.460 OA
BRANCH  19  20
ATOM     20  C   LIG    1       22.240 -18.629   5.582  0.00  0.00    +0.236 C 
BRANCH  20  21
ATOM     21  C   LIG    1       22.778 -20.069   5.599  0.00  0.00    +0.026 C 
BRANCH  21  22
ATOM     22  C   LIG    1       23.344 -20.452   6.969  0.00  0.00    +0.003 C 
ATOM     23  C   LIG    1       24.381 -21.556   6.930  0.00  0.00    +0.004 C 
ENDBRANCH  21  22
BRANCH  21  24
ATOM     24  C   LIG    1       21.871 -21.122   4.947  0.00  0.00    +0.007 C 
BRANCH  24  25
ATOM     25  C   LIG    1       20.979 -20.729   3.775  0.00  0.00    +0.000 C 
BRANCH  25  27
ATOM     26  C   LIG    1       19.728 -18.719   2.922  0.00  0.00    +0.004 C 
ATOM     27  C   LIG    1       19.914 -19.677   4.080  0.00  0.00    -0.003 C 
ENDBRANCH  25  27
ENDBRANCH  24  25
ENDBRANCH  21  24
ENDBRANCH  20  21
ENDBRANCH  19  20
ENDBRANCH  17  19
ENDBRANCH   1  17
BRANCH   1  28
ATOM     28  C   LIG    1       23.563 -14.438   4.378  0.00  0.00    +0.107 C 
ATOM     29  N   LIG    1       23.490 -13.290   4.434  0.00  0.00    -0.191 NA
ENDBRANCH   1  28
TORSDOF 12
ENDMDL
