MODEL 1
REMARK VINA RESULT:      -5.1      0.000      0.000
REMARK  Name = *****
REMARK                            x       y       z     vdW  Elec       q    Type
REMARK                         _______ _______ _______ _____ _____    ______ ____
ROOT
ATOM      1  C   LIG    1       24.200 -31.753  10.113  0.00  0.00    +0.242 C 
ATOM      2  C   LIG    1       25.663 -31.630  10.707  0.00  0.00    +0.195 C 
ATOM      3  S   LIG    1       26.869 -30.561   9.854  0.00  0.00    -0.125 S 
ATOM      4  C   LIG    1       27.010 -29.332  11.243  0.00  0.00    +0.042 C 
ATOM      5  C   LIG    1       25.897 -29.650  12.274  0.00  0.00    +0.201 C 
ATOM      6  C   LIG    1       26.776 -27.951  10.609  0.00  0.00    +0.025 C 
ATOM      7  C   LIG    1       28.446 -29.396  11.776  0.00  0.00    +0.025 C 
ATOM      8  N   LIG    1       25.106 -30.782  11.788  0.00  0.00    -0.266 N 
ATOM      9  C   LIG    1       23.926 -30.577  11.138  0.00  0.00    +0.271 C 
ATOM     10  O   LIG    1       23.084 -29.717  11.306  0.00  0.00    -0.270 OA
ENDROOT
BRANCH   1  11
ATOM     11  N   LIG    1       24.008 -31.301   8.703  0.00  0.00    -0.277 N 
ATOM     12  H   LIG    1       23.402 -30.504   8.537  0.00  0.00    +0.152 HD
ATOM     13  C   LIG    1       24.419 -32.054   7.628  0.00  0.00    +0.234 C 
ATOM     14  O   LIG    1       25.062 -33.099   7.754  0.00  0.00    -0.275 OA
BRANCH  13  15
ATOM     15  C   LIG    1       24.018 -31.517   6.261  0.00  0.00    +0.213 C 
BRANCH  15  16
ATOM     16  C   LIG    1       24.708 -32.271   5.130  0.00  0.00    -0.018 A 
ATOM     17  C   LIG    1       25.950 -31.922   4.621  0.00  0.00    +0.050 A 
ATOM     18  S   LIG    1       26.434 -32.886   3.293  0.00  0.00    -0.105 S 
ATOM     19  C   LIG    1       25.013 -33.824   3.391  0.00  0.00    +0.045 A 
ATOM     20  C   LIG    1       24.186 -33.406   4.412  0.00  0.00    +0.012 A 
ENDBRANCH  15  16
BRANCH  15  21
ATOM     21  C   LIG    1       24.173 -30.009   6.126  0.00  0.00    +0.321 C 
ATOM     22  O   LIG    1       25.088 -29.395   6.667  0.00  0.00    -0.250 OA
BRANCH  21  23
ATOM     23  O   LIG    1       23.245 -29.359   5.388  0.00  0.00    -0.480 OA
ATOM     24  H   LIG    1       22.872 -29.887   4.641  0.00  0.00    +0.295 HD
ENDBRANCH  21  23
ENDBRANCH  15  21
ENDBRANCH  13  15
ENDBRANCH   1  11
BRANCH   1  26
ATOM     25  C   LIG    1       22.009 -32.891  10.395  0.00  0.00    +0.197 C 
ATOM     26  O   LIG    1       23.430 -32.958  10.400  0.00  0.00    -0.349 OA
ENDBRANCH   1  26
BRANCH   5  27
ATOM     27  C   LIG    1       26.328 -29.949  13.721  0.00  0.00    +0.327 C 
ATOM     28  O   LIG    1       26.062 -29.264  14.695  0.00  0.00    -0.249 OA
BRANCH  27  29
ATOM     29  O   LIG    1       26.943 -31.153  13.859  0.00  0.00    -0.479 OA
ATOM     30  H   LIG    1       26.286 -31.874  13.934  0.00  0.00    +0.295 HD
ENDBRANCH  27  29
ENDBRANCH   5  27
TORSDOF 8
ENDMDL
MODEL 2
REMARK VINA RESULT:      -5.0      3.657      7.052
REMARK  Name = *****
REMARK                            x       y       z     vdW  Elec       q    Type
REMARK                         _______ _______ _______ _____ _____    ______ ____
ROOT
ATOM      1  C   LIG    1       24.307 -31.435  11.002  0.00  0.00    +0.242 C 
ATOM      2  C   LIG    1       23.068 -31.667  11.961  0.00  0.00    +0.195 C 
ATOM      3  S   LIG    1       22.710 -30.423  13.246  0.00  0.00    -0.125 S 
ATOM      4  C   LIG    1       21.086 -29.891  12.510  0.00  0.00    +0.042 C 
ATOM      5  C   LIG    1       20.968 -30.532  11.104  0.00  0.00    +0.201 C 
ATOM      6  C   LIG    1       21.157 -28.359  12.398  0.00  0.00    +0.025 C 
ATOM      7  C   LIG    1       19.981 -30.264  13.505  0.00  0.00    +0.025 C 
ATOM      8  N   LIG    1       22.180 -31.306  10.830  0.00  0.00    -0.266 N 
ATOM      9  C   LIG    1       23.194 -30.773  10.091  0.00  0.00    +0.271 C 
ATOM     10  O   LIG    1       23.150 -30.007   9.149  0.00  0.00    -0.270 OA
ENDROOT
BRANCH   1  11
ATOM     11  N   LIG    1       25.318 -30.429  11.443  0.00  0.00    -0.277 N 
ATOM     12  H   LIG    1       25.449 -29.603  10.869  0.00  0.00    +0.152 HD
ATOM     13  C   LIG    1       26.226 -30.690  12.442  0.00  0.00    +0.234 C 
ATOM     14  O   LIG    1       26.203 -31.726  13.110  0.00  0.00    -0.275 OA
BRANCH  13  15
ATOM     15  C   LIG    1       27.278 -29.612  12.668  0.00  0.00    +0.213 C 
BRANCH  15  16
ATOM     16  C   LIG    1       26.656 -28.300  13.130  0.00  0.00    -0.018 A 
ATOM     17  C   LIG    1       25.813 -28.195  14.227  0.00  0.00    +0.050 A 
ATOM     18  S   LIG    1       25.187 -26.619  14.453  0.00  0.00    -0.105 S 
ATOM     19  C   LIG    1       26.061 -26.025  13.115  0.00  0.00    +0.045 A 
ATOM     20  C   LIG    1       26.809 -27.010  12.506  0.00  0.00    +0.012 A 
ENDBRANCH  15  16
BRANCH  15  21
ATOM     21  C   LIG    1       28.221 -29.419  11.490  0.00  0.00    +0.321 C 
ATOM     22  O   LIG    1       27.836 -29.494  10.326  0.00  0.00    -0.250 OA
BRANCH  21  23
ATOM     23  O   LIG    1       29.519 -29.171  11.774  0.00  0.00    -0.480 OA
ATOM     24  H   LIG    1       29.797 -29.436  12.684  0.00  0.00    +0.295 HD
ENDBRANCH  21  23
ENDBRANCH  15  21
ENDBRANCH  13  15
ENDBRANCH   1  11
BRANCH   1  26
ATOM     25  C   LIG    1       25.755 -32.416   9.237  0.00  0.00    +0.197 C 
ATOM     26  O   LIG    1       24.939 -32.598  10.387  0.00  0.00    -0.349 OA
ENDBRANCH   1  26
BRANCH   5  27
ATOM     27  C   LIG    1       19.749 -31.431  10.829  0.00  0.00    +0.327 C 
ATOM     28  O   LIG    1       19.649 -32.605  11.146  0.00  0.00    -0.249 OA
BRANCH  27  29
ATOM     29  O   LIG    1       18.695 -30.757  10.300  0.00  0.00    -0.479 OA
ATOM     30  H   LIG    1       17.902 -31.328  10.255  0.00  0.00    +0.295 HD
ENDBRANCH  27  29
ENDBRANCH   5  27
TORSDOF 8
ENDMDL
MODEL 3
REMARK VINA RESULT:      -4.9      3.135      7.598
REMARK  Name = *****
REMARK                            x       y       z     vdW  Elec       q    Type
REMARK                         _______ _______ _______ _____ _____    ______ ____
ROOT
ATOM      1  C   LIG    1       25.825 -30.177  11.647  0.00  0.00    +0.242 C 
ATOM      2  C   LIG    1       25.118 -31.129  10.598  0.00  0.00    +0.195 C 
ATOM      3  S   LIG    1       23.849 -30.425   9.492  0.00  0.00    -0.125 S 
ATOM      4  C   LIG    1       24.832 -30.681   7.933  0.00  0.00    +0.042 C 
ATOM      5  C   LIG    1       26.270 -31.091   8.340  0.00  0.00    +0.201 C 
ATOM      6  C   LIG    1       24.844 -29.321   7.216  0.00  0.00    +0.025 C 
ATOM      7  C   LIG    1       24.073 -31.691   7.067  0.00  0.00    +0.025 C 
ATOM      8  N   LIG    1       26.367 -31.107   9.801  0.00  0.00    -0.266 N 
ATOM      9  C   LIG    1       26.882 -30.042  10.476  0.00  0.00    +0.271 C 
ATOM     10  O   LIG    1       27.772 -29.277  10.159  0.00  0.00    -0.270 OA
ENDROOT
BRANCH   1  11
ATOM     11  N   LIG    1       25.156 -28.872  11.929  0.00  0.00    -0.277 N 
ATOM     12  H   LIG    1       25.617 -28.024  11.617  0.00  0.00    +0.152 HD
ATOM     13  C   LIG    1       24.085 -28.767  12.786  0.00  0.00    +0.234 C 
ATOM     14  O   LIG    1       23.542 -29.748  13.298  0.00  0.00    -0.275 OA
BRANCH  13  15
ATOM     15  C   LIG    1       23.615 -27.347  13.073  0.00  0.00    +0.213 C 
BRANCH  15  16
ATOM     16  C   LIG    1       24.676 -26.534  13.804  0.00  0.00    -0.018 A 
ATOM     17  C   LIG    1       25.504 -27.059  14.785  0.00  0.00    +0.050 A 
ATOM     18  S   LIG    1       26.533 -25.895  15.500  0.00  0.00    -0.105 S 
ATOM     19  C   LIG    1       25.929 -24.664  14.485  0.00  0.00    +0.045 A 
ATOM     20  C   LIG    1       24.960 -25.132  13.625  0.00  0.00    +0.012 A 
ENDBRANCH  15  16
BRANCH  15  21
ATOM     21  C   LIG    1       22.260 -27.279  13.763  0.00  0.00    +0.321 C 
ATOM     22  O   LIG    1       21.302 -26.695  13.264  0.00  0.00    -0.250 OA
BRANCH  21  23
ATOM     23  O   LIG    1       22.152 -27.882  14.968  0.00  0.00    -0.480 OA
ATOM     24  H   LIG    1       22.165 -28.869  14.934  0.00  0.00    +0.295 HD
ENDBRANCH  21  23
ENDBRANCH  15  21
ENDBRANCH  13  15
ENDBRANCH   1  11
BRANCH   1  26
ATOM     25  C   LIG    1       27.387 -30.061  13.577  0.00  0.00    +0.197 C 
ATOM     26  O   LIG    1       26.383 -30.768  12.860  0.00  0.00    -0.349 OA
ENDBRANCH   1  26
BRANCH   5  27
ATOM     27  C   LIG    1       26.808 -32.431   7.806  0.00  0.00    +0.327 C 
ATOM     28  O   LIG    1       27.350 -32.596   6.725  0.00  0.00    -0.249 OA
BRANCH  27  29
ATOM     29  O   LIG    1       26.751 -33.434   8.721  0.00  0.00    -0.479 OA
ATOM     30  H   LIG    1       26.156 -34.149   8.418  0.00  0.00    +0.295 HD
ENDBRANCH  27  29
ENDBRANCH   5  27
TORSDOF 8
ENDMDL
MODEL 4
REMARK VINA RESULT:      -4.9      2.831      4.475
REMARK  Name = *****
REMARK                            x       y       z     vdW  Elec       q    Type
REMARK                         _______ _______ _______ _____ _____    ______ ____
ROOT
ATOM      1  C   LIG    1       26.229 -30.627  10.250  0.00  0.00    +0.242 C 
ATOM      2  C   LIG    1       25.315 -30.180  11.463  0.00  0.00    +0.195 C 
ATOM      3  S   LIG    1       23.531 -29.932  11.171  0.00  0.00    -0.125 S 
ATOM      4  C   LIG    1       22.990 -31.342  12.258  0.00  0.00    +0.042 C 
ATOM      5  C   LIG    1       24.251 -32.158  12.641  0.00  0.00    +0.201 C 
ATOM      6  C   LIG    1       22.039 -32.193  11.401  0.00  0.00    +0.025 C 
ATOM      7  C   LIG    1       22.202 -30.748  13.431  0.00  0.00    +0.025 C 
ATOM      8  N   LIG    1       25.421 -31.560  11.996  0.00  0.00    -0.266 N 
ATOM      9  C   LIG    1       25.906 -32.066  10.827  0.00  0.00    +0.271 C 
ATOM     10  O   LIG    1       25.945 -33.215  10.435  0.00  0.00    -0.270 OA
ENDROOT
BRANCH   1  11
ATOM     11  N   LIG    1       25.662 -30.451   8.881  0.00  0.00    -0.277 N 
ATOM     12  H   LIG    1       25.385 -31.282   8.369  0.00  0.00    +0.152 HD
ATOM     13  C   LIG    1       25.725 -29.252   8.210  0.00  0.00    +0.234 C 
ATOM     14  O   LIG    1       26.157 -28.220   8.727  0.00  0.00    -0.275 OA
BRANCH  13  15
ATOM     15  C   LIG    1       25.229 -29.282   6.769  0.00  0.00    +0.213 C 
BRANCH  15  16
ATOM     16  C   LIG    1       25.183 -27.887   6.156  0.00  0.00    -0.018 A 
ATOM     17  C   LIG    1       24.277 -26.910   6.539  0.00  0.00    +0.050 A 
ATOM     18  S   LIG    1       24.393 -25.476   5.614  0.00  0.00    -0.105 S 
ATOM     19  C   LIG    1       25.691 -26.108   4.705  0.00  0.00    +0.045 A 
ATOM     20  C   LIG    1       26.022 -27.387   5.096  0.00  0.00    +0.012 A 
ENDBRANCH  15  16
BRANCH  15  21
ATOM     21  C   LIG    1       23.920 -30.034   6.588  0.00  0.00    +0.321 C 
ATOM     22  O   LIG    1       23.520 -30.858   7.406  0.00  0.00    -0.250 OA
BRANCH  21  23
ATOM     23  O   LIG    1       23.207 -29.769   5.470  0.00  0.00    -0.480 OA
ATOM     24  H   LIG    1       22.554 -30.468   5.224  0.00  0.00    +0.295 HD
ENDBRANCH  21  23
ENDBRANCH  15  21
ENDBRANCH  13  15
ENDBRANCH   1  11
BRANCH   1  26
ATOM     25  C   LIG    1       28.146 -29.494  11.353  0.00  0.00    +0.197 C 
ATOM     26  O   LIG    1       27.650 -30.297  10.290  0.00  0.00    -0.349 OA
ENDBRANCH   1  26
BRANCH   5  27
ATOM     27  C   LIG    1       24.562 -32.332  14.138  0.00  0.00    +0.327 C 
ATOM     28  O   LIG    1       24.098 -33.198  14.862  0.00  0.00    -0.249 OA
BRANCH  27  29
ATOM     29  O   LIG    1       25.533 -31.493  14.584  0.00  0.00    -0.479 OA
ATOM     30  H   LIG    1       25.777 -30.843  13.895  0.00  0.00    +0.295 HD
ENDBRANCH  27  29
ENDBRANCH   5  27
TORSDOF 8
ENDMDL
MODEL 5
REMARK VINA RESULT:      -4.9      3.568      4.961
REMARK  Name = *****
REMARK                            x       y       z     vdW  Elec       q    Type
REMARK                         _______ _______ _______ _____ _____    ______ ____
ROOT
ATOM      1  C   LIG    1       22.572 -31.513  11.599  0.00  0.00    +0.242 C 
ATOM      2  C   LIG    1       22.164 -31.051  13.057  0.00  0.00    +0.195 C 
ATOM      3  S   LIG    1       22.779 -29.449  13.674  0.00  0.00    -0.125 S 
ATOM      4  C   LIG    1       21.099 -28.653  13.763  0.00  0.00    +0.042 C 
ATOM      5  C   LIG    1       20.090 -29.593  13.056  0.00  0.00    +0.201 C 
ATOM      6  C   LIG    1       21.221 -27.325  13.000  0.00  0.00    +0.025 C 
ATOM      7  C   LIG    1       20.806 -28.353  15.237  0.00  0.00    +0.025 C 
ATOM      8  N   LIG    1       20.806 -30.760  12.539  0.00  0.00    -0.266 N 
ATOM      9  C   LIG    1       21.198 -30.815  11.235  0.00  0.00    +0.271 C 
ATOM     10  O   LIG    1       20.655 -30.375  10.241  0.00  0.00    -0.270 OA
ENDROOT
BRANCH   1  11
ATOM     11  N   LIG    1       23.726 -30.805  10.968  0.00  0.00    -0.277 N 
ATOM     12  H   LIG    1       24.280 -30.185  11.550  0.00  0.00    +0.152 HD
ATOM     13  C   LIG    1       23.913 -30.776   9.606  0.00  0.00    +0.234 C 
ATOM     14  O   LIG    1       23.206 -31.412   8.822  0.00  0.00    -0.275 OA
BRANCH  13  15
ATOM     15  C   LIG    1       25.054 -29.891   9.122  0.00  0.00    +0.213 C 
BRANCH  15  16
ATOM     16  C   LIG    1       25.054 -29.743   7.605  0.00  0.00    -0.018 A 
ATOM     17  C   LIG    1       24.566 -28.627   6.942  0.00  0.00    +0.050 A 
ATOM     18  S   LIG    1       24.603 -28.778   5.239  0.00  0.00    -0.105 S 
ATOM     19  C   LIG    1       25.314 -30.325   5.341  0.00  0.00    +0.045 A 
ATOM     20  C   LIG    1       25.512 -30.718   6.647  0.00  0.00    +0.012 A 
ENDBRANCH  15  16
BRANCH  15  21
ATOM     21  C   LIG    1       26.417 -30.299   9.660  0.00  0.00    +0.321 C 
ATOM     22  O   LIG    1       26.586 -31.339  10.291  0.00  0.00    -0.250 OA
BRANCH  21  23
ATOM     23  O   LIG    1       27.449 -29.457   9.426  0.00  0.00    -0.480 OA
ATOM     24  H   LIG    1       27.340 -28.888   8.627  0.00  0.00    +0.295 HD
ENDBRANCH  21  23
ENDBRANCH  15  21
ENDBRANCH  13  15
ENDBRANCH   1  11
BRANCH   1  26
ATOM     25  C   LIG    1       23.565 -33.768  11.919  0.00  0.00    +0.197 C 
ATOM     26  O   LIG    1       22.589 -32.941  11.299  0.00  0.00    -0.349 OA
ENDBRANCH   1  26
BRANCH   5  27
ATOM     27  C   LIG    1       18.884 -30.090  13.873  0.00  0.00    +0.327 C 
ATOM     28  O   LIG    1       18.893 -31.037  14.644  0.00  0.00    -0.249 OA
BRANCH  27  29
ATOM     29  O   LIG    1       17.796 -29.283  13.768  0.00  0.00    -0.479 OA
ATOM     30  H   LIG    1       16.970 -29.807  13.779  0.00  0.00    +0.295 HD
ENDBRANCH  27  29
ENDBRANCH   5  27
TORSDOF 8
ENDMDL
MODEL 6
REMARK VINA RESULT:      -4.8      3.505      7.558
REMARK  Name = *****
REMARK                            x       y       z     vdW  Elec       q    Type
REMARK                         _______ _______ _______ _____ _____    ______ ____
ROOT
ATOM      1  C   LIG    1       26.747 -28.892  12.199  0.00  0.00    +0.242 C 
ATOM      2  C   LIG    1       26.384 -30.402  11.890  0.00  0.00    +0.195 C 
ATOM      3  S   LIG    1       24.627 -30.889  11.845  0.00  0.00    -0.125 S 
ATOM      4  C   LIG    1       24.617 -31.298  10.030  0.00  0.00    +0.042 C 
ATOM      5  C   LIG    1       25.952 -30.797   9.423  0.00  0.00    +0.201 C 
ATOM      6  C   LIG    1       23.431 -30.525   9.431  0.00  0.00    +0.025 C 
ATOM      7  C   LIG    1       24.349 -32.801   9.895  0.00  0.00    +0.025 C 
ATOM      8  N   LIG    1       26.742 -30.152  10.473  0.00  0.00    -0.266 N 
ATOM      9  C   LIG    1       26.732 -28.798  10.619  0.00  0.00    +0.271 C 
ATOM     10  O   LIG    1       26.649 -27.925   9.777  0.00  0.00    -0.270 OA
ENDROOT
BRANCH   1  11
ATOM     11  N   LIG    1       25.671 -28.053  12.805  0.00  0.00    -0.277 N 
ATOM     12  H   LIG    1       25.298 -27.286  12.253  0.00  0.00    +0.152 HD
ATOM     13  C   LIG    1       25.344 -28.128  14.138  0.00  0.00    +0.234 C 
ATOM     14  O   LIG    1       25.841 -28.960  14.900  0.00  0.00    -0.275 OA
BRANCH  13  15
ATOM     15  C   LIG    1       24.326 -27.103  14.621  0.00  0.00    +0.213 C 
BRANCH  15  16
ATOM     16  C   LIG    1       22.938 -27.370  14.052  0.00  0.00    -0.018 A 
ATOM     17  C   LIG    1       22.320 -28.611  14.087  0.00  0.00    +0.050 A 
ATOM     18  S   LIG    1       20.808 -28.640  13.288  0.00  0.00    -0.105 S 
ATOM     19  C   LIG    1       20.919 -26.981  12.910  0.00  0.00    +0.045 A 
ATOM     20  C   LIG    1       22.088 -26.420  13.379  0.00  0.00    +0.012 A 
ENDBRANCH  15  16
BRANCH  15  21
ATOM     21  C   LIG    1       24.765 -25.661  14.417  0.00  0.00    +0.321 C 
ATOM     22  O   LIG    1       25.362 -25.296  13.408  0.00  0.00    -0.250 OA
BRANCH  21  23
ATOM     23  O   LIG    1       24.480 -24.785  15.407  0.00  0.00    -0.480 OA
ATOM     24  H   LIG    1       24.598 -25.145  16.319  0.00  0.00    +0.295 HD
ENDBRANCH  21  23
ENDBRANCH  15  21
ENDBRANCH  13  15
ENDBRANCH   1  11
BRANCH   1  26
ATOM     25  C   LIG    1       28.808 -29.647  13.365  0.00  0.00    +0.197 C 
ATOM     26  O   LIG    1       28.052 -28.594  12.782  0.00  0.00    -0.349 OA
ENDBRANCH   1  26
BRANCH   5  27
ATOM     27  C   LIG    1       26.845 -31.829   8.712  0.00  0.00    +0.327 C 
ATOM     28  O   LIG    1       27.472 -32.720   9.261  0.00  0.00    -0.249 OA
BRANCH  27  29
ATOM     29  O   LIG    1       26.777 -31.753   7.357  0.00  0.00    -0.479 OA
ATOM     30  H   LIG    1       25.857 -31.600   7.061  0.00  0.00    +0.295 HD
ENDBRANCH  27  29
ENDBRANCH   5  27
TORSDOF 8
ENDMDL
MODEL 7
REMARK VINA RESULT:      -4.7      2.369      3.290
REMARK  Name = *****
REMARK                            x       y       z     vdW  Elec       q    Type
REMARK                         _______ _______ _______ _____ _____    ______ ____
ROOT
ATOM      1  C   LIG    1       24.901 -31.193  10.765  0.00  0.00    +0.242 C 
ATOM      2  C   LIG    1       25.887 -30.895  11.968  0.00  0.00    +0.195 C 
ATOM      3  S   LIG    1       27.311 -29.792  11.681  0.00  0.00    -0.125 S 
ATOM      4  C   LIG    1       26.712 -28.451  12.823  0.00  0.00    +0.042 C 
ATOM      5  C   LIG    1       25.253 -28.786  13.225  0.00  0.00    +0.201 C 
ATOM      6  C   LIG    1       26.758 -27.150  12.005  0.00  0.00    +0.025 C 
ATOM      7  C   LIG    1       27.711 -28.345  13.980  0.00  0.00    +0.025 C 
ATOM      8  N   LIG    1       24.842 -30.018  12.549  0.00  0.00    -0.266 N 
ATOM      9  C   LIG    1       24.118 -29.971  11.396  0.00  0.00    +0.271 C 
ATOM     10  O   LIG    1       23.265 -29.180  11.045  0.00  0.00    -0.270 OA
ENDROOT
BRANCH   1  11
ATOM     11  N   LIG    1       25.398 -30.872   9.394  0.00  0.00    -0.277 N 
ATOM     12  H   LIG    1       26.378 -30.630   9.287  0.00  0.00    +0.152 HD
ATOM     13  C   LIG    1       24.546 -30.661   8.335  0.00  0.00    +0.234 C 
ATOM     14  O   LIG    1       23.327 -30.823   8.418  0.00  0.00    -0.275 OA
BRANCH  13  15
ATOM     15  C   LIG    1       25.209 -30.201   7.043  0.00  0.00    +0.213 C 
BRANCH  15  16
ATOM     16  C   LIG    1       25.136 -28.689   6.875  0.00  0.00    -0.018 A 
ATOM     17  C   LIG    1       24.212 -28.051   6.060  0.00  0.00    +0.050 A 
ATOM     18  S   LIG    1       24.425 -26.356   5.989  0.00  0.00    -0.105 S 
ATOM     19  C   LIG    1       25.733 -26.424   7.082  0.00  0.00    +0.045 A 
ATOM     20  C   LIG    1       26.004 -27.713   7.486  0.00  0.00    +0.012 A 
ENDBRANCH  15  16
BRANCH  15  21
ATOM     21  C   LIG    1       24.722 -30.943   5.807  0.00  0.00    +0.321 C 
ATOM     22  O   LIG    1       25.482 -31.272   4.901  0.00  0.00    -0.250 OA
BRANCH  21  23
ATOM     23  O   LIG    1       23.401 -31.221   5.738  0.00  0.00    -0.480 OA
ATOM     24  H   LIG    1       23.158 -31.890   5.053  0.00  0.00    +0.295 HD
ENDBRANCH  21  23
ENDBRANCH  15  21
ENDBRANCH  13  15
ENDBRANCH   1  11
BRANCH   1  26
ATOM     25  C   LIG    1       24.789 -33.646  11.152  0.00  0.00    +0.197 C 
ATOM     26  O   LIG    1       24.138 -32.437  10.781  0.00  0.00    -0.349 OA
ENDBRANCH   1  26
BRANCH   5  27
ATOM     27  C   LIG    1       24.941 -28.933  14.725  0.00  0.00    +0.327 C 
ATOM     28  O   LIG    1       25.061 -29.958  15.377  0.00  0.00    -0.249 OA
BRANCH  27  29
ATOM     29  O   LIG    1       24.634 -27.753  15.326  0.00  0.00    -0.479 OA
ATOM     30  H   LIG    1       25.236 -27.042  15.028  0.00  0.00    +0.295 HD
ENDBRANCH  27  29
ENDBRANCH   5  27
TORSDOF 8
ENDMDL
MODEL 8
REMARK VINA RESULT:      -4.6      3.241      5.018
REMARK  Name = *****
REMARK                            x       y       z     vdW  Elec       q    Type
REMARK                         _______ _______ _______ _____ _____    ______ ____
ROOT
ATOM      1  C   LIG    1       25.445 -30.420   7.908  0.00  0.00    +0.242 C 
ATOM      2  C   LIG    1       26.042 -30.997   9.255  0.00  0.00    +0.195 C 
ATOM      3  S   LIG    1       27.087 -29.914  10.286  0.00  0.00    -0.125 S 
ATOM      4  C   LIG    1       25.899 -29.854  11.716  0.00  0.00    +0.042 C 
ATOM      5  C   LIG    1       24.564 -30.492  11.253  0.00  0.00    +0.201 C 
ATOM      6  C   LIG    1       25.699 -28.363  12.035  0.00  0.00    +0.025 C 
ATOM      7  C   LIG    1       26.578 -30.530  12.913  0.00  0.00    +0.025 C 
ATOM      8  N   LIG    1       24.688 -30.892   9.850  0.00  0.00    -0.266 N 
ATOM      9  C   LIG    1       24.218 -30.090   8.854  0.00  0.00    +0.271 C 
ATOM     10  O   LIG    1       23.248 -29.360   8.836  0.00  0.00    -0.270 OA
ENDROOT
BRANCH   1  11
ATOM     11  N   LIG    1       26.071 -29.173   7.375  0.00  0.00    -0.277 N 
ATOM     12  H   LIG    1       26.971 -28.894   7.751  0.00  0.00    +0.152 HD
ATOM     13  C   LIG    1       25.379 -28.283   6.587  0.00  0.00    +0.234 C 
ATOM     14  O   LIG    1       24.235 -28.501   6.183  0.00  0.00    -0.275 OA
BRANCH  13  15
ATOM     15  C   LIG    1       26.119 -26.996   6.249  0.00  0.00    +0.213 C 
BRANCH  15  16
ATOM     16  C   LIG    1       25.271 -25.762   6.534  0.00  0.00    -0.018 A 
ATOM     17  C   LIG    1       23.915 -25.682   6.256  0.00  0.00    +0.050 A 
ATOM     18  S   LIG    1       23.243 -24.146   6.591  0.00  0.00    -0.105 S 
ATOM     19  C   LIG    1       24.740 -23.559   7.159  0.00  0.00    +0.045 A 
ATOM     20  C   LIG    1       25.731 -24.513   7.088  0.00  0.00    +0.012 A 
ENDBRANCH  15  16
BRANCH  15  21
ATOM     21  C   LIG    1       26.709 -26.979   4.847  0.00  0.00    +0.321 C 
ATOM     22  O   LIG    1       26.053 -26.639   3.866  0.00  0.00    -0.250 OA
BRANCH  21  23
ATOM     23  O   LIG    1       27.997 -27.369   4.716  0.00  0.00    -0.480 OA
ATOM     24  H   LIG    1       28.291 -28.040   5.378  0.00  0.00    +0.295 HD
ENDBRANCH  21  23
ENDBRANCH  15  21
ENDBRANCH  13  15
ENDBRANCH   1  11
BRANCH   1  26
ATOM     25  C   LIG    1       26.131 -31.773   5.940  0.00  0.00    +0.197 C 
ATOM     26  O   LIG    1       25.111 -31.354   6.837  0.00  0.00    -0.349 OA
ENDBRANCH   1  26
BRANCH   5  27
ATOM     27  C   LIG    1       24.032 -31.694  12.053  0.00  0.00    +0.327 C 
ATOM     28  O   LIG    1       24.344 -32.860  11.869  0.00  0.00    -0.249 OA
BRANCH  27  29
ATOM     29  O   LIG    1       23.257 -31.335  13.109  0.00  0.00    -0.479 OA
ATOM     30  H   LIG    1       23.426 -30.406  13.366  0.00  0.00    +0.295 HD
ENDBRANCH  27  29
ENDBRANCH   5  27
TORSDOF 8
ENDMDL
MODEL 9
REMARK VINA RESULT:      -4.5      2.089      3.488
REMARK  Name = *****
REMARK                            x       y       z     vdW  Elec       q    Type
REMARK                         _______ _______ _______ _____ _____    ______ ____
ROOT
ATOM      1  C   LIG    1       25.825 -30.973  10.462  0.00  0.00    +0.242 C 
ATOM      2  C   LIG    1       24.883 -30.174  11.453  0.00  0.00    +0.195 C 
ATOM      3  S   LIG    1       23.108 -30.040  11.058  0.00  0.00    -0.125 S 
ATOM      4  C   LIG    1       22.540 -31.042  12.520  0.00  0.00    +0.042 C 
ATOM      5  C   LIG    1       23.790 -31.690  13.167  0.00  0.00    +0.201 C 
ATOM      6  C   LIG    1       21.608 -32.124  11.951  0.00  0.00    +0.025 C 
ATOM      7  C   LIG    1       21.726 -30.115  13.430  0.00  0.00    +0.025 C 
ATOM      8  N   LIG    1       24.976 -31.317  12.393  0.00  0.00    -0.266 N 
ATOM      9  C   LIG    1       25.487 -32.161  11.453  0.00  0.00    +0.271 C 
ATOM     10  O   LIG    1       25.533 -33.375  11.441  0.00  0.00    -0.270 OA
ENDROOT
BRANCH   1  11
ATOM     11  N   LIG    1       25.290 -31.238   9.093  0.00  0.00    -0.277 N 
ATOM     12  H   LIG    1       25.053 -32.195   8.851  0.00  0.00    +0.152 HD
ATOM     13  C   LIG    1       25.331 -30.294   8.094  0.00  0.00    +0.234 C 
ATOM     14  O   LIG    1       25.715 -29.138   8.284  0.00  0.00    -0.275 OA
BRANCH  13  15
ATOM     15  C   LIG    1       24.876 -30.774   6.721  0.00  0.00    +0.213 C 
BRANCH  15  16
ATOM     16  C   LIG    1       25.865 -31.757   6.108  0.00  0.00    -0.018 A 
ATOM     17  C   LIG    1       25.730 -32.286   4.833  0.00  0.00    +0.050 A 
ATOM     18  S   LIG    1       26.934 -33.437   4.444  0.00  0.00    -0.105 S 
ATOM     19  C   LIG    1       27.695 -33.226   5.956  0.00  0.00    +0.045 A 
ATOM     20  C   LIG    1       27.039 -32.302   6.741  0.00  0.00    +0.012 A 
ENDBRANCH  15  16
BRANCH  15  21
ATOM     21  C   LIG    1       24.517 -29.645   5.766  0.00  0.00    +0.321 C 
ATOM     22  O   LIG    1       25.368 -28.908   5.276  0.00  0.00    -0.250 OA
BRANCH  21  23
ATOM     23  O   LIG    1       23.206 -29.473   5.482  0.00  0.00    -0.480 OA
ATOM     24  H   LIG    1       22.597 -30.069   5.981  0.00  0.00    +0.295 HD
ENDBRANCH  21  23
ENDBRANCH  15  21
ENDBRANCH  13  15
ENDBRANCH   1  11
BRANCH   1  26
ATOM     25  C   LIG    1       27.707 -29.501  11.143  0.00  0.00    +0.197 C 
ATOM     26  O   LIG    1       27.245 -30.639  10.427  0.00  0.00    -0.349 OA
ENDBRANCH   1  26
BRANCH   5  27
ATOM     27  C   LIG    1       24.067 -31.384  14.650  0.00  0.00    +0.327 C 
ATOM     28  O   LIG    1       24.780 -30.486  15.066  0.00  0.00    -0.249 OA
BRANCH  27  29
ATOM     29  O   LIG    1       23.322 -32.137  15.500  0.00  0.00    -0.479 OA
ATOM     30  H   LIG    1       23.151 -31.656  16.335  0.00  0.00    +0.295 HD
ENDBRANCH  27  29
ENDBRANCH   5  27
TORSDOF 8
ENDMDL
