MODEL 1
REMARK VINA RESULT:      -8.1      0.000      0.000
REMARK  Name = *****
REMARK                            x       y       z     vdW  Elec       q    Type
REMARK                         _______ _______ _______ _____ _____    ______ ____
ROOT
ATOM      1  S   LIG    1       30.786 -19.413   8.214  0.00  0.00    +0.074 S 
ATOM      2  O   LIG    1       30.778 -20.116   9.487  0.00  0.00    -0.150 OA
ATOM      3  O   LIG    1       31.884 -19.577   7.289  0.00  0.00    -0.150 OA
ENDROOT
BRANCH   1   4
ATOM      4  C   LIG    1       29.280 -19.790   7.368  0.00  0.00    +0.109 A 
ATOM      5  C   LIG    1       28.308 -20.567   7.998  0.00  0.00    +0.030 A 
ATOM      6  C   LIG    1       27.131 -20.884   7.316  0.00  0.00    +0.024 A 
ATOM      7  C   LIG    1       26.891 -20.386   6.031  0.00  0.00    +0.025 A 
ATOM      8  C   LIG    1       27.894 -19.644   5.398  0.00  0.00    +0.024 A 
ATOM      9  C   LIG    1       29.079 -19.326   6.065  0.00  0.00    +0.030 A 
BRANCH   7  10
ATOM     10  N   LIG    1       25.776 -20.820   5.306  0.00  0.00    -0.358 N 
ATOM     11  H   LIG    1       25.957 -20.951   4.315  0.00  0.00    +0.142 HD
ATOM     12  H   LIG    1       25.303 -21.618   5.717  0.00  0.00    +0.142 HD
ENDBRANCH   7  10
ENDBRANCH   1   4
BRANCH   1  13
ATOM     13  N   LIG    1       30.588 -17.783   8.644  0.00  0.00    -0.197 N 
ATOM     14  H   LIG    1       29.581 -17.636   8.716  0.00  0.00    +0.175 HD
BRANCH  13  19
ATOM     15  C   LIG    1       32.115 -16.123  13.092  0.00  0.00    +0.089 C 
ATOM     16  C   LIG    1       31.905 -16.586  11.710  0.00  0.00    +0.136 A 
ATOM     17  O   LIG    1       33.025 -16.865  10.990  0.00  0.00    -0.358 OA
ATOM     18  N   LIG    1       32.660 -17.336   9.741  0.00  0.00    -0.062 NA
ATOM     19  C   LIG    1       31.325 -17.342   9.736  0.00  0.00    +0.181 A 
ATOM     20  C   LIG    1       30.797 -16.834  10.938  0.00  0.00    +0.092 A 
ENDBRANCH  13  19
ENDBRANCH   1  13
TORSDOF 4
ENDMDL
MODEL 2
REMARK VINA RESULT:      -7.9      3.263      4.906
REMARK  Name = *****
REMARK                            x       y       z     vdW  Elec       q    Type
REMARK                         _______ _______ _______ _____ _____    ______ ____
ROOT
ATOM      1  S   LIG    1       26.289 -22.038   7.658  0.00  0.00    +0.074 S 
ATOM      2  O   LIG    1       26.404 -21.300   8.906  0.00  0.00    -0.150 OA
ATOM      3  O   LIG    1       25.916 -23.434   7.661  0.00  0.00    -0.150 OA
ENDROOT
BRANCH   1   4
ATOM      4  C   LIG    1       25.172 -21.164   6.602  0.00  0.00    +0.109 A 
ATOM      5  C   LIG    1       25.624 -20.662   5.381  0.00  0.00    +0.030 A 
ATOM      6  C   LIG    1       24.746 -19.949   4.562  0.00  0.00    +0.024 A 
ATOM      7  C   LIG    1       23.405 -19.780   4.924  0.00  0.00    +0.025 A 
ATOM      8  C   LIG    1       22.980 -20.252   6.170  0.00  0.00    +0.024 A 
ATOM      9  C   LIG    1       23.850 -20.960   7.003  0.00  0.00    +0.030 A 
BRANCH   7  10
ATOM     10  N   LIG    1       22.571 -18.951   4.167  0.00  0.00    -0.358 N 
ATOM     11  H   LIG    1       21.762 -19.428   3.779  0.00  0.00    +0.142 HD
ATOM     12  H   LIG    1       22.318 -18.086   4.633  0.00  0.00    +0.142 HD
ENDBRANCH   7  10
ENDBRANCH   1   4
BRANCH   1  13
ATOM     13  N   LIG    1       27.792 -21.808   6.904  0.00  0.00    -0.197 N 
ATOM     14  H   LIG    1       27.581 -21.550   5.940  0.00  0.00    +0.175 HD
BRANCH  13  19
ATOM     15  C   LIG    1       30.385 -17.902   8.604  0.00  0.00    +0.089 C 
ATOM     16  C   LIG    1       29.786 -19.194   8.230  0.00  0.00    +0.136 A 
ATOM     17  O   LIG    1       30.221 -20.283   8.919  0.00  0.00    -0.358 OA
ATOM     18  N   LIG    1       29.528 -21.402   8.490  0.00  0.00    -0.062 NA
ATOM     19  C   LIG    1       28.682 -20.963   7.555  0.00  0.00    +0.181 A 
ATOM     20  C   LIG    1       28.836 -19.584   7.319  0.00  0.00    +0.092 A 
ENDBRANCH  13  19
ENDBRANCH   1  13
TORSDOF 4
ENDMDL
MODEL 3
REMARK VINA RESULT:      -7.8      5.543      8.484
REMARK  Name = *****
REMARK                            x       y       z     vdW  Elec       q    Type
REMARK                         _______ _______ _______ _____ _____    ______ ____
ROOT
ATOM      1  S   LIG    1       24.095 -21.189   6.060  0.00  0.00    +0.074 S 
ATOM      2  O   LIG    1       23.190 -20.105   6.410  0.00  0.00    -0.150 OA
ATOM      3  O   LIG    1       24.092 -21.749   4.728  0.00  0.00    -0.150 OA
ENDROOT
BRANCH   1   4
ATOM      4  C   LIG    1       25.742 -20.677   6.449  0.00  0.00    +0.109 A 
ATOM      5  C   LIG    1       26.597 -20.261   5.428  0.00  0.00    +0.030 A 
ATOM      6  C   LIG    1       27.905 -19.883   5.737  0.00  0.00    +0.024 A 
ATOM      7  C   LIG    1       28.352 -19.863   7.062  0.00  0.00    +0.025 A 
ATOM      8  C   LIG    1       27.496 -20.323   8.068  0.00  0.00    +0.024 A 
ATOM      9  C   LIG    1       26.187 -20.712   7.773  0.00  0.00    +0.030 A 
BRANCH   7  10
ATOM     10  N   LIG    1       29.699 -19.615   7.347  0.00  0.00    -0.358 N 
ATOM     11  H   LIG    1       30.176 -20.398   7.786  0.00  0.00    +0.142 HD
ATOM     12  H   LIG    1       30.223 -19.240   6.563  0.00  0.00    +0.142 HD
ENDBRANCH   7  10
ENDBRANCH   1   4
BRANCH   1  13
ATOM     13  N   LIG    1       23.777 -22.381   7.225  0.00  0.00    -0.197 N 
ATOM     14  H   LIG    1       22.809 -22.236   7.513  0.00  0.00    +0.175 HD
BRANCH  13  19
ATOM     15  C   LIG    1       26.061 -26.704   6.239  0.00  0.00    +0.089 C 
ATOM     16  C   LIG    1       25.182 -25.539   6.436  0.00  0.00    +0.136 A 
ATOM     17  O   LIG    1       23.847 -25.760   6.295  0.00  0.00    -0.358 OA
ATOM     18  N   LIG    1       23.159 -24.589   6.563  0.00  0.00    -0.062 NA
ATOM     19  C   LIG    1       24.093 -23.686   6.870  0.00  0.00    +0.181 A 
ATOM     20  C   LIG    1       25.391 -24.221   6.760  0.00  0.00    +0.092 A 
ENDBRANCH  13  19
ENDBRANCH   1  13
TORSDOF 4
ENDMDL
MODEL 4
REMARK VINA RESULT:      -7.8      5.540      8.412
REMARK  Name = *****
REMARK                            x       y       z     vdW  Elec       q    Type
REMARK                         _______ _______ _______ _____ _____    ______ ____
ROOT
ATOM      1  S   LIG    1       24.073 -21.192   6.036  0.00  0.00    +0.074 S 
ATOM      2  O   LIG    1       23.173 -20.096   6.360  0.00  0.00    -0.150 OA
ATOM      3  O   LIG    1       24.102 -21.751   4.704  0.00  0.00    -0.150 OA
ENDROOT
BRANCH   1   4
ATOM      4  C   LIG    1       25.715 -20.702   6.473  0.00  0.00    +0.109 A 
ATOM      5  C   LIG    1       26.103 -20.700   7.813  0.00  0.00    +0.030 A 
ATOM      6  C   LIG    1       27.392 -20.287   8.157  0.00  0.00    +0.024 A 
ATOM      7  C   LIG    1       28.317 -19.930   7.170  0.00  0.00    +0.025 A 
ATOM      8  C   LIG    1       27.899 -19.898   5.835  0.00  0.00    +0.024 A 
ATOM      9  C   LIG    1       26.610 -20.300   5.478  0.00  0.00    +0.030 A 
BRANCH   7  10
ATOM     10  N   LIG    1       29.556 -19.390   7.529  0.00  0.00    -0.358 N 
ATOM     11  H   LIG    1       30.148 -19.157   6.737  0.00  0.00    +0.142 HD
ATOM     12  H   LIG    1       29.495 -18.628   8.197  0.00  0.00    +0.142 HD
ENDBRANCH   7  10
ENDBRANCH   1   4
BRANCH   1  13
ATOM     13  N   LIG    1       23.706 -22.380   7.190  0.00  0.00    -0.197 N 
ATOM     14  H   LIG    1       22.723 -22.244   7.425  0.00  0.00    +0.175 HD
BRANCH  13  19
ATOM     15  C   LIG    1       26.091 -26.674   6.324  0.00  0.00    +0.089 C 
ATOM     16  C   LIG    1       25.186 -25.523   6.481  0.00  0.00    +0.136 A 
ATOM     17  O   LIG    1       23.860 -25.769   6.307  0.00  0.00    -0.358 OA
ATOM     18  N   LIG    1       23.145 -24.607   6.541  0.00  0.00    -0.062 NA
ATOM     19  C   LIG    1       24.055 -23.684   6.861  0.00  0.00    +0.181 A 
ATOM     20  C   LIG    1       25.364 -24.197   6.794  0.00  0.00    +0.092 A 
ENDBRANCH  13  19
ENDBRANCH   1  13
TORSDOF 4
ENDMDL
MODEL 5
REMARK VINA RESULT:      -7.8      3.974      5.462
REMARK  Name = *****
REMARK                            x       y       z     vdW  Elec       q    Type
REMARK                         _______ _______ _______ _____ _____    ______ ____
ROOT
ATOM      1  S   LIG    1       26.032 -21.556   7.617  0.00  0.00    +0.074 S 
ATOM      2  O   LIG    1       25.238 -20.509   6.994  0.00  0.00    -0.150 OA
ATOM      3  O   LIG    1       26.200 -21.598   9.052  0.00  0.00    -0.150 OA
ENDROOT
BRANCH   1   4
ATOM      4  C   LIG    1       25.399 -23.118   7.082  0.00  0.00    +0.109 A 
ATOM      5  C   LIG    1       26.280 -24.163   6.802  0.00  0.00    +0.030 A 
ATOM      6  C   LIG    1       25.777 -25.387   6.354  0.00  0.00    +0.024 A 
ATOM      7  C   LIG    1       24.399 -25.596   6.237  0.00  0.00    +0.025 A 
ATOM      8  C   LIG    1       23.532 -24.525   6.481  0.00  0.00    +0.024 A 
ATOM      9  C   LIG    1       24.022 -23.293   6.922  0.00  0.00    +0.030 A 
BRANCH   7  10
ATOM     10  N   LIG    1       23.912 -26.773   5.660  0.00  0.00    -0.358 N 
ATOM     11  H   LIG    1       24.098 -27.607   6.210  0.00  0.00    +0.142 HD
ATOM     12  H   LIG    1       22.942 -26.717   5.366  0.00  0.00    +0.142 HD
ENDBRANCH   7  10
ENDBRANCH   1   4
BRANCH   1  13
ATOM     13  N   LIG    1       27.532 -21.459   6.829  0.00  0.00    -0.197 N 
ATOM     14  H   LIG    1       27.329 -21.120   5.888  0.00  0.00    +0.175 HD
BRANCH  13  19
ATOM     15  C   LIG    1       30.638 -18.002   8.638  0.00  0.00    +0.089 C 
ATOM     16  C   LIG    1       29.869 -19.187   8.223  0.00  0.00    +0.136 A 
ATOM     17  O   LIG    1       30.163 -20.352   8.862  0.00  0.00    -0.358 OA
ATOM     18  N   LIG    1       29.324 -21.351   8.401  0.00  0.00    -0.062 NA
ATOM     19  C   LIG    1       28.533 -20.767   7.498  0.00  0.00    +0.181 A 
ATOM     20  C   LIG    1       28.866 -19.411   7.313  0.00  0.00    +0.092 A 
ENDBRANCH  13  19
ENDBRANCH   1  13
TORSDOF 4
ENDMDL
MODEL 6
REMARK VINA RESULT:      -7.7      4.190      6.036
REMARK  Name = *****
REMARK                            x       y       z     vdW  Elec       q    Type
REMARK                         _______ _______ _______ _____ _____    ______ ____
ROOT
ATOM      1  S   LIG    1       25.066 -21.312   7.860  0.00  0.00    +0.074 S 
ATOM      2  O   LIG    1       23.811 -20.584   7.760  0.00  0.00    -0.150 OA
ATOM      3  O   LIG    1       25.756 -21.421   9.126  0.00  0.00    -0.150 OA
ENDROOT
BRANCH   1   4
ATOM      4  C   LIG    1       24.809 -22.941   7.222  0.00  0.00    +0.109 A 
ATOM      5  C   LIG    1       23.524 -23.351   6.868  0.00  0.00    +0.030 A 
ATOM      6  C   LIG    1       23.321 -24.647   6.388  0.00  0.00    +0.024 A 
ATOM      7  C   LIG    1       24.398 -25.520   6.206  0.00  0.00    +0.025 A 
ATOM      8  C   LIG    1       25.674 -25.107   6.605  0.00  0.00    +0.024 A 
ATOM      9  C   LIG    1       25.890 -23.817   7.093  0.00  0.00    +0.030 A 
BRANCH   7  10
ATOM     10  N   LIG    1       24.171 -26.855   5.856  0.00  0.00    -0.358 N 
ATOM     11  H   LIG    1       23.221 -27.169   6.034  0.00  0.00    +0.142 HD
ATOM     12  H   LIG    1       24.484 -27.095   4.921  0.00  0.00    +0.142 HD
ENDBRANCH   7  10
ENDBRANCH   1   4
BRANCH   1  13
ATOM     13  N   LIG    1       26.055 -20.590   6.685  0.00  0.00    -0.197 N 
ATOM     14  H   LIG    1       25.516 -19.809   6.312  0.00  0.00    +0.175 HD
BRANCH  13  19
ATOM     15  C   LIG    1       30.892 -19.393   6.888  0.00  0.00    +0.089 C 
ATOM     16  C   LIG    1       29.482 -19.772   7.078  0.00  0.00    +0.136 A 
ATOM     17  O   LIG    1       29.023 -19.766   8.358  0.00  0.00    -0.358 OA
ATOM     18  N   LIG    1       27.677 -20.088   8.363  0.00  0.00    -0.062 NA
ATOM     19  C   LIG    1       27.348 -20.273   7.082  0.00  0.00    +0.181 A 
ATOM     20  C   LIG    1       28.462 -20.131   6.232  0.00  0.00    +0.092 A 
ENDBRANCH  13  19
ENDBRANCH   1  13
TORSDOF 4
ENDMDL
MODEL 7
REMARK VINA RESULT:      -7.6      8.118      9.783
REMARK  Name = *****
REMARK                            x       y       z     vdW  Elec       q    Type
REMARK                         _______ _______ _______ _____ _____    ______ ____
ROOT
ATOM      1  S   LIG    1       24.256 -23.742   6.315  0.00  0.00    +0.074 S 
ATOM      2  O   LIG    1       25.419 -23.642   7.184  0.00  0.00    -0.150 OA
ATOM      3  O   LIG    1       23.018 -24.302   6.804  0.00  0.00    -0.150 OA
ENDROOT
BRANCH   1   4
ATOM      4  C   LIG    1       23.922 -22.135   5.657  0.00  0.00    +0.109 A 
ATOM      5  C   LIG    1       23.049 -21.280   6.329  0.00  0.00    +0.030 A 
ATOM      6  C   LIG    1       22.767 -20.021   5.792  0.00  0.00    +0.024 A 
ATOM      7  C   LIG    1       23.393 -19.587   4.619  0.00  0.00    +0.025 A 
ATOM      8  C   LIG    1       24.232 -20.473   3.936  0.00  0.00    +0.024 A 
ATOM      9  C   LIG    1       24.517 -21.737   4.457  0.00  0.00    +0.030 A 
BRANCH   7  10
ATOM     10  N   LIG    1       23.003 -18.385   4.018  0.00  0.00    -0.358 N 
ATOM     11  H   LIG    1       23.614 -18.088   3.263  0.00  0.00    +0.142 HD
ATOM     12  H   LIG    1       22.024 -18.358   3.751  0.00  0.00    +0.142 HD
ENDBRANCH   7  10
ENDBRANCH   1   4
BRANCH   1  13
ATOM     13  N   LIG    1       24.825 -24.600   4.965  0.00  0.00    -0.197 N 
ATOM     14  H   LIG    1       25.599 -24.049   4.594  0.00  0.00    +0.175 HD
BRANCH  13  19
ATOM     15  C   LIG    1       24.634 -29.477   5.990  0.00  0.00    +0.089 C 
ATOM     16  C   LIG    1       24.939 -28.074   5.663  0.00  0.00    +0.136 A 
ATOM     17  O   LIG    1       26.185 -27.823   5.178  0.00  0.00    -0.358 OA
ATOM     18  N   LIG    1       26.294 -26.478   4.870  0.00  0.00    -0.062 NA
ATOM     19  C   LIG    1       25.107 -25.945   5.167  0.00  0.00    +0.181 A 
ATOM     20  C   LIG    1       24.228 -26.900   5.715  0.00  0.00    +0.092 A 
ENDBRANCH  13  19
ENDBRANCH   1  13
TORSDOF 4
ENDMDL
MODEL 8
REMARK VINA RESULT:      -7.5      7.812      8.876
REMARK  Name = *****
REMARK                            x       y       z     vdW  Elec       q    Type
REMARK                         _______ _______ _______ _____ _____    ______ ____
ROOT
ATOM      1  S   LIG    1       24.940 -22.887   6.093  0.00  0.00    +0.074 S 
ATOM      2  O   LIG    1       23.734 -22.749   6.896  0.00  0.00    -0.150 OA
ATOM      3  O   LIG    1       26.156 -22.203   6.468  0.00  0.00    -0.150 OA
ENDROOT
BRANCH   1   4
ATOM      4  C   LIG    1       25.295 -24.611   5.928  0.00  0.00    +0.109 A 
ATOM      5  C   LIG    1       25.127 -25.237   4.692  0.00  0.00    +0.030 A 
ATOM      6  C   LIG    1       25.384 -26.605   4.572  0.00  0.00    +0.024 A 
ATOM      7  C   LIG    1       25.861 -27.343   5.661  0.00  0.00    +0.025 A 
ATOM      8  C   LIG    1       25.984 -26.709   6.902  0.00  0.00    +0.024 A 
ATOM      9  C   LIG    1       25.723 -25.343   7.038  0.00  0.00    +0.030 A 
BRANCH   7  10
ATOM     10  N   LIG    1       25.984 -28.733   5.568  0.00  0.00    -0.358 N 
ATOM     11  H   LIG    1       26.259 -29.179   6.438  0.00  0.00    +0.142 HD
ATOM     12  H   LIG    1       25.184 -29.189   5.141  0.00  0.00    +0.142 HD
ENDBRANCH   7  10
ENDBRANCH   1   4
BRANCH   1  13
ATOM     13  N   LIG    1       24.445 -22.445   4.531  0.00  0.00    -0.197 N 
ATOM     14  H   LIG    1       23.731 -23.122   4.264  0.00  0.00    +0.175 HD
BRANCH  13  19
ATOM     15  C   LIG    1       22.160 -18.012   4.544  0.00  0.00    +0.089 C 
ATOM     16  C   LIG    1       23.001 -19.211   4.386  0.00  0.00    +0.136 A 
ATOM     17  O   LIG    1       24.219 -19.022   3.811  0.00  0.00    -0.358 OA
ATOM     18  N   LIG    1       24.903 -20.225   3.785  0.00  0.00    -0.062 NA
ATOM     19  C   LIG    1       24.087 -21.114   4.354  0.00  0.00    +0.181 A 
ATOM     20  C   LIG    1       22.853 -20.537   4.711  0.00  0.00    +0.092 A 
ENDBRANCH  13  19
ENDBRANCH   1  13
TORSDOF 4
ENDMDL
MODEL 9
REMARK VINA RESULT:      -7.4      3.301      4.776
REMARK  Name = *****
REMARK                            x       y       z     vdW  Elec       q    Type
REMARK                         _______ _______ _______ _____ _____    ______ ____
ROOT
ATOM      1  S   LIG    1       26.821 -21.290   7.263  0.00  0.00    +0.074 S 
ATOM      2  O   LIG    1       27.066 -20.349   8.346  0.00  0.00    -0.150 OA
ATOM      3  O   LIG    1       26.671 -22.701   7.534  0.00  0.00    -0.150 OA
ENDROOT
BRANCH   1   4
ATOM      4  C   LIG    1       25.401 -20.738   6.366  0.00  0.00    +0.109 A 
ATOM      5  C   LIG    1       25.548 -20.262   5.063  0.00  0.00    +0.030 A 
ATOM      6  C   LIG    1       24.427 -19.803   4.367  0.00  0.00    +0.024 A 
ATOM      7  C   LIG    1       23.152 -19.867   4.939  0.00  0.00    +0.025 A 
ATOM      8  C   LIG    1       23.029 -20.307   6.261  0.00  0.00    +0.024 A 
ATOM      9  C   LIG    1       24.143 -20.762   6.972  0.00  0.00    +0.030 A 
BRANCH   7  10
ATOM     10  N   LIG    1       22.060 -19.281   4.291  0.00  0.00    -0.358 N 
ATOM     11  H   LIG    1       21.473 -19.945   3.794  0.00  0.00    +0.142 HD
ATOM     12  H   LIG    1       21.518 -18.658   4.880  0.00  0.00    +0.142 HD
ENDBRANCH   7  10
ENDBRANCH   1   4
BRANCH   1  13
ATOM     13  N   LIG    1       28.095 -21.007   6.178  0.00  0.00    -0.197 N 
ATOM     14  H   LIG    1       27.657 -20.850   5.271  0.00  0.00    +0.175 HD
BRANCH  13  19
ATOM     15  C   LIG    1       31.819 -18.447   8.287  0.00  0.00    +0.089 C 
ATOM     16  C   LIG    1       30.661 -18.985   7.553  0.00  0.00    +0.136 A 
ATOM     17  O   LIG    1       30.148 -18.194   6.573  0.00  0.00    -0.358 OA
ATOM     18  N   LIG    1       29.108 -18.859   5.947  0.00  0.00    -0.062 NA
ATOM     19  C   LIG    1       29.022 -20.043   6.556  0.00  0.00    +0.181 A 
ATOM     20  C   LIG    1       29.949 -20.157   7.609  0.00  0.00    +0.092 A 
ENDBRANCH  13  19
ENDBRANCH   1  13
TORSDOF 4
ENDMDL
