MODEL 1
REMARK VINA RESULT:      -4.7      0.000      0.000
REMARK  Name = *****
REMARK                            x       y       z     vdW  Elec       q    Type
REMARK                         _______ _______ _______ _____ _____    ______ ____
ROOT
ATOM      1  C   LIG    1       24.865 -16.925   3.748  0.00  0.00    -0.032 C 
ATOM      2  C   LIG    1       24.182 -18.221   3.893  0.00  0.00    -0.018 A 
ATOM      3  C   LIG    1       22.875 -18.014   4.351  0.00  0.00    -0.036 A 
ATOM      4  C   LIG    1       22.004 -19.061   4.609  0.00  0.00    +0.004 A 
ATOM      5  C   LIG    1       22.464 -20.359   4.406  0.00  0.00    +0.000 A 
ATOM      6  C   LIG    1       23.768 -20.585   3.948  0.00  0.00    +0.001 A 
ATOM      7  C   LIG    1       22.623 -16.557   4.518  0.00  0.00    +0.067 C 
ATOM      8  C   LIG    1       24.637 -19.517   3.694  0.00  0.00    +0.008 A 
ATOM      9  C   LIG    1       23.968 -15.970   4.126  0.00  0.00    -0.060 C 
ENDROOT
BRANCH   1  11
ATOM     10  C   LIG    1       27.229 -17.772   4.008  0.00  0.00    +0.019 C 
ATOM     11  C   LIG    1       26.305 -16.774   3.285  0.00  0.00    +0.065 C 
BRANCH  11  12
ATOM     12  C   LIG    1       26.860 -15.342   3.330  0.00  0.00    +0.048 A 
ATOM     13  N   LIG    1       26.633 -14.526   2.264  0.00  0.00    -0.259 NA
ATOM     14  C   LIG    1       27.044 -13.240   2.344  0.00  0.00    +0.111 A 
ATOM     15  C   LIG    1       27.685 -12.705   3.445  0.00  0.00    +0.020 A 
ATOM     16  C   LIG    1       27.909 -13.538   4.532  0.00  0.00    +0.003 A 
ATOM     17  C   LIG    1       27.489 -14.867   4.481  0.00  0.00    +0.024 A 
ENDBRANCH  11  12
ENDBRANCH   1  11
BRANCH   9  18
ATOM     18  C   LIG    1       24.149 -14.487   4.301  0.00  0.00    +0.047 C 
BRANCH  18  19
ATOM     19  C   LIG    1       23.518 -13.630   3.176  0.00  0.00    +0.088 C 
BRANCH  19  20
ATOM     20  N   LIG    1       23.574 -12.171   3.419  0.00  0.00    -0.308 NA
ATOM     21  C   LIG    1       24.242 -11.447   2.334  0.00  0.00    +0.104 C 
ATOM     22  C   LIG    1       24.264 -11.889   4.684  0.00  0.00    +0.104 C 
ENDBRANCH  19  20
ENDBRANCH  18  19
ENDBRANCH   9  18
TORSDOF 5
ENDMDL
MODEL 2
REMARK VINA RESULT:      -3.9      1.130      3.345
REMARK  Name = *****
REMARK                            x       y       z     vdW  Elec       q    Type
REMARK                         _______ _______ _______ _____ _____    ______ ____
ROOT
ATOM      1  C   LIG    1       24.517 -16.385   4.064  0.00  0.00    -0.032 C 
ATOM      2  C   LIG    1       23.995 -17.761   4.101  0.00  0.00    -0.018 A 
ATOM      3  C   LIG    1       24.919 -18.629   3.507  0.00  0.00    -0.036 A 
ATOM      4  C   LIG    1       24.682 -19.988   3.372  0.00  0.00    +0.004 A 
ATOM      5  C   LIG    1       23.472 -20.490   3.845  0.00  0.00    +0.000 A 
ATOM      6  C   LIG    1       22.536 -19.637   4.442  0.00  0.00    +0.001 A 
ATOM      7  C   LIG    1       26.115 -17.865   3.057  0.00  0.00    +0.067 C 
ATOM      8  C   LIG    1       22.790 -18.266   4.568  0.00  0.00    +0.008 A 
ATOM      9  C   LIG    1       25.731 -16.448   3.446  0.00  0.00    -0.060 C 
ENDROOT
BRANCH   1  11
ATOM     10  C   LIG    1       22.269 -15.493   4.789  0.00  0.00    +0.019 C 
ATOM     11  C   LIG    1       23.767 -15.180   4.609  0.00  0.00    +0.065 C 
BRANCH  11  12
ATOM     12  C   LIG    1       23.991 -13.869   3.841  0.00  0.00    +0.048 A 
ATOM     13  N   LIG    1       24.213 -13.933   2.500  0.00  0.00    -0.259 NA
ATOM     14  C   LIG    1       24.320 -12.773   1.813  0.00  0.00    +0.111 A 
ATOM     15  C   LIG    1       24.223 -11.523   2.395  0.00  0.00    +0.020 A 
ATOM     16  C   LIG    1       23.991 -11.461   3.761  0.00  0.00    +0.003 A 
ATOM     17  C   LIG    1       23.867 -12.642   4.494  0.00  0.00    +0.024 A 
ENDBRANCH  11  12
ENDBRANCH   1  11
BRANCH   9  18
ATOM     18  C   LIG    1       26.659 -15.342   3.020  0.00  0.00    +0.047 C 
BRANCH  18  19
ATOM     19  C   LIG    1       27.621 -14.854   4.131  0.00  0.00    +0.088 C 
BRANCH  19  20
ATOM     20  N   LIG    1       27.483 -13.418   4.465  0.00  0.00    -0.308 NA
ATOM     21  C   LIG    1       28.700 -12.655   4.174  0.00  0.00    +0.104 C 
ATOM     22  C   LIG    1       27.137 -13.254   5.882  0.00  0.00    +0.104 C 
ENDBRANCH  19  20
ENDBRANCH  18  19
ENDBRANCH   9  18
TORSDOF 5
ENDMDL
MODEL 3
REMARK VINA RESULT:      -3.1      2.476      5.023
REMARK  Name = *****
REMARK                            x       y       z     vdW  Elec       q    Type
REMARK                         _______ _______ _______ _____ _____    ______ ____
ROOT
ATOM      1  C   LIG    1       24.961 -18.765   4.091  0.00  0.00    -0.032 C 
ATOM      2  C   LIG    1       23.517 -19.054   4.065  0.00  0.00    -0.018 A 
ATOM      3  C   LIG    1       23.247 -20.164   4.874  0.00  0.00    -0.036 A 
ATOM      4  C   LIG    1       21.970 -20.686   5.017  0.00  0.00    +0.004 A 
ATOM      5  C   LIG    1       20.932 -20.074   4.319  0.00  0.00    +0.000 A 
ATOM      6  C   LIG    1       21.184 -18.961   3.506  0.00  0.00    +0.001 A 
ATOM      7  C   LIG    1       24.507 -20.659   5.492  0.00  0.00    +0.067 C 
ATOM      8  C   LIG    1       22.480 -18.449   3.370  0.00  0.00    +0.008 A 
ATOM      9  C   LIG    1       25.529 -19.703   4.900  0.00  0.00    -0.060 C 
ENDROOT
BRANCH   1  11
ATOM     10  C   LIG    1       27.147 -17.751   3.338  0.00  0.00    +0.019 C 
ATOM     11  C   LIG    1       25.612 -17.633   3.312  0.00  0.00    +0.065 C 
BRANCH  11  12
ATOM     12  C   LIG    1       25.137 -16.222   3.691  0.00  0.00    +0.048 A 
ATOM     13  N   LIG    1       25.968 -15.172   3.446  0.00  0.00    -0.259 NA
ATOM     14  C   LIG    1       25.512 -13.923   3.698  0.00  0.00    +0.111 A 
ATOM     15  C   LIG    1       24.251 -13.651   4.193  0.00  0.00    +0.020 A 
ATOM     16  C   LIG    1       23.404 -14.723   4.434  0.00  0.00    +0.003 A 
ATOM     17  C   LIG    1       23.844 -16.021   4.177  0.00  0.00    +0.024 A 
ENDBRANCH  11  12
ENDBRANCH   1  11
BRANCH   9  18
ATOM     18  C   LIG    1       26.979 -19.977   5.196  0.00  0.00    +0.047 C 
BRANCH  18  19
ATOM     19  C   LIG    1       27.296 -20.178   6.698  0.00  0.00    +0.088 C 
BRANCH  19  20
ATOM     20  N   LIG    1       28.709 -19.919   7.060  0.00  0.00    -0.308 NA
ATOM     21  C   LIG    1       29.353 -18.962   6.158  0.00  0.00    +0.104 C 
ATOM     22  C   LIG    1       29.474 -21.172   7.062  0.00  0.00    +0.104 C 
ENDBRANCH  19  20
ENDBRANCH  18  19
ENDBRANCH   9  18
TORSDOF 5
ENDMDL
MODEL 4
REMARK VINA RESULT:      -2.9      2.422      4.572
REMARK  Name = *****
REMARK                            x       y       z     vdW  Elec       q    Type
REMARK                         _______ _______ _______ _____ _____    ______ ____
ROOT
ATOM      1  C   LIG    1       25.305 -18.002   3.694  0.00  0.00    -0.032 C 
ATOM      2  C   LIG    1       23.862 -17.905   3.974  0.00  0.00    -0.018 A 
ATOM      3  C   LIG    1       23.488 -16.558   4.050  0.00  0.00    -0.036 A 
ATOM      4  C   LIG    1       22.190 -16.162   4.334  0.00  0.00    +0.004 A 
ATOM      5  C   LIG    1       21.238 -17.153   4.555  0.00  0.00    +0.000 A 
ATOM      6  C   LIG    1       21.594 -18.506   4.482  0.00  0.00    +0.001 A 
ATOM      7  C   LIG    1       24.673 -15.689   3.807  0.00  0.00    +0.067 C 
ATOM      8  C   LIG    1       22.909 -18.889   4.197  0.00  0.00    +0.008 A 
ATOM      9  C   LIG    1       25.770 -16.722   3.616  0.00  0.00    -0.060 C 
ENDROOT
BRANCH   1  11
ATOM     10  C   LIG    1       25.162 -20.404   2.931  0.00  0.00    +0.019 C 
ATOM     11  C   LIG    1       26.054 -19.317   3.560  0.00  0.00    +0.065 C 
BRANCH  11  12
ATOM     12  C   LIG    1       26.743 -19.810   4.842  0.00  0.00    +0.048 A 
ATOM     13  N   LIG    1       26.088 -20.712   5.623  0.00  0.00    -0.259 NA
ATOM     14  C   LIG    1       26.733 -21.211   6.703  0.00  0.00    +0.111 A 
ATOM     15  C   LIG    1       28.020 -20.855   7.062  0.00  0.00    +0.020 A 
ATOM     16  C   LIG    1       28.686 -19.940   6.259  0.00  0.00    +0.003 A 
ATOM     17  C   LIG    1       28.049 -19.415   5.135  0.00  0.00    +0.024 A 
ENDBRANCH  11  12
ENDBRANCH   1  11
BRANCH   9  18
ATOM     18  C   LIG    1       27.178 -16.212   3.476  0.00  0.00    +0.047 C 
BRANCH  18  19
ATOM     19  C   LIG    1       27.284 -14.682   3.258  0.00  0.00    +0.088 C 
BRANCH  19  20
ATOM     20  N   LIG    1       27.937 -13.954   4.369  0.00  0.00    -0.308 NA
ATOM     21  C   LIG    1       26.970 -13.348   5.288  0.00  0.00    +0.104 C 
ATOM     22  C   LIG    1       28.825 -12.909   3.844  0.00  0.00    +0.104 C 
ENDBRANCH  19  20
ENDBRANCH  18  19
ENDBRANCH   9  18
TORSDOF 5
ENDMDL
MODEL 5
REMARK VINA RESULT:      -2.8      2.591      6.880
REMARK  Name = *****
REMARK                            x       y       z     vdW  Elec       q    Type
REMARK                         _______ _______ _______ _____ _____    ______ ____
ROOT
ATOM      1  C   LIG    1       24.946 -17.007   3.651  0.00  0.00    -0.032 C 
ATOM      2  C   LIG    1       25.296 -15.589   3.460  0.00  0.00    -0.018 A 
ATOM      3  C   LIG    1       26.688 -15.443   3.484  0.00  0.00    -0.036 A 
ATOM      4  C   LIG    1       27.308 -14.209   3.359  0.00  0.00    +0.004 A 
ATOM      5  C   LIG    1       26.500 -13.084   3.211  0.00  0.00    +0.000 A 
ATOM      6  C   LIG    1       25.105 -13.212   3.185  0.00  0.00    +0.001 A 
ATOM      7  C   LIG    1       27.334 -16.770   3.678  0.00  0.00    +0.067 C 
ATOM      8  C   LIG    1       24.496 -14.465   3.315  0.00  0.00    +0.008 A 
ATOM      9  C   LIG    1       26.123 -17.680   3.794  0.00  0.00    -0.060 C 
ENDROOT
BRANCH   1  11
ATOM     10  C   LIG    1       22.596 -16.557   4.457  0.00  0.00    +0.019 C 
ATOM     11  C   LIG    1       23.519 -17.527   3.695  0.00  0.00    +0.065 C 
BRANCH  11  12
ATOM     12  C   LIG    1       23.366 -18.973   4.190  0.00  0.00    +0.048 A 
ATOM     13  N   LIG    1       23.901 -19.975   3.438  0.00  0.00    -0.259 NA
ATOM     14  C   LIG    1       23.843 -21.238   3.921  0.00  0.00    +0.111 A 
ATOM     15  C   LIG    1       23.268 -21.572   5.133  0.00  0.00    +0.020 A 
ATOM     16  C   LIG    1       22.730 -20.547   5.899  0.00  0.00    +0.003 A 
ATOM     17  C   LIG    1       22.782 -19.235   5.430  0.00  0.00    +0.024 A 
ENDBRANCH  11  12
ENDBRANCH   1  11
BRANCH   9  18
ATOM     18  C   LIG    1       26.378 -19.123   4.138  0.00  0.00    +0.047 C 
BRANCH  18  19
ATOM     19  C   LIG    1       27.552 -19.346   5.122  0.00  0.00    +0.088 C 
BRANCH  19  20
ATOM     20  N   LIG    1       27.415 -20.555   5.967  0.00  0.00    -0.308 NA
ATOM     21  C   LIG    1       26.306 -20.450   6.919  0.00  0.00    +0.104 C 
ATOM     22  C   LIG    1       28.660 -20.810   6.701  0.00  0.00    +0.104 C 
ENDBRANCH  19  20
ENDBRANCH  18  19
ENDBRANCH   9  18
TORSDOF 5
ENDMDL
MODEL 6
REMARK VINA RESULT:      -2.7      2.709      5.896
REMARK  Name = *****
REMARK                            x       y       z     vdW  Elec       q    Type
REMARK                         _______ _______ _______ _____ _____    ______ ____
ROOT
ATOM      1  C   LIG    1       26.446 -18.869   4.337  0.00  0.00    -0.032 C 
ATOM      2  C   LIG    1       27.373 -19.501   5.292  0.00  0.00    -0.018 A 
ATOM      3  C   LIG    1       28.430 -18.626   5.568  0.00  0.00    -0.036 A 
ATOM      4  C   LIG    1       29.474 -18.967   6.414  0.00  0.00    +0.004 A 
ATOM      5  C   LIG    1       29.457 -20.231   6.998  0.00  0.00    +0.000 A 
ATOM      6  C   LIG    1       28.406 -21.119   6.734  0.00  0.00    +0.001 A 
ATOM      7  C   LIG    1       28.246 -17.356   4.814  0.00  0.00    +0.067 C 
ATOM      8  C   LIG    1       27.361 -20.761   5.875  0.00  0.00    +0.008 A 
ATOM      9  C   LIG    1       26.964 -17.641   4.051  0.00  0.00    -0.060 C 
ENDROOT
BRANCH   1  11
ATOM     10  C   LIG    1       24.328 -18.552   2.999  0.00  0.00    +0.019 C 
ATOM     11  C   LIG    1       25.192 -19.542   3.804  0.00  0.00    +0.065 C 
BRANCH  11  12
ATOM     12  C   LIG    1       24.366 -20.306   4.850  0.00  0.00    +0.048 A 
ATOM     13  N   LIG    1       24.839 -20.377   6.124  0.00  0.00    -0.259 NA
ATOM     14  C   LIG    1       24.067 -20.972   7.062  0.00  0.00    +0.111 A 
ATOM     15  C   LIG    1       22.825 -21.518   6.801  0.00  0.00    +0.020 A 
ATOM     16  C   LIG    1       22.342 -21.439   5.502  0.00  0.00    +0.003 A 
ATOM     17  C   LIG    1       23.113 -20.823   4.516  0.00  0.00    +0.024 A 
ENDBRANCH  11  12
ENDBRANCH   1  11
BRANCH   9  18
ATOM     18  C   LIG    1       26.516 -16.611   3.050  0.00  0.00    +0.047 C 
BRANCH  18  19
ATOM     19  C   LIG    1       25.640 -15.481   3.645  0.00  0.00    +0.088 C 
BRANCH  19  20
ATOM     20  N   LIG    1       26.201 -14.122   3.472  0.00  0.00    -0.308 NA
ATOM     21  C   LIG    1       26.573 -13.503   4.746  0.00  0.00    +0.104 C 
ATOM     22  C   LIG    1       25.239 -13.257   2.777  0.00  0.00    +0.104 C 
ENDBRANCH  19  20
ENDBRANCH  18  19
ENDBRANCH   9  18
TORSDOF 5
ENDMDL
MODEL 7
REMARK VINA RESULT:      -2.5      2.748      5.889
REMARK  Name = *****
REMARK                            x       y       z     vdW  Elec       q    Type
REMARK                         _______ _______ _______ _____ _____    ______ ____
ROOT
ATOM      1  C   LIG    1       24.684 -17.568   3.808  0.00  0.00    -0.032 C 
ATOM      2  C   LIG    1       25.292 -16.236   3.641  0.00  0.00    -0.018 A 
ATOM      3  C   LIG    1       24.369 -15.250   4.010  0.00  0.00    -0.036 A 
ATOM      4  C   LIG    1       24.656 -13.896   3.927  0.00  0.00    +0.004 A 
ATOM      5  C   LIG    1       25.910 -13.522   3.452  0.00  0.00    +0.000 A 
ATOM      6  C   LIG    1       26.846 -14.495   3.079  0.00  0.00    +0.001 A 
ATOM      7  C   LIG    1       23.100 -15.886   4.457  0.00  0.00    +0.067 C 
ATOM      8  C   LIG    1       26.540 -15.858   3.166  0.00  0.00    +0.008 A 
ATOM      9  C   LIG    1       23.415 -17.359   4.261  0.00  0.00    -0.060 C 
ENDROOT
BRANCH   1  11
ATOM     10  C   LIG    1       24.563 -19.740   2.527  0.00  0.00    +0.019 C 
ATOM     11  C   LIG    1       25.398 -18.870   3.485  0.00  0.00    +0.065 C 
BRANCH  11  12
ATOM     12  C   LIG    1       25.888 -19.666   4.705  0.00  0.00    +0.048 A 
ATOM     13  N   LIG    1       27.164 -19.470   5.136  0.00  0.00    -0.259 NA
ATOM     14  C   LIG    1       27.563 -20.104   6.263  0.00  0.00    +0.111 A 
ATOM     15  C   LIG    1       26.750 -20.944   7.001  0.00  0.00    +0.020 A 
ATOM     16  C   LIG    1       25.448 -21.136   6.561  0.00  0.00    +0.003 A 
ATOM     17  C   LIG    1       25.007 -20.489   5.407  0.00  0.00    +0.024 A 
ENDBRANCH  11  12
ENDBRANCH   1  11
BRANCH   9  18
ATOM     18  C   LIG    1       22.295 -18.339   4.487  0.00  0.00    +0.047 C 
BRANCH  18  19
ATOM     19  C   LIG    1       21.446 -18.639   3.228  0.00  0.00    +0.088 C 
BRANCH  19  20
ATOM     20  N   LIG    1       19.984 -18.534   3.442  0.00  0.00    -0.308 NA
ATOM     21  C   LIG    1       19.350 -19.841   3.629  0.00  0.00    +0.104 C 
ATOM     22  C   LIG    1       19.350 -17.846   2.310  0.00  0.00    +0.104 C 
ENDBRANCH  19  20
ENDBRANCH  18  19
ENDBRANCH   9  18
TORSDOF 5
ENDMDL
MODEL 8
REMARK VINA RESULT:      -2.2      2.069      3.380
REMARK  Name = *****
REMARK                            x       y       z     vdW  Elec       q    Type
REMARK                         _______ _______ _______ _____ _____    ______ ____
ROOT
ATOM      1  C   LIG    1       24.836 -18.224   3.743  0.00  0.00    -0.032 C 
ATOM      2  C   LIG    1       23.803 -19.223   4.067  0.00  0.00    -0.018 A 
ATOM      3  C   LIG    1       22.600 -18.572   4.365  0.00  0.00    -0.036 A 
ATOM      4  C   LIG    1       21.455 -19.261   4.737  0.00  0.00    +0.004 A 
ATOM      5  C   LIG    1       21.525 -20.649   4.818  0.00  0.00    +0.000 A 
ATOM      6  C   LIG    1       22.721 -21.317   4.522  0.00  0.00    +0.001 A 
ATOM      7  C   LIG    1       22.775 -17.100   4.238  0.00  0.00    +0.067 C 
ATOM      8  C   LIG    1       23.868 -20.607   4.151  0.00  0.00    +0.008 A 
ATOM      9  C   LIG    1       24.243 -17.002   3.861  0.00  0.00    -0.060 C 
ENDROOT
BRANCH   1  11
ATOM     10  C   LIG    1       26.321 -19.673   2.304  0.00  0.00    +0.019 C 
ATOM     11  C   LIG    1       26.271 -18.577   3.386  0.00  0.00    +0.065 C 
BRANCH  11  12
ATOM     12  C   LIG    1       27.180 -18.906   4.579  0.00  0.00    +0.048 A 
ATOM     13  N   LIG    1       26.856 -19.967   5.367  0.00  0.00    -0.259 NA
ATOM     14  C   LIG    1       27.706 -20.309   6.363  0.00  0.00    +0.111 A 
ATOM     15  C   LIG    1       28.885 -19.639   6.630  0.00  0.00    +0.020 A 
ATOM     16  C   LIG    1       29.216 -18.561   5.820  0.00  0.00    +0.003 A 
ATOM     17  C   LIG    1       28.362 -18.192   4.781  0.00  0.00    +0.024 A 
ENDBRANCH  11  12
ENDBRANCH   1  11
BRANCH   9  18
ATOM     18  C   LIG    1       24.841 -15.624   3.773  0.00  0.00    +0.047 C 
BRANCH  18  19
ATOM     19  C   LIG    1       23.865 -14.481   4.143  0.00  0.00    +0.088 C 
BRANCH  19  20
ATOM     20  N   LIG    1       24.001 -13.269   3.303  0.00  0.00    -0.308 NA
ATOM     21  C   LIG    1       25.253 -13.252   2.542  0.00  0.00    +0.104 C 
ATOM     22  C   LIG    1       23.922 -12.060   4.131  0.00  0.00    +0.104 C 
ENDBRANCH  19  20
ENDBRANCH  18  19
ENDBRANCH   9  18
TORSDOF 5
ENDMDL
