MODEL 1
REMARK VINA RESULT:      -6.0      0.000      0.000
REMARK  Name = *****
REMARK                            x       y       z     vdW  Elec       q    Type
REMARK                         _______ _______ _______ _____ _____    ______ ____
ROOT
ATOM      1  C   LIG    1       26.171 -20.638   5.627  0.00  0.00    -0.018 A 
ATOM      2  C   LIG    1       26.831 -19.515   5.042  0.00  0.00    +0.039 A 
ATOM      3  I   LIG    1       25.960 -18.410   3.399  0.00  0.00    -0.042 I 
ATOM      4  C   LIG    1       28.103 -19.057   5.486  0.00  0.00    +0.051 A 
ATOM      5  C   LIG    1       28.777 -19.827   6.443  0.00  0.00    +0.036 A 
ATOM      6  I   LIG    1       30.739 -19.362   7.055  0.00  0.00    -0.042 I 
ATOM      7  C   LIG    1       28.164 -20.927   7.038  0.00  0.00    +0.030 A 
ATOM      8  C   LIG    1       26.868 -21.310   6.657  0.00  0.00    +0.019 A 
ATOM      9  I   LIG    1       26.096 -22.966   7.720  0.00  0.00    -0.043 I 
ENDROOT
BRANCH   4  10
ATOM     10  N   LIG    1       28.771 -18.001   4.827  0.00  0.00    -0.356 N 
ATOM     11  H   LIG    1       28.316 -17.100   4.959  0.00  0.00    +0.142 HD
ATOM     12  H   LIG    1       29.770 -17.972   5.018  0.00  0.00    +0.142 HD
ENDBRANCH   4  10
BRANCH   1  13
ATOM     13  C   LIG    1       24.815 -21.138   5.133  0.00  0.00    +0.052 C 
BRANCH  13  14
ATOM     14  C   LIG    1       23.546 -20.543   5.793  0.00  0.00    +0.102 C 
BRANCH  14  16
ATOM     15  C   LIG    1       22.230 -18.659   4.624  0.00  0.00    +0.004 C 
ATOM     16  C   LIG    1       22.462 -20.155   4.777  0.00  0.00    +0.011 C 
ENDBRANCH  14  16
BRANCH  14  17
ATOM     17  C   LIG    1       23.003 -21.581   6.768  0.00  0.00    +0.308 C 
ATOM     18  O   LIG    1       22.962 -21.497   7.979  0.00  0.00    -0.251 OA
BRANCH  17  19
ATOM     19  O   LIG    1       22.512 -22.673   6.144  0.00  0.00    -0.480 OA
ATOM     20  H   LIG    1       21.953 -23.104   6.825  0.00  0.00    +0.295 HD
ENDBRANCH  17  19
ENDBRANCH  14  17
ENDBRANCH  13  14
ENDBRANCH   1  13
TORSDOF 6
ENDMDL
MODEL 2
REMARK VINA RESULT:      -5.7      1.188      2.725
REMARK  Name = *****
REMARK                            x       y       z     vdW  Elec       q    Type
REMARK                         _______ _______ _______ _____ _____    ______ ____
ROOT
ATOM      1  C   LIG    1       26.082 -20.731   5.455  0.00  0.00    -0.018 A 
ATOM      2  C   LIG    1       26.814 -21.433   6.459  0.00  0.00    +0.039 A 
ATOM      3  I   LIG    1       26.000 -23.172   7.455  0.00  0.00    -0.042 I 
ATOM      4  C   LIG    1       28.112 -21.032   6.883  0.00  0.00    +0.051 A 
ATOM      5  C   LIG    1       28.620 -19.827   6.380  0.00  0.00    +0.036 A 
ATOM      6  I   LIG    1       30.448 -19.029   7.059  0.00  0.00    -0.042 I 
ATOM      7  C   LIG    1       27.936 -19.116   5.397  0.00  0.00    +0.030 A 
ATOM      8  C   LIG    1       26.699 -19.577   4.919  0.00  0.00    +0.019 A 
ATOM      9  I   LIG    1       25.855 -18.389   3.388  0.00  0.00    -0.043 I 
ENDROOT
BRANCH   4  10
ATOM     10  N   LIG    1       28.772 -21.692   7.943  0.00  0.00    -0.356 N 
ATOM     11  H   LIG    1       29.717 -21.350   8.098  0.00  0.00    +0.142 HD
ATOM     12  H   LIG    1       28.222 -21.735   8.798  0.00  0.00    +0.142 HD
ENDBRANCH   4  10
BRANCH   1  13
ATOM     13  C   LIG    1       24.681 -21.153   5.019  0.00  0.00    +0.052 C 
BRANCH  13  14
ATOM     14  C   LIG    1       23.477 -20.525   5.766  0.00  0.00    +0.102 C 
BRANCH  14  16
ATOM     15  C   LIG    1       22.209 -18.585   4.636  0.00  0.00    +0.004 C 
ATOM     16  C   LIG    1       22.344 -20.088   4.826  0.00  0.00    +0.011 C 
ENDBRANCH  14  16
BRANCH  14  17
ATOM     17  C   LIG    1       22.962 -21.556   6.762  0.00  0.00    +0.308 C 
ATOM     18  O   LIG    1       22.978 -21.476   7.973  0.00  0.00    -0.251 OA
BRANCH  17  19
ATOM     19  O   LIG    1       22.427 -22.640   6.159  0.00  0.00    -0.480 OA
ATOM     20  H   LIG    1       21.844 -22.262   5.466  0.00  0.00    +0.295 HD
ENDBRANCH  17  19
ENDBRANCH  14  17
ENDBRANCH  13  14
ENDBRANCH   1  13
TORSDOF 6
ENDMDL
MODEL 3
REMARK VINA RESULT:      -5.1      4.788      6.763
REMARK  Name = *****
REMARK                            x       y       z     vdW  Elec       q    Type
REMARK                         _______ _______ _______ _____ _____    ______ ____
ROOT
ATOM      1  C   LIG    1       29.732 -19.927   7.200  0.00  0.00    -0.018 A 
ATOM      2  C   LIG    1       28.672 -19.654   6.284  0.00  0.00    +0.039 A 
ATOM      3  I   LIG    1       28.669 -17.885   5.039  0.00  0.00    -0.042 I 
ATOM      4  C   LIG    1       27.546 -20.512   6.137  0.00  0.00    +0.051 A 
ATOM      5  C   LIG    1       27.426 -21.589   7.025  0.00  0.00    +0.036 A 
ATOM      6  I   LIG    1       25.723 -22.829   7.034  0.00  0.00    -0.042 I 
ATOM      7  C   LIG    1       28.441 -21.888   7.930  0.00  0.00    +0.030 A 
ATOM      8  C   LIG    1       29.592 -21.087   7.997  0.00  0.00    +0.019 A 
ATOM      9  I   LIG    1       31.038 -21.743   9.391  0.00  0.00    -0.043 I 
ENDROOT
BRANCH   4  10
ATOM     10  N   LIG    1       26.470 -20.168   5.290  0.00  0.00    -0.356 N 
ATOM     11  H   LIG    1       26.774 -19.814   4.386  0.00  0.00    +0.142 HD
ATOM     12  H   LIG    1       25.766 -20.898   5.212  0.00  0.00    +0.142 HD
ENDBRANCH   4  10
BRANCH   1  13
ATOM     13  C   LIG    1       30.928 -18.992   7.368  0.00  0.00    +0.052 C 
BRANCH  13  14
ATOM     14  C   LIG    1       30.758 -17.771   8.307  0.00  0.00    +0.102 C 
BRANCH  14  16
ATOM     15  C   LIG    1       30.013 -17.476  10.757  0.00  0.00    +0.004 C 
ATOM     16  C   LIG    1       29.660 -17.969   9.362  0.00  0.00    +0.011 C 
ENDBRANCH  14  16
BRANCH  14  17
ATOM     17  C   LIG    1       32.098 -17.520   8.986  0.00  0.00    +0.308 C 
ATOM     18  O   LIG    1       32.663 -18.243   9.781  0.00  0.00    -0.251 OA
BRANCH  17  19
ATOM     19  O   LIG    1       32.668 -16.358   8.600  0.00  0.00    -0.480 OA
ATOM     20  H   LIG    1       33.464 -16.283   9.167  0.00  0.00    +0.295 HD
ENDBRANCH  17  19
ENDBRANCH  14  17
ENDBRANCH  13  14
ENDBRANCH   1  13
TORSDOF 6
ENDMDL
MODEL 4
REMARK VINA RESULT:      -4.7      9.646     11.699
REMARK  Name = *****
REMARK                            x       y       z     vdW  Elec       q    Type
REMARK                         _______ _______ _______ _____ _____    ______ ____
ROOT
ATOM      1  C   LIG    1       24.372 -29.473  11.756  0.00  0.00    -0.018 A 
ATOM      2  C   LIG    1       23.035 -29.921  11.531  0.00  0.00    +0.039 A 
ATOM      3  I   LIG    1       22.598 -31.598  10.236  0.00  0.00    -0.042 I 
ATOM      4  C   LIG    1       21.906 -29.292  12.126  0.00  0.00    +0.051 A 
ATOM      5  C   LIG    1       22.121 -28.112  12.850  0.00  0.00    +0.036 A 
ATOM      6  I   LIG    1       20.521 -26.986  13.630  0.00  0.00    -0.042 I 
ATOM      7  C   LIG    1       23.411 -27.646  13.092  0.00  0.00    +0.030 A 
ATOM      8  C   LIG    1       24.522 -28.333  12.578  0.00  0.00    +0.019 A 
ATOM      9  I   LIG    1       26.390 -27.498  13.109  0.00  0.00    -0.043 I 
ENDROOT
BRANCH   4  10
ATOM     10  N   LIG    1       20.591 -29.701  11.811  0.00  0.00    -0.356 N 
ATOM     11  H   LIG    1       20.199 -29.203  11.015  0.00  0.00    +0.142 HD
ATOM     12  H   LIG    1       20.487 -30.710  11.736  0.00  0.00    +0.142 HD
ENDBRANCH   4  10
BRANCH   1  13
ATOM     13  C   LIG    1       25.578 -30.139  11.097  0.00  0.00    +0.052 C 
BRANCH  13  14
ATOM     14  C   LIG    1       25.819 -29.862   9.592  0.00  0.00    +0.102 C 
BRANCH  14  16
ATOM     15  C   LIG    1       26.128 -27.816   8.054  0.00  0.00    +0.004 C 
ATOM     16  C   LIG    1       26.542 -28.533   9.330  0.00  0.00    +0.011 C 
ENDBRANCH  14  16
BRANCH  14  17
ATOM     17  C   LIG    1       26.634 -31.021   9.033  0.00  0.00    +0.308 C 
ATOM     18  O   LIG    1       27.322 -31.801   9.659  0.00  0.00    -0.251 OA
BRANCH  17  19
ATOM     19  O   LIG    1       26.515 -31.142   7.693  0.00  0.00    -0.480 OA
ATOM     20  H   LIG    1       25.624 -31.533   7.569  0.00  0.00    +0.295 HD
ENDBRANCH  17  19
ENDBRANCH  14  17
ENDBRANCH  13  14
ENDBRANCH   1  13
TORSDOF 6
ENDMDL
MODEL 5
REMARK VINA RESULT:      -4.7      9.975     10.792
REMARK  Name = *****
REMARK                            x       y       z     vdW  Elec       q    Type
REMARK                         _______ _______ _______ _____ _____    ______ ____
ROOT
ATOM      1  C   LIG    1       24.390 -28.701  12.285  0.00  0.00    -0.018 A 
ATOM      2  C   LIG    1       25.727 -28.202  12.280  0.00  0.00    +0.039 A 
ATOM      3  I   LIG    1       27.354 -29.315  11.388  0.00  0.00    -0.042 I 
ATOM      4  C   LIG    1       26.083 -26.957  12.869  0.00  0.00    +0.051 A 
ATOM      5  C   LIG    1       25.098 -26.270  13.591  0.00  0.00    +0.036 A 
ATOM      6  I   LIG    1       25.536 -24.508  14.659  0.00  0.00    -0.042 I 
ATOM      7  C   LIG    1       23.781 -26.725  13.616  0.00  0.00    +0.030 A 
ATOM      8  C   LIG    1       23.426 -27.907  12.948  0.00  0.00    +0.019 A 
ATOM      9  I   LIG    1       21.371 -28.390  13.057  0.00  0.00    -0.043 I 
ENDROOT
BRANCH   4  10
ATOM     10  N   LIG    1       27.430 -26.534  12.928  0.00  0.00    -0.356 N 
ATOM     11  H   LIG    1       27.878 -26.506  12.015  0.00  0.00    +0.142 HD
ATOM     12  H   LIG    1       27.562 -25.678  13.461  0.00  0.00    +0.142 HD
ENDBRANCH   4  10
BRANCH   1  13
ATOM     13  C   LIG    1       24.017 -30.049  11.670  0.00  0.00    +0.052 C 
BRANCH  13  14
ATOM     14  C   LIG    1       23.440 -30.047  10.233  0.00  0.00    +0.102 C 
BRANCH  14  16
ATOM     15  C   LIG    1       24.310 -29.646   7.839  0.00  0.00    +0.004 C 
ATOM     16  C   LIG    1       24.488 -30.378   9.160  0.00  0.00    +0.011 C 
ENDBRANCH  14  16
BRANCH  14  17
ATOM     17  C   LIG    1       22.307 -31.064  10.188  0.00  0.00    +0.308 C 
ATOM     18  O   LIG    1       21.120 -30.834  10.070  0.00  0.00    -0.251 OA
BRANCH  17  19
ATOM     19  O   LIG    1       22.747 -32.338  10.273  0.00  0.00    -0.480 OA
ATOM     20  H   LIG    1       22.247 -32.712  11.029  0.00  0.00    +0.295 HD
ENDBRANCH  17  19
ENDBRANCH  14  17
ENDBRANCH  13  14
ENDBRANCH   1  13
TORSDOF 6
ENDMDL
MODEL 6
REMARK VINA RESULT:      -4.7      1.301      1.837
REMARK  Name = *****
REMARK                            x       y       z     vdW  Elec       q    Type
REMARK                         _______ _______ _______ _____ _____    ______ ____
ROOT
ATOM      1  C   LIG    1       25.884 -20.919   5.414  0.00  0.00    -0.018 A 
ATOM      2  C   LIG    1       26.505 -19.729   4.927  0.00  0.00    +0.039 A 
ATOM      3  I   LIG    1       25.623 -18.549   3.344  0.00  0.00    -0.042 I 
ATOM      4  C   LIG    1       27.745 -19.250   5.435  0.00  0.00    +0.051 A 
ATOM      5  C   LIG    1       28.431 -20.057   6.352  0.00  0.00    +0.036 A 
ATOM      6  I   LIG    1       30.355 -19.552   7.046  0.00  0.00    -0.042 I 
ATOM      7  C   LIG    1       27.855 -21.222   6.852  0.00  0.00    +0.030 A 
ATOM      8  C   LIG    1       26.587 -21.632   6.412  0.00  0.00    +0.019 A 
ATOM      9  I   LIG    1       25.866 -23.392   7.335  0.00  0.00    -0.043 I 
ENDROOT
BRANCH   4  10
ATOM     10  N   LIG    1       28.379 -18.121   4.870  0.00  0.00    -0.356 N 
ATOM     11  H   LIG    1       29.367 -18.275   4.677  0.00  0.00    +0.142 HD
ATOM     12  H   LIG    1       27.878 -17.729   4.077  0.00  0.00    +0.142 HD
ENDBRANCH   4  10
BRANCH   1  13
ATOM     13  C   LIG    1       24.563 -21.441   4.850  0.00  0.00    +0.052 C 
BRANCH  13  14
ATOM     14  C   LIG    1       23.296 -21.280   5.726  0.00  0.00    +0.102 C 
BRANCH  14  16
ATOM     15  C   LIG    1       23.322 -21.118   8.300  0.00  0.00    +0.004 C 
ATOM     16  C   LIG    1       23.526 -20.409   6.969  0.00  0.00    +0.011 C 
ENDBRANCH  14  16
BRANCH  14  17
ATOM     17  C   LIG    1       22.205 -20.671   4.855  0.00  0.00    +0.308 C 
ATOM     18  O   LIG    1       22.162 -19.537   4.421  0.00  0.00    -0.251 OA
BRANCH  17  19
ATOM     19  O   LIG    1       21.224 -21.550   4.558  0.00  0.00    -0.480 OA
ATOM     20  H   LIG    1       21.459 -22.351   5.074  0.00  0.00    +0.295 HD
ENDBRANCH  17  19
ENDBRANCH  14  17
ENDBRANCH  13  14
ENDBRANCH   1  13
TORSDOF 6
ENDMDL
MODEL 7
REMARK VINA RESULT:      -4.7      9.557     11.023
REMARK  Name = *****
REMARK                            x       y       z     vdW  Elec       q    Type
REMARK                         _______ _______ _______ _____ _____    ______ ____
ROOT
ATOM      1  C   LIG    1       25.407 -30.224   8.330  0.00  0.00    -0.018 A 
ATOM      2  C   LIG    1       24.731 -30.242   7.073  0.00  0.00    +0.039 A 
ATOM      3  I   LIG    1       23.951 -32.072   6.224  0.00  0.00    -0.042 I 
ATOM      4  C   LIG    1       24.537 -29.069   6.290  0.00  0.00    +0.051 A 
ATOM      5  C   LIG    1       25.154 -27.887   6.721  0.00  0.00    +0.036 A 
ATOM      6  I   LIG    1       25.096 -26.126   5.567  0.00  0.00    -0.042 I 
ATOM      7  C   LIG    1       25.819 -27.831   7.944  0.00  0.00    +0.030 A 
ATOM      8  C   LIG    1       25.919 -28.975   8.751  0.00  0.00    +0.019 A 
ATOM      9  I   LIG    1       26.913 -28.666  10.590  0.00  0.00    -0.043 I 
ENDROOT
BRANCH   4  10
ATOM     10  N   LIG    1       23.946 -29.134   5.009  0.00  0.00    -0.356 N 
ATOM     11  H   LIG    1       24.568 -29.521   4.303  0.00  0.00    +0.142 HD
ATOM     12  H   LIG    1       23.027 -29.571   5.008  0.00  0.00    +0.142 HD
ENDBRANCH   4  10
BRANCH   1  13
ATOM     13  C   LIG    1       25.630 -31.490   9.156  0.00  0.00    +0.052 C 
BRANCH  13  14
ATOM     14  C   LIG    1       24.748 -31.692  10.413  0.00  0.00    +0.102 C 
BRANCH  14  16
ATOM     15  C   LIG    1       22.801 -30.092  10.957  0.00  0.00    +0.004 C 
ATOM     16  C   LIG    1       23.277 -31.314  10.186  0.00  0.00    +0.011 C 
ENDBRANCH  14  16
BRANCH  14  17
ATOM     17  C   LIG    1       24.855 -33.155  10.823  0.00  0.00    +0.308 C 
ATOM     18  O   LIG    1       25.833 -33.723  11.264  0.00  0.00    -0.251 OA
BRANCH  17  19
ATOM     19  O   LIG    1       23.692 -33.825  10.668  0.00  0.00    -0.480 OA
ATOM     20  H   LIG    1       23.007 -33.175  10.933  0.00  0.00    +0.295 HD
ENDBRANCH  17  19
ENDBRANCH  14  17
ENDBRANCH  13  14
ENDBRANCH   1  13
TORSDOF 6
ENDMDL
MODEL 8
REMARK VINA RESULT:      -4.7     10.526     12.274
REMARK  Name = *****
REMARK                            x       y       z     vdW  Elec       q    Type
REMARK                         _______ _______ _______ _____ _____    ______ ____
ROOT
ATOM      1  C   LIG    1       24.056 -29.913  11.690  0.00  0.00    -0.018 A 
ATOM      2  C   LIG    1       22.921 -29.198  12.179  0.00  0.00    +0.039 A 
ATOM      3  I   LIG    1       23.128 -27.511  13.516  0.00  0.00    -0.042 I 
ATOM      4  C   LIG    1       21.587 -29.552  11.836  0.00  0.00    +0.051 A 
ATOM      5  C   LIG    1       21.391 -30.726  11.097  0.00  0.00    +0.036 A 
ATOM      6  I   LIG    1       19.462 -31.459  10.675  0.00  0.00    -0.042 I 
ATOM      7  C   LIG    1       22.474 -31.448  10.600  0.00  0.00    +0.030 A 
ATOM      8  C   LIG    1       23.787 -31.032  10.867  0.00  0.00    +0.019 A 
ATOM      9  I   LIG    1       25.284 -32.228   9.974  0.00  0.00    -0.043 I 
ENDROOT
BRANCH   4  10
ATOM     10  N   LIG    1       20.482 -28.883  12.408  0.00  0.00    -0.356 N 
ATOM     11  H   LIG    1       19.904 -29.490  12.985  0.00  0.00    +0.142 HD
ATOM     12  H   LIG    1       20.733 -28.015  12.876  0.00  0.00    +0.142 HD
ENDBRANCH   4  10
BRANCH   1  13
ATOM     13  C   LIG    1       25.486 -29.543  12.078  0.00  0.00    +0.052 C 
BRANCH  13  14
ATOM     14  C   LIG    1       26.208 -28.471  11.223  0.00  0.00    +0.102 C 
BRANCH  14  16
ATOM     15  C   LIG    1       27.146 -27.693  13.495  0.00  0.00    +0.004 C 
ATOM     16  C   LIG    1       26.797 -27.327  12.060  0.00  0.00    +0.011 C 
ENDBRANCH  14  16
BRANCH  14  17
ATOM     17  C   LIG    1       27.313 -29.170  10.441  0.00  0.00    +0.308 C 
ATOM     18  O   LIG    1       28.190 -29.880  10.889  0.00  0.00    -0.251 OA
BRANCH  17  19
ATOM     19  O   LIG    1       27.230 -28.947   9.112  0.00  0.00    -0.480 OA
ATOM     20  H   LIG    1       28.066 -28.481   8.897  0.00  0.00    +0.295 HD
ENDBRANCH  17  19
ENDBRANCH  14  17
ENDBRANCH  13  14
ENDBRANCH   1  13
TORSDOF 6
ENDMDL
MODEL 9
REMARK VINA RESULT:      -4.6     10.171     11.010
REMARK  Name = *****
REMARK                            x       y       z     vdW  Elec       q    Type
REMARK                         _______ _______ _______ _____ _____    ______ ____
ROOT
ATOM      1  C   LIG    1       23.986 -29.371  11.643  0.00  0.00    -0.018 A 
ATOM      2  C   LIG    1       25.238 -29.168  10.987  0.00  0.00    +0.039 A 
ATOM      3  I   LIG    1       26.847 -28.064  11.921  0.00  0.00    -0.042 I 
ATOM      4  C   LIG    1       25.507 -29.661   9.680  0.00  0.00    +0.051 A 
ATOM      5  C   LIG    1       24.450 -30.250   8.973  0.00  0.00    +0.036 A 
ATOM      6  I   LIG    1       24.665 -30.859   6.968  0.00  0.00    -0.042 I 
ATOM      7  C   LIG    1       23.216 -30.467   9.581  0.00  0.00    +0.030 A 
ATOM      8  C   LIG    1       22.996 -30.061  10.906  0.00  0.00    +0.019 A 
ATOM      9  I   LIG    1       21.079 -30.535  11.661  0.00  0.00    -0.043 I 
ENDROOT
BRANCH   4  10
ATOM     10  N   LIG    1       26.722 -29.365   9.022  0.00  0.00    -0.356 N 
ATOM     11  H   LIG    1       26.605 -29.208   8.024  0.00  0.00    +0.142 HD
ATOM     12  H   LIG    1       27.261 -28.633   9.477  0.00  0.00    +0.142 HD
ENDBRANCH   4  10
BRANCH   1  13
ATOM     13  C   LIG    1       23.695 -28.821  13.038  0.00  0.00    +0.052 C 
BRANCH  13  14
ATOM     14  C   LIG    1       23.069 -27.408  13.136  0.00  0.00    +0.102 C 
BRANCH  14  16
ATOM     15  C   LIG    1       20.587 -26.723  12.988  0.00  0.00    +0.004 C 
ATOM     16  C   LIG    1       21.682 -27.407  13.794  0.00  0.00    +0.011 C 
ENDBRANCH  14  16
BRANCH  14  17
ATOM     17  C   LIG    1       24.027 -26.531  13.933  0.00  0.00    +0.308 C 
ATOM     18  O   LIG    1       24.384 -25.403  13.663  0.00  0.00    -0.251 OA
BRANCH  17  19
ATOM     19  O   LIG    1       24.470 -27.134  15.058  0.00  0.00    -0.480 OA
ATOM     20  H   LIG    1       25.439 -26.987  15.040  0.00  0.00    +0.295 HD
ENDBRANCH  17  19
ENDBRANCH  14  17
ENDBRANCH  13  14
ENDBRANCH   1  13
TORSDOF 6
ENDMDL
