MODEL 1
REMARK VINA RESULT:      -4.7      0.000      0.000
REMARK  Name = *****
REMARK                            x       y       z     vdW  Elec       q    Type
REMARK                         _______ _______ _______ _____ _____    ______ ____
ROOT
ATOM      1  C   LIG    1       26.569 -20.064   5.004  0.00  0.00    +0.084 C 
ATOM      2  C   LIG    1       27.736 -19.762   5.598  0.00  0.00    +0.128 C 
ATOM      3 CL   LIG    1       28.521 -20.767   6.756  0.00  0.00    -0.076 Cl
ATOM      4  C   LIG    1       28.411 -18.479   5.244  0.00  0.00    +0.273 C 
ATOM      5  O   LIG    1       29.475 -18.126   5.742  0.00  0.00    -0.266 OA
ATOM      6  N   LIG    1       27.775 -17.701   4.313  0.00  0.00    -0.274 N 
ATOM      7  H   LIG    1       28.216 -16.832   4.055  0.00  0.00    +0.173 HD
ATOM      8  C   LIG    1       26.583 -17.994   3.719  0.00  0.00    +0.327 C 
ATOM      9  O   LIG    1       26.061 -17.235   2.907  0.00  0.00    -0.247 OA
ATOM     10  N   LIG    1       26.022 -19.181   4.089  0.00  0.00    -0.307 N 
ATOM     11  H   LIG    1       25.112 -19.418   3.674  0.00  0.00    +0.170 HD
ENDROOT
BRANCH   1  12
ATOM     12  C   LIG    1       25.776 -21.332   5.246  0.00  0.00    +0.280 C 
BRANCH  12  16
ATOM     13  N   LIG    1       23.749 -21.571   3.092  0.00  0.00    -0.104 NA
ATOM     14  H   LIG    1       22.885 -21.654   2.543  0.00  0.00    +0.363 HD
ATOM     15  C   LIG    1       23.468 -21.219   4.298  0.00  0.00    +0.281 C 
ATOM     16  N   LIG    1       24.366 -21.015   5.303  0.00  0.00    -0.219 N 
ATOM     17  C   LIG    1       23.732 -20.572   6.528  0.00  0.00    +0.226 C 
ATOM     18  C   LIG    1       22.366 -20.091   6.024  0.00  0.00    +0.056 C 
ATOM     19  C   LIG    1       22.071 -20.955   4.795  0.00  0.00    +0.131 C 
ENDBRANCH  12  16
ENDBRANCH   1  12
TORSDOF 2
ENDMDL
MODEL 2
REMARK VINA RESULT:      -4.4      2.858      4.001
REMARK  Name = *****
REMARK                            x       y       z     vdW  Elec       q    Type
REMARK                         _______ _______ _______ _____ _____    ______ ____
ROOT
ATOM      1  C   LIG    1       24.665 -18.310   3.732  0.00  0.00    +0.084 C 
ATOM      2  C   LIG    1       23.606 -17.573   4.108  0.00  0.00    +0.128 C 
ATOM      3 CL   LIG    1       22.093 -18.233   4.601  0.00  0.00    -0.076 Cl
ATOM      4  C   LIG    1       23.730 -16.085   4.107  0.00  0.00    +0.273 C 
ATOM      5  O   LIG    1       22.812 -15.340   4.432  0.00  0.00    -0.266 OA
ATOM      6  N   LIG    1       24.945 -15.583   3.723  0.00  0.00    -0.274 N 
ATOM      7  H   LIG    1       25.053 -14.581   3.720  0.00  0.00    +0.173 HD
ATOM      8  C   LIG    1       26.018 -16.325   3.324  0.00  0.00    +0.327 C 
ATOM      9  O   LIG    1       27.071 -15.802   2.971  0.00  0.00    -0.247 OA
ATOM     10  N   LIG    1       25.835 -17.676   3.349  0.00  0.00    -0.307 N 
ATOM     11  H   LIG    1       26.619 -18.260   3.033  0.00  0.00    +0.170 HD
ENDROOT
BRANCH   1  12
ATOM     12  C   LIG    1       24.698 -19.824   3.697  0.00  0.00    +0.280 C 
BRANCH  12  16
ATOM     13  N   LIG    1       27.352 -20.069   5.002  0.00  0.00    -0.104 NA
ATOM     14  H   LIG    1       28.130 -20.159   5.666  0.00  0.00    +0.363 HD
ATOM     15  C   LIG    1       26.242 -20.346   5.591  0.00  0.00    +0.281 C 
ATOM     16  N   LIG    1       25.005 -20.330   5.017  0.00  0.00    -0.219 N 
ATOM     17  C   LIG    1       23.965 -20.744   5.937  0.00  0.00    +0.226 C 
ATOM     18  C   LIG    1       24.771 -21.455   7.030  0.00  0.00    +0.056 C 
ATOM     19  C   LIG    1       26.133 -20.757   7.036  0.00  0.00    +0.131 C 
ENDBRANCH  12  16
ENDBRANCH   1  12
TORSDOF 2
ENDMDL
MODEL 3
REMARK VINA RESULT:      -4.2      2.905      5.272
REMARK  Name = *****
REMARK                            x       y       z     vdW  Elec       q    Type
REMARK                         _______ _______ _______ _____ _____    ______ ____
ROOT
ATOM      1  C   LIG    1       25.395 -19.345   4.228  0.00  0.00    +0.084 C 
ATOM      2  C   LIG    1       24.156 -19.554   4.703  0.00  0.00    +0.128 C 
ATOM      3 CL   LIG    1       22.725 -18.913   3.990  0.00  0.00    -0.076 Cl
ATOM      4  C   LIG    1       23.988 -20.393   5.926  0.00  0.00    +0.273 C 
ATOM      5  O   LIG    1       22.894 -20.630   6.427  0.00  0.00    -0.266 OA
ATOM      6  N   LIG    1       25.138 -20.901   6.469  0.00  0.00    -0.274 N 
ATOM      7  H   LIG    1       25.048 -21.476   7.292  0.00  0.00    +0.173 HD
ATOM      8  C   LIG    1       26.400 -20.679   6.001  0.00  0.00    +0.327 C 
ATOM      9  O   LIG    1       27.388 -21.152   6.556  0.00  0.00    -0.247 OA
ATOM     10  N   LIG    1       26.480 -19.904   4.882  0.00  0.00    -0.307 N 
ATOM     11  H   LIG    1       27.419 -19.702   4.519  0.00  0.00    +0.170 HD
ENDROOT
BRANCH   1  12
ATOM     12  C   LIG    1       25.723 -18.532   2.992  0.00  0.00    +0.280 C 
BRANCH  12  16
ATOM     13  N   LIG    1       28.276 -17.629   4.205  0.00  0.00    -0.104 NA
ATOM     14  H   LIG    1       29.086 -17.089   4.535  0.00  0.00    +0.363 HD
ATOM     15  C   LIG    1       27.327 -16.828   3.867  0.00  0.00    +0.281 C 
ATOM     16  N   LIG    1       26.105 -17.193   3.383  0.00  0.00    -0.219 N 
ATOM     17  C   LIG    1       25.242 -16.054   3.149  0.00  0.00    +0.226 C 
ATOM     18  C   LIG    1       25.925 -14.961   3.978  0.00  0.00    +0.056 C 
ATOM     19  C   LIG    1       27.411 -15.328   3.971  0.00  0.00    +0.131 C 
ENDBRANCH  12  16
ENDBRANCH   1  12
TORSDOF 2
ENDMDL
MODEL 4
REMARK VINA RESULT:      -3.8      3.184      5.448
REMARK  Name = *****
REMARK                            x       y       z     vdW  Elec       q    Type
REMARK                         _______ _______ _______ _____ _____    ______ ____
ROOT
ATOM      1  C   LIG    1       26.425 -17.747   3.735  0.00  0.00    +0.084 C 
ATOM      2  C   LIG    1       25.662 -18.814   4.024  0.00  0.00    +0.128 C 
ATOM      3 CL   LIG    1       24.033 -19.008   3.500  0.00  0.00    -0.076 Cl
ATOM      4  C   LIG    1       26.246 -19.912   4.848  0.00  0.00    +0.273 C 
ATOM      5  O   LIG    1       25.617 -20.918   5.160  0.00  0.00    -0.266 OA
ATOM      6  N   LIG    1       27.546 -19.742   5.244  0.00  0.00    -0.274 N 
ATOM      7  H   LIG    1       27.964 -20.474   5.797  0.00  0.00    +0.173 HD
ATOM      8  C   LIG    1       28.321 -18.653   4.968  0.00  0.00    +0.327 C 
ATOM      9  O   LIG    1       29.475 -18.561   5.377  0.00  0.00    -0.247 OA
ATOM     10  N   LIG    1       27.724 -17.688   4.212  0.00  0.00    -0.307 N 
ATOM     11  H   LIG    1       28.277 -16.847   4.007  0.00  0.00    +0.170 HD
ENDROOT
BRANCH   1  12
ATOM     12  C   LIG    1       25.981 -16.564   2.899  0.00  0.00    +0.280 C 
BRANCH  12  16
ATOM     13  N   LIG    1       24.050 -14.632   4.057  0.00  0.00    -0.104 NA
ATOM     14  H   LIG    1       23.583 -13.894   4.599  0.00  0.00    +0.363 HD
ATOM     15  C   LIG    1       25.326 -14.527   4.189  0.00  0.00    +0.281 C 
ATOM     16  N   LIG    1       26.259 -15.337   3.612  0.00  0.00    -0.219 N 
ATOM     17  C   LIG    1       27.613 -14.921   3.915  0.00  0.00    +0.226 C 
ATOM     18  C   LIG    1       27.405 -13.477   4.386  0.00  0.00    +0.056 C 
ATOM     19  C   LIG    1       26.006 -13.460   5.006  0.00  0.00    +0.131 C 
ENDBRANCH  12  16
ENDBRANCH   1  12
TORSDOF 2
ENDMDL
MODEL 5
REMARK VINA RESULT:      -3.7      2.759      5.124
REMARK  Name = *****
REMARK                            x       y       z     vdW  Elec       q    Type
REMARK                         _______ _______ _______ _____ _____    ______ ____
ROOT
ATOM      1  C   LIG    1       24.802 -18.996   3.941  0.00  0.00    +0.084 C 
ATOM      2  C   LIG    1       24.994 -19.812   4.990  0.00  0.00    +0.128 C 
ATOM      3 CL   LIG    1       26.529 -20.429   5.468  0.00  0.00    -0.076 Cl
ATOM      4  C   LIG    1       23.813 -20.222   5.806  0.00  0.00    +0.273 C 
ATOM      5  O   LIG    1       23.900 -20.968   6.776  0.00  0.00    -0.266 OA
ATOM      6  N   LIG    1       22.605 -19.711   5.414  0.00  0.00    -0.274 N 
ATOM      7  H   LIG    1       21.794 -19.970   5.955  0.00  0.00    +0.173 HD
ATOM      8  C   LIG    1       22.401 -18.895   4.341  0.00  0.00    +0.327 C 
ATOM      9  O   LIG    1       21.281 -18.493   4.037  0.00  0.00    -0.247 OA
ATOM     10  N   LIG    1       23.522 -18.561   3.640  0.00  0.00    -0.307 N 
ATOM     11  H   LIG    1       23.396 -17.965   2.813  0.00  0.00    +0.170 HD
ENDROOT
BRANCH   1  12
ATOM     12  C   LIG    1       25.899 -18.481   3.031  0.00  0.00    +0.280 C 
BRANCH  12  16
ATOM     13  N   LIG    1       28.348 -17.556   4.428  0.00  0.00    -0.104 NA
ATOM     14  H   LIG    1       29.130 -17.011   4.811  0.00  0.00    +0.363 HD
ATOM     15  C   LIG    1       27.434 -16.761   3.994  0.00  0.00    +0.281 C 
ATOM     16  N   LIG    1       26.255 -17.134   3.420  0.00  0.00    -0.219 N 
ATOM     17  C   LIG    1       25.419 -15.998   3.088  0.00  0.00    +0.226 C 
ATOM     18  C   LIG    1       26.038 -14.887   3.945  0.00  0.00    +0.056 C 
ATOM     19  C   LIG    1       27.518 -15.259   4.069  0.00  0.00    +0.131 C 
ENDBRANCH  12  16
ENDBRANCH   1  12
TORSDOF 2
ENDMDL
MODEL 6
REMARK VINA RESULT:      -3.7      2.966      5.039
REMARK  Name = *****
REMARK                            x       y       z     vdW  Elec       q    Type
REMARK                         _______ _______ _______ _____ _____    ______ ____
ROOT
ATOM      1  C   LIG    1       24.410 -19.797   4.166  0.00  0.00    +0.084 C 
ATOM      2  C   LIG    1       23.955 -18.536   4.088  0.00  0.00    +0.128 C 
ATOM      3 CL   LIG    1       24.928 -17.182   3.652  0.00  0.00    -0.076 Cl
ATOM      4  C   LIG    1       22.519 -18.270   4.394  0.00  0.00    +0.273 C 
ATOM      5  O   LIG    1       22.025 -17.148   4.350  0.00  0.00    -0.266 OA
ATOM      6  N   LIG    1       21.763 -19.362   4.727  0.00  0.00    -0.274 N 
ATOM      7  H   LIG    1       20.788 -19.207   4.932  0.00  0.00    +0.173 HD
ATOM      8  C   LIG    1       22.222 -20.642   4.824  0.00  0.00    +0.327 C 
ATOM      9  O   LIG    1       21.487 -21.570   5.151  0.00  0.00    -0.247 OA
ATOM     10  N   LIG    1       23.543 -20.813   4.532  0.00  0.00    -0.307 N 
ATOM     11  H   LIG    1       23.922 -21.764   4.618  0.00  0.00    +0.170 HD
ENDROOT
BRANCH   1  12
ATOM     12  C   LIG    1       25.833 -20.226   3.871  0.00  0.00    +0.280 C 
BRANCH  12  16
ATOM     13  N   LIG    1       28.257 -18.833   4.867  0.00  0.00    -0.104 NA
ATOM     14  H   LIG    1       29.013 -18.437   5.438  0.00  0.00    +0.363 HD
ATOM     15  C   LIG    1       27.608 -19.710   5.551  0.00  0.00    +0.281 C 
ATOM     16  N   LIG    1       26.541 -20.437   5.114  0.00  0.00    -0.219 N 
ATOM     17  C   LIG    1       26.070 -21.379   6.109  0.00  0.00    +0.226 C 
ATOM     18  C   LIG    1       27.270 -21.462   7.061  0.00  0.00    +0.056 C 
ATOM     19  C   LIG    1       27.945 -20.091   6.969  0.00  0.00    +0.131 C 
ENDBRANCH  12  16
ENDBRANCH   1  12
TORSDOF 2
ENDMDL
MODEL 7
REMARK VINA RESULT:      -3.3      2.252      2.864
REMARK  Name = *****
REMARK                            x       y       z     vdW  Elec       q    Type
REMARK                         _______ _______ _______ _____ _____    ______ ____
ROOT
ATOM      1  C   LIG    1       26.625 -19.595   4.413  0.00  0.00    +0.084 C 
ATOM      2  C   LIG    1       27.401 -18.501   4.470  0.00  0.00    +0.128 C 
ATOM      3 CL   LIG    1       27.249 -17.150   3.412  0.00  0.00    -0.076 Cl
ATOM      4  C   LIG    1       28.469 -18.431   5.511  0.00  0.00    +0.273 C 
ATOM      5  O   LIG    1       29.223 -17.470   5.629  0.00  0.00    -0.266 OA
ATOM      6  N   LIG    1       28.564 -19.510   6.348  0.00  0.00    -0.274 N 
ATOM      7  H   LIG    1       29.275 -19.482   7.063  0.00  0.00    +0.173 HD
ATOM      8  C   LIG    1       27.790 -20.631   6.285  0.00  0.00    +0.327 C 
ATOM      9  O   LIG    1       27.950 -21.572   7.058  0.00  0.00    -0.247 OA
ATOM     10  N   LIG    1       26.836 -20.628   5.311  0.00  0.00    -0.307 N 
ATOM     11  H   LIG    1       26.252 -21.469   5.226  0.00  0.00    +0.170 HD
ENDROOT
BRANCH   1  12
ATOM     12  C   LIG    1       25.494 -19.805   3.428  0.00  0.00    +0.280 C 
BRANCH  12  16
ATOM     13  N   LIG    1       23.684 -21.572   4.980  0.00  0.00    -0.104 NA
ATOM     14  H   LIG    1       22.972 -21.961   5.610  0.00  0.00    +0.363 HD
ATOM     15  C   LIG    1       23.485 -20.309   4.826  0.00  0.00    +0.281 C 
ATOM     16  N   LIG    1       24.236 -19.468   4.059  0.00  0.00    -0.219 N 
ATOM     17  C   LIG    1       23.718 -18.116   4.053  0.00  0.00    +0.226 C 
ATOM     18  C   LIG    1       22.283 -18.323   4.555  0.00  0.00    +0.056 C 
ATOM     19  C   LIG    1       22.356 -19.548   5.469  0.00  0.00    +0.131 C 
ENDBRANCH  12  16
ENDBRANCH   1  12
TORSDOF 2
ENDMDL
MODEL 8
REMARK VINA RESULT:      -3.0      2.834      4.716
REMARK  Name = *****
REMARK                            x       y       z     vdW  Elec       q    Type
REMARK                         _______ _______ _______ _____ _____    ______ ____
ROOT
ATOM      1  C   LIG    1       25.223 -19.208   4.118  0.00  0.00    +0.084 C 
ATOM      2  C   LIG    1       25.980 -19.861   5.015  0.00  0.00    +0.128 C 
ATOM      3 CL   LIG    1       27.678 -19.634   5.196  0.00  0.00    -0.076 Cl
ATOM      4  C   LIG    1       25.327 -20.850   5.922  0.00  0.00    +0.273 C 
ATOM      5  O   LIG    1       25.945 -21.492   6.765  0.00  0.00    -0.266 OA
ATOM      6  N   LIG    1       23.975 -21.006   5.768  0.00  0.00    -0.274 N 
ATOM      7  H   LIG    1       23.511 -21.666   6.374  0.00  0.00    +0.173 HD
ATOM      8  C   LIG    1       23.204 -20.359   4.848  0.00  0.00    +0.327 C 
ATOM      9  O   LIG    1       21.997 -20.568   4.754  0.00  0.00    -0.247 OA
ATOM     10  N   LIG    1       23.865 -19.471   4.052  0.00  0.00    -0.307 N 
ATOM     11  H   LIG    1       23.313 -18.984   3.335  0.00  0.00    +0.170 HD
ENDROOT
BRANCH   1  12
ATOM     12  C   LIG    1       25.737 -18.167   3.144  0.00  0.00    +0.280 C 
BRANCH  12  16
ATOM     13  N   LIG    1       27.225 -15.606   3.316  0.00  0.00    -0.104 NA
ATOM     14  H   LIG    1       27.506 -14.618   3.356  0.00  0.00    +0.363 HD
ATOM     15  C   LIG    1       25.956 -15.706   3.511  0.00  0.00    +0.281 C 
ATOM     16  N   LIG    1       25.237 -16.864   3.524  0.00  0.00    -0.219 N 
ATOM     17  C   LIG    1       23.838 -16.641   3.824  0.00  0.00    +0.226 C 
ATOM     18  C   LIG    1       23.864 -15.238   4.442  0.00  0.00    +0.056 C 
ATOM     19  C   LIG    1       25.048 -14.533   3.776  0.00  0.00    +0.131 C 
ENDBRANCH  12  16
ENDBRANCH   1  12
TORSDOF 2
ENDMDL
MODEL 9
REMARK VINA RESULT:      -2.8      2.174      2.830
REMARK  Name = *****
REMARK                            x       y       z     vdW  Elec       q    Type
REMARK                         _______ _______ _______ _____ _____    ______ ____
ROOT
ATOM      1  C   LIG    1       26.252 -19.234   4.057  0.00  0.00    +0.084 C 
ATOM      2  C   LIG    1       26.506 -17.941   3.797  0.00  0.00    +0.128 C 
ATOM      3 CL   LIG    1       25.456 -16.909   2.903  0.00  0.00    -0.076 Cl
ATOM      4  C   LIG    1       27.774 -17.341   4.307  0.00  0.00    +0.273 C 
ATOM      5  O   LIG    1       28.085 -16.171   4.111  0.00  0.00    -0.266 OA
ATOM      6  N   LIG    1       28.588 -18.177   5.025  0.00  0.00    -0.274 N 
ATOM      7  H   LIG    1       29.448 -17.792   5.384  0.00  0.00    +0.173 HD
ATOM      8  C   LIG    1       28.343 -19.495   5.278  0.00  0.00    +0.327 C 
ATOM      9  O   LIG    1       29.133 -20.189   5.912  0.00  0.00    -0.247 OA
ATOM     10  N   LIG    1       27.168 -19.976   4.782  0.00  0.00    -0.307 N 
ATOM     11  H   LIG    1       26.967 -20.972   4.939  0.00  0.00    +0.170 HD
ENDROOT
BRANCH   1  12
ATOM     12  C   LIG    1       25.004 -19.976   3.622  0.00  0.00    +0.280 C 
BRANCH  12  16
ATOM     13  N   LIG    1       22.417 -19.018   4.714  0.00  0.00    -0.104 NA
ATOM     14  H   LIG    1       21.520 -18.916   5.205  0.00  0.00    +0.363 HD
ATOM     15  C   LIG    1       23.067 -20.018   5.199  0.00  0.00    +0.281 C 
ATOM     16  N   LIG    1       24.294 -20.450   4.790  0.00  0.00    -0.219 N 
ATOM     17  C   LIG    1       24.775 -21.568   5.574  0.00  0.00    +0.226 C 
ATOM     18  C   LIG    1       23.885 -21.490   6.821  0.00  0.00    +0.056 C 
ATOM     19  C   LIG    1       22.569 -20.879   6.330  0.00  0.00    +0.131 C 
ENDBRANCH  12  16
ENDBRANCH   1  12
TORSDOF 2
ENDMDL
