MODEL 1
REMARK VINA RESULT:      -8.1      0.000      0.000
REMARK  Name = *****
REMARK                            x       y       z     vdW  Elec       q    Type
REMARK                         _______ _______ _______ _____ _____    ______ ____
ROOT
ATOM      1  C   ALA A  1       28.393 -20.216   8.172  0.00  0.00    +0.233 C 
ATOM      2  N   UNK A  2       29.686 -19.845   8.477  0.00  0.00    -0.283 N 
ATOM      3  C   UNK A  2       29.939 -18.442   8.824  0.00  0.00    +0.080 C 
ATOM      4  C   UNK A  2       31.328 -18.161   8.233  0.00  0.00    +0.012 C 
ATOM      5  C   UNK A  2       32.063 -16.965   8.838  0.00  0.00    +0.005 C 
ATOM      6  C   UNK A  2       31.884 -16.827  10.346  0.00  0.00    +0.000 C 
ATOM      7  C   UNK A  2       30.411 -16.865  10.730  0.00  0.00    +0.002 C 
ATOM      8  C   UNK A  2       32.044 -19.506   8.379  0.00  0.00    +0.039 C 
ATOM      9  C   UNK A  2       29.792 -18.193  10.321  0.00  0.00    +0.023 C 
ATOM     10  C   UNK A  2       30.935 -20.546   8.146  0.00  0.00    +0.185 C 
ATOM     11  O   ALA A  1       27.482 -19.838   8.914  0.00  0.00    -0.274 OA
ENDROOT
BRANCH   1  12
ATOM     12  CA  ALA A  1       28.069 -21.017   6.889  0.00  0.00    +0.138 C 
ATOM     13  CB  ALA A  1       27.626 -20.168   5.699  0.00  0.00    +0.034 C 
BRANCH  12  14
ATOM     14  N   ALA A  1       27.095 -22.116   7.163  0.00  0.00    -0.294 NA
ATOM     15  H   ALA A  1       26.850 -22.075   8.156  0.00  0.00    +0.123 HD
BRANCH  14  16
ATOM     16  C   UNK A  0       25.830 -21.992   6.375  0.00  0.00    +0.164 C 
BRANCH  16  17
ATOM     17  C   UNK A  0       24.765 -21.192   7.128  0.00  0.00    +0.324 C 
ATOM     18  O   UNK A  0       24.431 -21.407   8.298  0.00  0.00    -0.249 OA
BRANCH  17  19
ATOM     19  O   UNK A  0       24.212 -20.257   6.320  0.00  0.00    -0.464 OA
BRANCH  19  20
ATOM     20  C   UNK A  0       22.871 -20.525   5.910  0.00  0.00    +0.229 C 
ATOM     21  C   UNK A  0       22.420 -19.440   4.957  0.00  0.00    +0.048 C 
ENDBRANCH  19  20
ENDBRANCH  17  19
ENDBRANCH  16  17
BRANCH  16  22
ATOM     22  C   UNK A  0       25.290 -23.373   5.954  0.00  0.00    +0.030 C 
BRANCH  22  24
ATOM     23  C   UNK A  0       25.905 -25.822   6.153  0.00  0.00    +0.004 C 
ATOM     24  C   UNK A  0       25.799 -24.493   6.880  0.00  0.00    -0.001 C 
ENDBRANCH  22  24
ENDBRANCH  16  22
ENDBRANCH  14  16
ENDBRANCH  12  14
ENDBRANCH   1  12
BRANCH  10  25
ATOM     25  C   UNK A  2       31.168 -21.762   9.062  0.00  0.00    +0.326 C 
ATOM     26  O   UNK A  2       30.615 -21.912  10.141  0.00  0.00    -0.249 OA
BRANCH  25  27
ATOM     27  O   UNK A  2       32.057 -22.671   8.589  0.00  0.00    -0.479 OA
ATOM     28  H   UNK A  2       32.054 -23.504   9.106  0.00  0.00    +0.295 HD
ENDBRANCH  25  27
ENDBRANCH  10  25
TORSDOF 10
ENDMDL
MODEL 2
REMARK VINA RESULT:      -7.8      1.090      2.311
REMARK  Name = *****
REMARK                            x       y       z     vdW  Elec       q    Type
REMARK                         _______ _______ _______ _____ _____    ______ ____
ROOT
ATOM      1  C   ALA A  1       28.422 -20.037   8.024  0.00  0.00    +0.233 C 
ATOM      2  N   UNK A  2       29.705 -19.711   8.414  0.00  0.00    -0.283 N 
ATOM      3  C   UNK A  2       29.956 -18.346   8.890  0.00  0.00    +0.080 C 
ATOM      4  C   UNK A  2       31.371 -18.033   8.384  0.00  0.00    +0.012 C 
ATOM      5  C   UNK A  2       32.091 -16.903   9.119  0.00  0.00    +0.005 C 
ATOM      6  C   UNK A  2       31.848 -16.893  10.625  0.00  0.00    +0.000 C 
ATOM      7  C   UNK A  2       30.360 -16.944  10.943  0.00  0.00    +0.002 C 
ATOM      8  C   UNK A  2       32.068 -19.395   8.443  0.00  0.00    +0.039 C 
ATOM      9  C   UNK A  2       29.747 -18.224  10.396  0.00  0.00    +0.023 C 
ATOM     10  C   UNK A  2       30.960 -20.397   8.075  0.00  0.00    +0.185 C 
ATOM     11  O   ALA A  1       27.485 -19.713   8.757  0.00  0.00    -0.274 OA
ENDROOT
BRANCH   1  12
ATOM     12  CA  ALA A  1       28.146 -20.722   6.665  0.00  0.00    +0.138 C 
ATOM     13  CB  ALA A  1       28.055 -19.768   5.475  0.00  0.00    +0.034 C 
BRANCH  12  14
ATOM     14  N   ALA A  1       26.951 -21.615   6.736  0.00  0.00    -0.294 NA
ATOM     15  H   ALA A  1       26.876 -21.960   7.696  0.00  0.00    +0.123 HD
BRANCH  14  16
ATOM     16  C   UNK A  0       25.672 -20.915   6.402  0.00  0.00    +0.164 C 
BRANCH  16  17
ATOM     17  C   UNK A  0       24.540 -21.311   7.352  0.00  0.00    +0.324 C 
ATOM     18  O   UNK A  0       23.818 -20.505   7.948  0.00  0.00    -0.249 OA
BRANCH  17  19
ATOM     19  O   UNK A  0       24.478 -22.657   7.484  0.00  0.00    -0.464 OA
BRANCH  19  20
ATOM     20  C   UNK A  0       23.351 -23.276   6.863  0.00  0.00    +0.229 C 
ATOM     21  C   UNK A  0       23.726 -24.683   6.450  0.00  0.00    +0.048 C 
ENDBRANCH  19  20
ENDBRANCH  17  19
ENDBRANCH  16  17
BRANCH  16  22
ATOM     22  C   UNK A  0       25.268 -21.148   4.933  0.00  0.00    +0.030 C 
BRANCH  22  24
ATOM     23  C   UNK A  0       24.899 -19.039   3.578  0.00  0.00    +0.004 C 
ATOM     24  C   UNK A  0       24.248 -20.100   4.447  0.00  0.00    -0.001 C 
ENDBRANCH  22  24
ENDBRANCH  16  22
ENDBRANCH  14  16
ENDBRANCH  12  14
ENDBRANCH   1  12
BRANCH  10  25
ATOM     25  C   UNK A  2       31.142 -21.690   8.892  0.00  0.00    +0.326 C 
ATOM     26  O   UNK A  2       30.415 -22.013   9.819  0.00  0.00    -0.249 OA
BRANCH  25  27
ATOM     27  O   UNK A  2       32.195 -22.458   8.517  0.00  0.00    -0.479 OA
ATOM     28  H   UNK A  2       32.379 -22.401   7.555  0.00  0.00    +0.295 HD
ENDBRANCH  25  27
ENDBRANCH  10  25
TORSDOF 10
ENDMDL
MODEL 3
REMARK VINA RESULT:      -7.7      1.995      7.341
REMARK  Name = *****
REMARK                            x       y       z     vdW  Elec       q    Type
REMARK                         _______ _______ _______ _____ _____    ______ ____
ROOT
ATOM      1  C   ALA A  1       27.221 -20.993   6.334  0.00  0.00    +0.233 C 
ATOM      2  N   UNK A  2       25.881 -21.259   6.142  0.00  0.00    -0.283 N 
ATOM      3  C   UNK A  2       25.027 -20.177   5.641  0.00  0.00    +0.080 C 
ATOM      4  C   UNK A  2       23.686 -20.405   6.354  0.00  0.00    +0.012 C 
ATOM      5  C   UNK A  2       22.475 -19.755   5.687  0.00  0.00    +0.005 C 
ATOM      6  C   UNK A  2       22.498 -19.822   4.164  0.00  0.00    +0.000 C 
ATOM      7  C   UNK A  2       23.818 -19.305   3.610  0.00  0.00    +0.002 C 
ATOM      8  C   UNK A  2       23.619 -21.928   6.482  0.00  0.00    +0.039 C 
ATOM      9  C   UNK A  2       24.973 -20.156   4.117  0.00  0.00    +0.023 C 
ATOM     10  C   UNK A  2       25.079 -22.349   6.717  0.00  0.00    +0.185 C 
ATOM     11  O   ALA A  1       27.838 -20.405   5.441  0.00  0.00    -0.274 OA
ENDROOT
BRANCH   1  12
ATOM     12  CA  ALA A  1       27.928 -21.345   7.664  0.00  0.00    +0.138 C 
ATOM     13  CB  ALA A  1       26.995 -21.807   8.781  0.00  0.00    +0.034 C 
BRANCH  12  14
ATOM     14  N   ALA A  1       28.814 -20.234   8.122  0.00  0.00    -0.294 NA
ATOM     15  H   ALA A  1       28.736 -20.173   9.141  0.00  0.00    +0.123 HD
BRANCH  14  16
ATOM     16  C   UNK A  0       30.255 -20.453   7.787  0.00  0.00    +0.164 C 
BRANCH  16  17
ATOM     17  C   UNK A  0       31.143 -20.406   9.032  0.00  0.00    +0.324 C 
ATOM     18  O   UNK A  0       32.123 -21.136   9.215  0.00  0.00    -0.249 OA
BRANCH  17  19
ATOM     19  O   UNK A  0       30.676 -19.495   9.917  0.00  0.00    -0.464 OA
BRANCH  19  20
ATOM     20  C   UNK A  0       31.363 -18.243   9.920  0.00  0.00    +0.229 C 
ATOM     21  C   UNK A  0       30.397 -17.150  10.320  0.00  0.00    +0.048 C 
ENDBRANCH  19  20
ENDBRANCH  17  19
ENDBRANCH  16  17
BRANCH  16  22
ATOM     22  C   UNK A  0       30.745 -19.454   6.720  0.00  0.00    +0.030 C 
BRANCH  22  24
ATOM     23  C   UNK A  0       29.318 -18.047   5.170  0.00  0.00    +0.004 C 
ATOM     24  C   UNK A  0       29.803 -18.242   6.596  0.00  0.00    -0.001 C 
ENDBRANCH  22  24
ENDBRANCH  16  22
ENDBRANCH  14  16
ENDBRANCH  12  14
ENDBRANCH   1  12
BRANCH  10  25
ATOM     25  C   UNK A  2       25.350 -23.690   6.011  0.00  0.00    +0.326 C 
ATOM     26  O   UNK A  2       25.962 -24.614   6.525  0.00  0.00    -0.249 OA
BRANCH  25  27
ATOM     27  O   UNK A  2       24.865 -23.778   4.747  0.00  0.00    -0.479 OA
ATOM     28  H   UNK A  2       23.886 -23.820   4.721  0.00  0.00    +0.295 HD
ENDBRANCH  25  27
ENDBRANCH  10  25
TORSDOF 10
ENDMDL
MODEL 4
REMARK VINA RESULT:      -7.4      2.165      7.215
REMARK  Name = *****
REMARK                            x       y       z     vdW  Elec       q    Type
REMARK                         _______ _______ _______ _____ _____    ______ ____
ROOT
ATOM      1  C   ALA A  1       27.184 -20.793   6.147  0.00  0.00    +0.233 C 
ATOM      2  N   UNK A  2       25.847 -21.115   6.035  0.00  0.00    -0.283 N 
ATOM      3  C   UNK A  2       24.928 -20.084   5.538  0.00  0.00    +0.080 C 
ATOM      4  C   UNK A  2       23.635 -20.332   6.328  0.00  0.00    +0.012 C 
ATOM      5  C   UNK A  2       22.367 -19.753   5.701  0.00  0.00    +0.005 C 
ATOM      6  C   UNK A  2       22.316 -19.879   4.182  0.00  0.00    +0.000 C 
ATOM      7  C   UNK A  2       23.587 -19.337   3.542  0.00  0.00    +0.002 C 
ATOM      8  C   UNK A  2       23.631 -21.851   6.516  0.00  0.00    +0.039 C 
ATOM      9  C   UNK A  2       24.797 -20.125   4.020  0.00  0.00    +0.023 C 
ATOM     10  C   UNK A  2       25.117 -22.209   6.690  0.00  0.00    +0.185 C 
ATOM     11  O   ALA A  1       27.732 -20.219   5.202  0.00  0.00    -0.274 OA
ENDROOT
BRANCH   1  12
ATOM     12  CA  ALA A  1       27.969 -21.067   7.451  0.00  0.00    +0.138 C 
ATOM     13  CB  ALA A  1       27.511 -20.251   8.658  0.00  0.00    +0.034 C 
BRANCH  12  14
ATOM     14  N   ALA A  1       29.442 -20.941   7.238  0.00  0.00    -0.294 NA
ATOM     15  H   ALA A  1       29.593 -20.634   6.274  0.00  0.00    +0.123 HD
BRANCH  14  16
ATOM     16  C   UNK A  0       30.083 -19.936   8.142  0.00  0.00    +0.164 C 
BRANCH  16  17
ATOM     17  C   UNK A  0       30.488 -18.668   7.388  0.00  0.00    +0.324 C 
ATOM     18  O   UNK A  0       30.401 -18.528   6.163  0.00  0.00    -0.249 OA
BRANCH  17  19
ATOM     19  O   UNK A  0       30.996 -17.748   8.241  0.00  0.00    -0.464 OA
BRANCH  19  20
ATOM     20  C   UNK A  0       30.124 -17.357   9.303  0.00  0.00    +0.229 C 
ATOM     21  C   UNK A  0       30.938 -17.166  10.564  0.00  0.00    +0.048 C 
ENDBRANCH  19  20
ENDBRANCH  17  19
ENDBRANCH  16  17
BRANCH  16  22
ATOM     22  C   UNK A  0       31.285 -20.539   8.895  0.00  0.00    +0.030 C 
BRANCH  22  24
ATOM     23  C   UNK A  0       31.916 -22.967   8.544  0.00  0.00    +0.004 C 
ATOM     24  C   UNK A  0       31.027 -22.001   9.306  0.00  0.00    -0.001 C 
ENDBRANCH  22  24
ENDBRANCH  16  22
ENDBRANCH  14  16
ENDBRANCH  12  14
ENDBRANCH   1  12
BRANCH  10  25
ATOM     25  C   UNK A  2       25.402 -23.567   6.022  0.00  0.00    +0.326 C 
ATOM     26  O   UNK A  2       26.045 -24.461   6.552  0.00  0.00    -0.249 OA
BRANCH  25  27
ATOM     27  O   UNK A  2       24.894 -23.705   4.771  0.00  0.00    -0.479 OA
ATOM     28  H   UNK A  2       23.946 -23.955   4.776  0.00  0.00    +0.295 HD
ENDBRANCH  25  27
ENDBRANCH  10  25
TORSDOF 10
ENDMDL
MODEL 5
REMARK VINA RESULT:      -7.4      4.497      7.670
REMARK  Name = *****
REMARK                            x       y       z     vdW  Elec       q    Type
REMARK                         _______ _______ _______ _____ _____    ______ ____
ROOT
ATOM      1  C   ALA A  1       23.976 -24.175   6.537  0.00  0.00    +0.233 C 
ATOM      2  N   UNK A  2       24.461 -22.907   6.290  0.00  0.00    -0.283 N 
ATOM      3  C   UNK A  2       23.790 -22.097   5.267  0.00  0.00    +0.080 C 
ATOM      4  C   UNK A  2       24.933 -21.304   4.617  0.00  0.00    +0.012 C 
ATOM      5  C   UNK A  2       24.506 -20.041   3.870  0.00  0.00    +0.005 C 
ATOM      6  C   UNK A  2       23.394 -19.260   4.562  0.00  0.00    +0.000 C 
ATOM      7  C   UNK A  2       22.218 -20.164   4.903  0.00  0.00    +0.002 C 
ATOM      8  C   UNK A  2       25.901 -21.077   5.780  0.00  0.00    +0.039 C 
ATOM      9  C   UNK A  2       22.657 -21.265   5.857  0.00  0.00    +0.023 C 
ATOM     10  C   UNK A  2       25.786 -22.361   6.618  0.00  0.00    +0.185 C 
ATOM     11  O   ALA A  1       22.758 -24.321   6.674  0.00  0.00    -0.274 OA
ENDROOT
BRANCH   1  12
ATOM     12  CA  ALA A  1       24.914 -25.403   6.562  0.00  0.00    +0.138 C 
ATOM     13  CB  ALA A  1       25.983 -25.415   5.471  0.00  0.00    +0.034 C 
BRANCH  12  14
ATOM     14  N   ALA A  1       24.142 -26.681   6.577  0.00  0.00    -0.294 NA
ATOM     15  H   ALA A  1       23.614 -26.737   5.702  0.00  0.00    +0.123 HD
BRANCH  14  16
ATOM     16  C   UNK A  0       25.011 -27.895   6.664  0.00  0.00    +0.164 C 
BRANCH  16  17
ATOM     17  C   UNK A  0       24.517 -29.017   5.750  0.00  0.00    +0.324 C 
ATOM     18  O   UNK A  0       23.332 -29.344   5.627  0.00  0.00    -0.249 OA
BRANCH  17  19
ATOM     19  O   UNK A  0       25.559 -29.628   5.138  0.00  0.00    -0.464 OA
BRANCH  19  20
ATOM     20  C   UNK A  0       25.507 -31.055   5.130  0.00  0.00    +0.229 C 
ATOM     21  C   UNK A  0       26.005 -31.575   6.461  0.00  0.00    +0.048 C 
ENDBRANCH  19  20
ENDBRANCH  17  19
ENDBRANCH  16  17
BRANCH  16  22
ATOM     22  C   UNK A  0       25.152 -28.387   8.118  0.00  0.00    +0.030 C 
BRANCH  22  24
ATOM     23  C   UNK A  0       26.699 -28.600  10.112  0.00  0.00    +0.004 C 
ATOM     24  C   UNK A  0       26.571 -28.150   8.668  0.00  0.00    -0.001 C 
ENDBRANCH  22  24
ENDBRANCH  16  22
ENDBRANCH  14  16
ENDBRANCH  12  14
ENDBRANCH   1  12
BRANCH  10  25
ATOM     25  C   UNK A  2       25.907 -22.014   8.113  0.00  0.00    +0.326 C 
ATOM     26  O   UNK A  2       26.970 -21.969   8.714  0.00  0.00    -0.249 OA
BRANCH  25  27
ATOM     27  O   UNK A  2       24.728 -21.768   8.739  0.00  0.00    -0.479 OA
ATOM     28  H   UNK A  2       24.443 -22.513   9.309  0.00  0.00    +0.295 HD
ENDBRANCH  25  27
ENDBRANCH  10  25
TORSDOF 10
ENDMDL
MODEL 6
REMARK VINA RESULT:      -6.8      4.274      7.048
REMARK  Name = *****
REMARK                            x       y       z     vdW  Elec       q    Type
REMARK                         _______ _______ _______ _____ _____    ______ ____
ROOT
ATOM      1  C   ALA A  1       23.761 -23.195   6.583  0.00  0.00    +0.233 C 
ATOM      2  N   UNK A  2       24.320 -21.994   6.198  0.00  0.00    -0.283 N 
ATOM      3  C   UNK A  2       23.699 -21.268   5.085  0.00  0.00    +0.080 C 
ATOM      4  C   UNK A  2       24.887 -20.622   4.357  0.00  0.00    +0.012 C 
ATOM      5  C   UNK A  2       24.536 -19.430   3.468  0.00  0.00    +0.005 C 
ATOM      6  C   UNK A  2       23.470 -18.512   4.058  0.00  0.00    +0.000 C 
ATOM      7  C   UNK A  2       22.242 -19.302   4.490  0.00  0.00    +0.002 C 
ATOM      8  C   UNK A  2       25.864 -20.320   5.495  0.00  0.00    +0.039 C 
ATOM      9  C   UNK A  2       22.615 -20.311   5.566  0.00  0.00    +0.023 C 
ATOM     10  C   UNK A  2       25.674 -21.492   6.473  0.00  0.00    +0.185 C 
ATOM     11  O   ALA A  1       22.537 -23.255   6.727  0.00  0.00    -0.274 OA
ENDROOT
BRANCH   1  12
ATOM     12  CA  ALA A  1       24.626 -24.465   6.756  0.00  0.00    +0.138 C 
ATOM     13  CB  ALA A  1       26.125 -24.204   6.901  0.00  0.00    +0.034 C 
BRANCH  12  14
ATOM     14  N   ALA A  1       24.352 -25.463   5.679  0.00  0.00    -0.294 NA
ATOM     15  H   ALA A  1       24.874 -25.176   4.847  0.00  0.00    +0.123 HD
BRANCH  14  16
ATOM     16  C   UNK A  0       24.789 -26.849   6.036  0.00  0.00    +0.164 C 
BRANCH  16  17
ATOM     17  C   UNK A  0       26.307 -27.013   5.931  0.00  0.00    +0.324 C 
ATOM     18  O   UNK A  0       26.947 -26.911   4.879  0.00  0.00    -0.249 OA
BRANCH  17  19
ATOM     19  O   UNK A  0       26.836 -27.331   7.135  0.00  0.00    -0.464 OA
BRANCH  19  20
ATOM     20  C   UNK A  0       25.889 -27.727   8.129  0.00  0.00    +0.229 C 
ATOM     21  C   UNK A  0       26.606 -28.503   9.212  0.00  0.00    +0.048 C 
ENDBRANCH  19  20
ENDBRANCH  17  19
ENDBRANCH  16  17
BRANCH  16  22
ATOM     22  C   UNK A  0       24.058 -27.907   5.187  0.00  0.00    +0.030 C 
BRANCH  22  24
ATOM     23  C   UNK A  0       25.136 -30.189   5.405  0.00  0.00    +0.004 C 
ATOM     24  C   UNK A  0       24.022 -29.278   5.888  0.00  0.00    -0.001 C 
ENDBRANCH  22  24
ENDBRANCH  16  22
ENDBRANCH  14  16
ENDBRANCH  12  14
ENDBRANCH   1  12
BRANCH  10  25
ATOM     25  C   UNK A  2       25.812 -20.984   7.920  0.00  0.00    +0.326 C 
ATOM     26  O   UNK A  2       24.882 -20.529   8.569  0.00  0.00    -0.249 OA
BRANCH  25  27
ATOM     27  O   UNK A  2       27.064 -21.062   8.435  0.00  0.00    -0.479 OA
ATOM     28  H   UNK A  2       27.726 -21.356   7.774  0.00  0.00    +0.295 HD
ENDBRANCH  25  27
ENDBRANCH  10  25
TORSDOF 10
ENDMDL
MODEL 7
REMARK VINA RESULT:      -6.8      1.466      7.830
REMARK  Name = *****
REMARK                            x       y       z     vdW  Elec       q    Type
REMARK                         _______ _______ _______ _____ _____    ______ ____
ROOT
ATOM      1  C   ALA A  1       26.690 -21.460   7.688  0.00  0.00    +0.233 C 
ATOM      2  N   UNK A  2       25.732 -22.019   6.867  0.00  0.00    -0.283 N 
ATOM      3  C   UNK A  2       25.886 -23.427   6.485  0.00  0.00    +0.080 C 
ATOM      4  C   UNK A  2       25.353 -23.479   5.046  0.00  0.00    +0.012 C 
ATOM      5  C   UNK A  2       24.933 -24.864   4.556  0.00  0.00    +0.005 C 
ATOM      6  C   UNK A  2       24.227 -25.706   5.614  0.00  0.00    +0.000 C 
ATOM      7  C   UNK A  2       25.036 -25.761   6.903  0.00  0.00    +0.002 C 
ATOM      8  C   UNK A  2       24.242 -22.427   5.052  0.00  0.00    +0.039 C 
ATOM      9  C   UNK A  2       25.207 -24.363   7.479  0.00  0.00    +0.023 C 
ATOM     10  C   UNK A  2       24.769 -21.333   5.995  0.00  0.00    +0.185 C 
ATOM     11  O   ALA A  1       27.048 -22.089   8.687  0.00  0.00    -0.274 OA
ENDROOT
BRANCH   1  12
ATOM     12  CA  ALA A  1       27.368 -20.117   7.331  0.00  0.00    +0.138 C 
ATOM     13  CB  ALA A  1       27.882 -20.020   5.896  0.00  0.00    +0.034 C 
BRANCH  12  14
ATOM     14  N   ALA A  1       28.435 -19.765   8.314  0.00  0.00    -0.294 NA
ATOM     15  H   ALA A  1       28.797 -20.638   8.707  0.00  0.00    +0.123 HD
BRANCH  14  16
ATOM     16  C   UNK A  0       29.584 -19.030   7.700  0.00  0.00    +0.164 C 
BRANCH  16  17
ATOM     17  C   UNK A  0       30.798 -19.938   7.497  0.00  0.00    +0.324 C 
ATOM     18  O   UNK A  0       31.878 -19.562   7.027  0.00  0.00    -0.249 OA
BRANCH  17  19
ATOM     19  O   UNK A  0       30.508 -21.210   7.858  0.00  0.00    -0.464 OA
BRANCH  19  20
ATOM     20  C   UNK A  0       31.413 -21.798   8.793  0.00  0.00    +0.229 C 
ATOM     21  C   UNK A  0       30.658 -22.153  10.055  0.00  0.00    +0.048 C 
ENDBRANCH  19  20
ENDBRANCH  17  19
ENDBRANCH  16  17
BRANCH  16  22
ATOM     22  C   UNK A  0       29.958 -17.779   8.519  0.00  0.00    +0.030 C 
BRANCH  22  24
ATOM     23  C   UNK A  0       30.553 -16.977  10.846  0.00  0.00    +0.004 C 
ATOM     24  C   UNK A  0       30.568 -18.150   9.883  0.00  0.00    -0.001 C 
ENDBRANCH  22  24
ENDBRANCH  16  22
ENDBRANCH  14  16
ENDBRANCH  12  14
ENDBRANCH   1  12
BRANCH  10  25
ATOM     25  C   UNK A  2       23.598 -20.735   6.797  0.00  0.00    +0.326 C 
ATOM     26  O   UNK A  2       23.399 -20.967   7.981  0.00  0.00    -0.249 OA
BRANCH  25  27
ATOM     27  O   UNK A  2       22.773 -19.926   6.086  0.00  0.00    -0.479 OA
ATOM     28  H   UNK A  2       21.827 -20.152   6.209  0.00  0.00    +0.295 HD
ENDBRANCH  25  27
ENDBRANCH  10  25
TORSDOF 10
ENDMDL
MODEL 8
REMARK VINA RESULT:      -6.6      1.758      7.804
REMARK  Name = *****
REMARK                            x       y       z     vdW  Elec       q    Type
REMARK                         _______ _______ _______ _____ _____    ______ ____
ROOT
ATOM      1  C   ALA A  1       26.645 -20.361   7.661  0.00  0.00    +0.233 C 
ATOM      2  N   UNK A  2       25.836 -21.029   6.764  0.00  0.00    -0.283 N 
ATOM      3  C   UNK A  2       24.951 -22.078   7.282  0.00  0.00    +0.080 C 
ATOM      4  C   UNK A  2       24.932 -23.130   6.164  0.00  0.00    +0.012 C 
ATOM      5  C   UNK A  2       23.742 -24.088   6.191  0.00  0.00    +0.005 C 
ATOM      6  C   UNK A  2       22.423 -23.426   6.576  0.00  0.00    +0.000 C 
ATOM      7  C   UNK A  2       22.564 -22.630   7.866  0.00  0.00    +0.002 C 
ATOM      8  C   UNK A  2       25.057 -22.285   4.894  0.00  0.00    +0.039 C 
ATOM      9  C   UNK A  2       23.592 -21.522   7.693  0.00  0.00    +0.023 C 
ATOM     10  C   UNK A  2       25.983 -21.127   5.305  0.00  0.00    +0.185 C 
ATOM     11  O   ALA A  1       26.145 -19.951   8.712  0.00  0.00    -0.274 OA
ENDROOT
BRANCH   1  12
ATOM     12  CA  ALA A  1       28.160 -20.192   7.403  0.00  0.00    +0.138 C 
ATOM     13  CB  ALA A  1       28.854 -21.428   6.833  0.00  0.00    +0.034 C 
BRANCH  12  14
ATOM     14  N   ALA A  1       28.867 -19.686   8.617  0.00  0.00    -0.294 NA
ATOM     15  H   ALA A  1       29.278 -20.491   9.098  0.00  0.00    +0.123 HD
BRANCH  14  16
ATOM     16  C   UNK A  0       29.975 -18.732   8.299  0.00  0.00    +0.164 C 
BRANCH  16  17
ATOM     17  C   UNK A  0       31.288 -19.460   8.005  0.00  0.00    +0.324 C 
ATOM     18  O   UNK A  0       31.853 -19.461   6.906  0.00  0.00    -0.249 OA
BRANCH  17  19
ATOM     19  O   UNK A  0       31.712 -20.138   9.098  0.00  0.00    -0.464 OA
BRANCH  19  20
ATOM     20  C   UNK A  0       31.856 -21.547   8.920  0.00  0.00    +0.229 C 
ATOM     21  C   UNK A  0       30.832 -22.260   9.776  0.00  0.00    +0.048 C 
ENDBRANCH  19  20
ENDBRANCH  17  19
ENDBRANCH  16  17
BRANCH  16  22
ATOM     22  C   UNK A  0       30.159 -17.687   9.417  0.00  0.00    +0.030 C 
BRANCH  22  24
ATOM     23  C   UNK A  0       32.212 -16.719  10.543  0.00  0.00    +0.004 C 
ATOM     24  C   UNK A  0       31.457 -16.877   9.235  0.00  0.00    -0.001 C 
ENDBRANCH  22  24
ENDBRANCH  16  22
ENDBRANCH  14  16
ENDBRANCH  12  14
ENDBRANCH   1  12
BRANCH  10  25
ATOM     25  C   UNK A  2       25.537 -19.834   4.598  0.00  0.00    +0.326 C 
ATOM     26  O   UNK A  2       24.368 -19.536   4.406  0.00  0.00    -0.249 OA
BRANCH  25  27
ATOM     27  O   UNK A  2       26.550 -19.035   4.179  0.00  0.00    -0.479 OA
ATOM     28  H   UNK A  2       27.428 -19.351   4.479  0.00  0.00    +0.295 HD
ENDBRANCH  25  27
ENDBRANCH  10  25
TORSDOF 10
ENDMDL
MODEL 9
REMARK VINA RESULT:      -6.3      4.436      9.497
REMARK  Name = *****
REMARK                            x       y       z     vdW  Elec       q    Type
REMARK                         _______ _______ _______ _____ _____    ______ ____
ROOT
ATOM      1  C   ALA A  1       25.695 -27.345   6.004  0.00  0.00    +0.233 C 
ATOM      2  N   UNK A  2       25.388 -28.562   6.579  0.00  0.00    -0.283 N 
ATOM      3  C   UNK A  2       24.957 -29.653   5.698  0.00  0.00    +0.080 C 
ATOM      4  C   UNK A  2       23.914 -30.410   6.532  0.00  0.00    +0.012 C 
ATOM      5  C   UNK A  2       23.647 -31.849   6.092  0.00  0.00    +0.005 C 
ATOM      6  C   UNK A  2       24.898 -32.602   5.651  0.00  0.00    +0.000 C 
ATOM      7  C   UNK A  2       25.681 -31.808   4.615  0.00  0.00    +0.002 C 
ATOM      8  C   UNK A  2       24.436 -30.254   7.962  0.00  0.00    +0.039 C 
ATOM      9  C   UNK A  2       26.137 -30.480   5.201  0.00  0.00    +0.023 C 
ATOM     10  C   UNK A  2       25.055 -28.846   7.982  0.00  0.00    +0.185 C 
ATOM     11  O   ALA A  1       26.416 -27.333   5.003  0.00  0.00    -0.274 OA
ENDROOT
BRANCH   1  12
ATOM     12  CA  ALA A  1       25.090 -26.028   6.542  0.00  0.00    +0.138 C 
ATOM     13  CB  ALA A  1       23.637 -25.779   6.141  0.00  0.00    +0.034 C 
BRANCH  12  14
ATOM     14  N   ALA A  1       25.952 -24.855   6.208  0.00  0.00    -0.294 NA
ATOM     15  H   ALA A  1       25.966 -24.758   5.190  0.00  0.00    +0.123 HD
BRANCH  14  16
ATOM     16  C   UNK A  0       25.445 -23.569   6.781  0.00  0.00    +0.164 C 
BRANCH  16  17
ATOM     17  C   UNK A  0       24.580 -22.801   5.781  0.00  0.00    +0.324 C 
ATOM     18  O   UNK A  0       24.842 -22.685   4.579  0.00  0.00    -0.249 OA
BRANCH  17  19
ATOM     19  O   UNK A  0       23.524 -22.229   6.405  0.00  0.00    -0.464 OA
BRANCH  19  20
ATOM     20  C   UNK A  0       23.446 -20.807   6.289  0.00  0.00    +0.229 C 
ATOM     21  C   UNK A  0       22.436 -20.453   5.220  0.00  0.00    +0.048 C 
ENDBRANCH  19  20
ENDBRANCH  17  19
ENDBRANCH  16  17
BRANCH  16  22
ATOM     22  C   UNK A  0       26.598 -22.691   7.305  0.00  0.00    +0.030 C 
BRANCH  22  24
ATOM     23  C   UNK A  0       26.547 -20.382   8.346  0.00  0.00    +0.004 C 
ATOM     24  C   UNK A  0       26.167 -21.842   8.516  0.00  0.00    -0.001 C 
ENDBRANCH  22  24
ENDBRANCH  16  22
ENDBRANCH  14  16
ENDBRANCH  12  14
ENDBRANCH   1  12
BRANCH  10  25
ATOM     25  C   UNK A  2       26.308 -28.846   8.877  0.00  0.00    +0.326 C 
ATOM     26  O   UNK A  2       26.626 -27.910   9.596  0.00  0.00    -0.249 OA
BRANCH  25  27
ATOM     27  O   UNK A  2       27.062 -29.971   8.805  0.00  0.00    -0.479 OA
ATOM     28  H   UNK A  2       27.300 -30.321   9.689  0.00  0.00    +0.295 HD
ENDBRANCH  25  27
ENDBRANCH  10  25
TORSDOF 10
ENDMDL
