MODEL 1
REMARK VINA RESULT:      -6.0      0.000      0.000
REMARK  Name = *****
REMARK                            x       y       z     vdW  Elec       q    Type
REMARK                         _______ _______ _______ _____ _____    ______ ____
ROOT
ATOM      1  C   LIG    1       31.441 -21.559   8.605  0.00  0.00    +0.193 C 
ATOM      2  N   LIG    1       30.276 -21.380   7.890  0.00  0.00    -0.320 N 
ATOM      3  H   LIG    1       29.876 -22.154   7.388  0.00  0.00    +0.169 HD
ATOM      4  C   LIG    1       29.659 -20.160   7.776  0.00  0.00    +0.114 C 
ATOM      5  S   LIG    1       28.277 -19.906   6.896  0.00  0.00    -0.030 S 
ATOM      6  C   LIG    1       30.325 -19.130   8.481  0.00  0.00    +0.116 A 
ATOM      7  C   LIG    1       31.466 -19.365   9.203  0.00  0.00    +0.183 A 
ATOM      8  N   LIG    1       31.926 -18.221   9.786  0.00  0.00    -0.216 NA
ATOM      9  C   LIG    1       31.076 -17.287   9.416  0.00  0.00    +0.199 A 
ATOM     10  N   LIG    1       30.082 -17.793   8.621  0.00  0.00    -0.341 N 
ATOM     11  H   LIG    1       29.319 -17.274   8.207  0.00  0.00    +0.167 HD
ATOM     12  N   LIG    1       32.056 -20.631   9.276  0.00  0.00    -0.195 NA
ENDROOT
BRANCH   1  13
ATOM     13  N   LIG    1       31.960 -22.815   8.575  0.00  0.00    -0.329 N 
ATOM     14  H   LIG    1       31.390 -23.594   8.283  0.00  0.00    +0.145 HD
ATOM     15  H   LIG    1       32.597 -23.008   9.341  0.00  0.00    +0.145 HD
ENDBRANCH   1  13
TORSDOF 1
ENDMDL
MODEL 2
REMARK VINA RESULT:      -5.9      0.981      3.310
REMARK  Name = *****
REMARK                            x       y       z     vdW  Elec       q    Type
REMARK                         _______ _______ _______ _____ _____    ______ ____
ROOT
ATOM      1  C   LIG    1       31.418 -18.012   8.807  0.00  0.00    +0.193 C 
ATOM      2  N   LIG    1       30.424 -18.157   7.862  0.00  0.00    -0.320 N 
ATOM      3  H   LIG    1       29.994 -17.342   7.462  0.00  0.00    +0.169 HD
ATOM      4  C   LIG    1       29.941 -19.384   7.482  0.00  0.00    +0.114 C 
ATOM      5  S   LIG    1       28.724 -19.591   6.375  0.00  0.00    -0.030 S 
ATOM      6  C   LIG    1       30.582 -20.463   8.135  0.00  0.00    +0.116 A 
ATOM      7  C   LIG    1       31.586 -20.267   9.046  0.00  0.00    +0.183 A 
ATOM      8  N   LIG    1       32.040 -21.452   9.545  0.00  0.00    -0.216 NA
ATOM      9  C   LIG    1       31.310 -22.371   8.949  0.00  0.00    +0.199 A 
ATOM     10  N   LIG    1       30.409 -21.817   8.080  0.00  0.00    -0.341 N 
ATOM     11  H   LIG    1       29.735 -22.314   7.512  0.00  0.00    +0.167 HD
ATOM     12  N   LIG    1       32.032 -18.989   9.403  0.00  0.00    -0.195 NA
ENDROOT
BRANCH   1  13
ATOM     13  N   LIG    1       31.746 -16.729   9.117  0.00  0.00    -0.329 N 
ATOM     14  H   LIG    1       31.170 -15.965   8.799  0.00  0.00    +0.145 HD
ATOM     15  H   LIG    1       32.745 -16.553   9.103  0.00  0.00    +0.145 HD
ENDBRANCH   1  13
TORSDOF 1
ENDMDL
MODEL 3
REMARK VINA RESULT:      -5.9      2.015      3.743
REMARK  Name = *****
REMARK                            x       y       z     vdW  Elec       q    Type
REMARK                         _______ _______ _______ _____ _____    ______ ____
ROOT
ATOM      1  C   LIG    1       31.637 -18.248   8.499  0.00  0.00    +0.193 C 
ATOM      2  N   LIG    1       31.766 -19.499   9.064  0.00  0.00    -0.320 N 
ATOM      3  H   LIG    1       32.449 -19.652   9.785  0.00  0.00    +0.169 HD
ATOM      4  C   LIG    1       31.037 -20.580   8.637  0.00  0.00    +0.114 C 
ATOM      5  S   LIG    1       31.195 -22.104   9.272  0.00  0.00    -0.030 S 
ATOM      6  C   LIG    1       30.139 -20.270   7.590  0.00  0.00    +0.116 A 
ATOM      7  C   LIG    1       30.026 -19.002   7.083  0.00  0.00    +0.183 A 
ATOM      8  N   LIG    1       29.104 -18.952   6.079  0.00  0.00    -0.216 NA
ATOM      9  C   LIG    1       28.659 -20.185   5.966  0.00  0.00    +0.199 A 
ATOM     10  N   LIG    1       29.258 -21.024   6.867  0.00  0.00    -0.341 N 
ATOM     11  H   LIG    1       29.091 -22.017   6.970  0.00  0.00    +0.167 HD
ATOM     12  N   LIG    1       30.803 -17.938   7.552  0.00  0.00    -0.195 NA
ENDROOT
BRANCH   1  13
ATOM     13  N   LIG    1       32.470 -17.294   8.993  0.00  0.00    -0.329 N 
ATOM     14  H   LIG    1       32.140 -16.639   9.685  0.00  0.00    +0.145 HD
ATOM     15  H   LIG    1       33.100 -16.908   8.297  0.00  0.00    +0.145 HD
ENDBRANCH   1  13
TORSDOF 1
ENDMDL
MODEL 4
REMARK VINA RESULT:      -5.8      2.243      3.688
REMARK  Name = *****
REMARK                            x       y       z     vdW  Elec       q    Type
REMARK                         _______ _______ _______ _____ _____    ______ ____
ROOT
ATOM      1  C   LIG    1       29.099 -18.784   5.627  0.00  0.00    +0.193 C 
ATOM      2  N   LIG    1       28.134 -19.728   5.904  0.00  0.00    -0.320 N 
ATOM      3  H   LIG    1       27.246 -19.685   5.435  0.00  0.00    +0.169 HD
ATOM      4  C   LIG    1       28.306 -20.704   6.852  0.00  0.00    +0.114 C 
ATOM      5  S   LIG    1       27.152 -21.832   7.232  0.00  0.00    -0.030 S 
ATOM      6  C   LIG    1       29.570 -20.650   7.484  0.00  0.00    +0.116 A 
ATOM      7  C   LIG    1       30.509 -19.709   7.152  0.00  0.00    +0.183 A 
ATOM      8  N   LIG    1       31.640 -19.853   7.901  0.00  0.00    -0.216 NA
ATOM      9  C   LIG    1       31.393 -20.873   8.694  0.00  0.00    +0.199 A 
ATOM     10  N   LIG    1       30.145 -21.394   8.477  0.00  0.00    -0.341 N 
ATOM     11  H   LIG    1       29.723 -22.172   8.966  0.00  0.00    +0.167 HD
ATOM     12  N   LIG    1       30.273 -18.730   6.181  0.00  0.00    -0.195 NA
ENDROOT
BRANCH   1  13
ATOM     13  N   LIG    1       28.755 -17.848   4.702  0.00  0.00    -0.329 N 
ATOM     14  H   LIG    1       29.359 -17.060   4.526  0.00  0.00    +0.145 HD
ATOM     15  H   LIG    1       27.761 -17.645   4.684  0.00  0.00    +0.145 HD
ENDBRANCH   1  13
TORSDOF 1
ENDMDL
MODEL 5
REMARK VINA RESULT:      -5.6      2.044      2.716
REMARK  Name = *****
REMARK                            x       y       z     vdW  Elec       q    Type
REMARK                         _______ _______ _______ _____ _____    ______ ____
ROOT
ATOM      1  C   LIG    1       30.917 -20.925   8.376  0.00  0.00    +0.193 C 
ATOM      2  N   LIG    1       29.699 -21.569   8.334  0.00  0.00    -0.320 N 
ATOM      3  H   LIG    1       29.545 -22.382   8.905  0.00  0.00    +0.169 HD
ATOM      4  C   LIG    1       28.689 -21.185   7.488  0.00  0.00    +0.114 C 
ATOM      5  S   LIG    1       27.226 -21.960   7.390  0.00  0.00    -0.030 S 
ATOM      6  C   LIG    1       29.022 -20.061   6.697  0.00  0.00    +0.116 A 
ATOM      7  C   LIG    1       30.237 -19.437   6.797  0.00  0.00    +0.183 A 
ATOM      8  N   LIG    1       30.327 -18.387   5.931  0.00  0.00    -0.216 NA
ATOM      9  C   LIG    1       29.174 -18.373   5.297  0.00  0.00    +0.199 A 
ATOM     10  N   LIG    1       28.345 -19.373   5.730  0.00  0.00    -0.341 N 
ATOM     11  H   LIG    1       27.413 -19.572   5.391  0.00  0.00    +0.167 HD
ATOM     12  N   LIG    1       31.234 -19.879   7.673  0.00  0.00    -0.195 NA
ENDROOT
BRANCH   1  13
ATOM     13  N   LIG    1       31.834 -21.461   9.225  0.00  0.00    -0.329 N 
ATOM     14  H   LIG    1       31.934 -22.462   9.301  0.00  0.00    +0.145 HD
ATOM     15  H   LIG    1       31.923 -20.951  10.098  0.00  0.00    +0.145 HD
ENDBRANCH   1  13
TORSDOF 1
ENDMDL
MODEL 6
REMARK VINA RESULT:      -5.5      5.387      6.611
REMARK  Name = *****
REMARK                            x       y       z     vdW  Elec       q    Type
REMARK                         _______ _______ _______ _____ _____    ______ ____
ROOT
ATOM      1  C   LIG    1       24.828 -23.876   5.704  0.00  0.00    +0.193 C 
ATOM      2  N   LIG    1       24.700 -22.803   4.849  0.00  0.00    -0.320 N 
ATOM      3  H   LIG    1       24.417 -22.955   3.897  0.00  0.00    +0.169 HD
ATOM      4  C   LIG    1       25.005 -21.519   5.224  0.00  0.00    +0.114 C 
ATOM      5  S   LIG    1       24.894 -20.212   4.209  0.00  0.00    -0.030 S 
ATOM      6  C   LIG    1       25.435 -21.418   6.568  0.00  0.00    +0.116 A 
ATOM      7  C   LIG    1       25.518 -22.512   7.388  0.00  0.00    +0.183 A 
ATOM      8  N   LIG    1       25.963 -22.167   8.630  0.00  0.00    -0.216 NA
ATOM      9  C   LIG    1       26.160 -20.868   8.570  0.00  0.00    +0.199 A 
ATOM     10  N   LIG    1       25.851 -20.365   7.334  0.00  0.00    -0.341 N 
ATOM     11  H   LIG    1       25.927 -19.401   7.039  0.00  0.00    +0.167 HD
ATOM     12  N   LIG    1       25.201 -23.802   6.947  0.00  0.00    -0.195 NA
ENDROOT
BRANCH   1  13
ATOM     13  N   LIG    1       24.541 -25.091   5.165  0.00  0.00    -0.329 N 
ATOM     14  H   LIG    1       25.282 -25.743   4.955  0.00  0.00    +0.145 HD
ATOM     15  H   LIG    1       23.784 -25.065   4.491  0.00  0.00    +0.145 HD
ENDBRANCH   1  13
TORSDOF 1
ENDMDL
MODEL 7
REMARK VINA RESULT:      -5.5      5.823      7.379
REMARK  Name = *****
REMARK                            x       y       z     vdW  Elec       q    Type
REMARK                         _______ _______ _______ _____ _____    ______ ____
ROOT
ATOM      1  C   LIG    1       25.528 -21.454   7.859  0.00  0.00    +0.193 C 
ATOM      2  N   LIG    1       24.963 -20.869   6.746  0.00  0.00    -0.320 N 
ATOM      3  H   LIG    1       24.715 -19.895   6.767  0.00  0.00    +0.169 HD
ATOM      4  C   LIG    1       24.659 -21.579   5.612  0.00  0.00    +0.114 C 
ATOM      5  S   LIG    1       23.948 -20.911   4.271  0.00  0.00    -0.030 S 
ATOM      6  C   LIG    1       25.006 -22.947   5.701  0.00  0.00    +0.116 A 
ATOM      7  C   LIG    1       25.594 -23.476   6.819  0.00  0.00    +0.183 A 
ATOM      8  N   LIG    1       25.826 -24.812   6.672  0.00  0.00    -0.216 NA
ATOM      9  C   LIG    1       25.375 -25.102   5.471  0.00  0.00    +0.199 A 
ATOM     10  N   LIG    1       24.867 -23.999   4.839  0.00  0.00    -0.341 N 
ATOM     11  H   LIG    1       24.455 -23.968   3.915  0.00  0.00    +0.167 HD
ATOM     12  N   LIG    1       25.873 -22.703   7.952  0.00  0.00    -0.195 NA
ENDROOT
BRANCH   1  13
ATOM     13  N   LIG    1       25.716 -20.629   8.923  0.00  0.00    -0.329 N 
ATOM     14  H   LIG    1       26.600 -20.163   9.056  0.00  0.00    +0.145 HD
ATOM     15  H   LIG    1       25.267 -20.956   9.772  0.00  0.00    +0.145 HD
ENDBRANCH   1  13
TORSDOF 1
ENDMDL
MODEL 8
REMARK VINA RESULT:      -5.5      1.937      2.886
REMARK  Name = *****
REMARK                            x       y       z     vdW  Elec       q    Type
REMARK                         _______ _______ _______ _____ _____    ______ ____
ROOT
ATOM      1  C   LIG    1       29.281 -19.854   6.534  0.00  0.00    +0.193 C 
ATOM      2  N   LIG    1       29.712 -20.958   7.239  0.00  0.00    -0.320 N 
ATOM      3  H   LIG    1       29.364 -21.869   6.999  0.00  0.00    +0.169 HD
ATOM      4  C   LIG    1       30.560 -20.862   8.314  0.00  0.00    +0.114 C 
ATOM      5  S   LIG    1       31.069 -22.165   9.203  0.00  0.00    -0.030 S 
ATOM      6  C   LIG    1       30.955 -19.533   8.596  0.00  0.00    +0.116 A 
ATOM      7  C   LIG    1       30.522 -18.472   7.845  0.00  0.00    +0.183 A 
ATOM      8  N   LIG    1       31.028 -17.296   8.313  0.00  0.00    -0.216 NA
ATOM      9  C   LIG    1       31.763 -17.633   9.351  0.00  0.00    +0.199 A 
ATOM     10  N   LIG    1       31.751 -18.986   9.563  0.00  0.00    -0.341 N 
ATOM     11  H   LIG    1       32.230 -19.485  10.301  0.00  0.00    +0.167 HD
ATOM     12  N   LIG    1       29.648 -18.630   6.764  0.00  0.00    -0.195 NA
ENDROOT
BRANCH   1  13
ATOM     13  N   LIG    1       28.397 -20.109   5.532  0.00  0.00    -0.329 N 
ATOM     14  H   LIG    1       27.405 -20.054   5.703  0.00  0.00    +0.145 HD
ATOM     15  H   LIG    1       28.689 -20.862   4.918  0.00  0.00    +0.145 HD
ENDBRANCH   1  13
TORSDOF 1
ENDMDL
MODEL 9
REMARK VINA RESULT:      -5.3      2.166      3.508
REMARK  Name = *****
REMARK                            x       y       z     vdW  Elec       q    Type
REMARK                         _______ _______ _______ _____ _____    ______ ____
ROOT
ATOM      1  C   LIG    1       30.669 -20.899   8.361  0.00  0.00    +0.193 C 
ATOM      2  N   LIG    1       30.642 -19.981   7.332  0.00  0.00    -0.320 N 
ATOM      3  H   LIG    1       31.490 -19.518   7.056  0.00  0.00    +0.169 HD
ATOM      4  C   LIG    1       29.481 -19.618   6.698  0.00  0.00    +0.114 C 
ATOM      5  S   LIG    1       29.411 -18.493   5.482  0.00  0.00    -0.030 S 
ATOM      6  C   LIG    1       28.341 -20.294   7.191  0.00  0.00    +0.116 A 
ATOM      7  C   LIG    1       28.424 -21.220   8.196  0.00  0.00    +0.183 A 
ATOM      8  N   LIG    1       27.197 -21.729   8.504  0.00  0.00    -0.216 NA
ATOM      9  C   LIG    1       26.363 -21.110   7.696  0.00  0.00    +0.199 A 
ATOM     10  N   LIG    1       27.013 -20.227   6.876  0.00  0.00    -0.341 N 
ATOM     11  H   LIG    1       26.590 -19.630   6.178  0.00  0.00    +0.167 HD
ATOM     12  N   LIG    1       29.637 -21.545   8.814  0.00  0.00    -0.195 NA
ENDROOT
BRANCH   1  13
ATOM     13  N   LIG    1       31.889 -21.109   8.925  0.00  0.00    -0.329 N 
ATOM     14  H   LIG    1       31.962 -21.368   9.897  0.00  0.00    +0.145 HD
ATOM     15  H   LIG    1       32.603 -20.471   8.592  0.00  0.00    +0.145 HD
ENDBRANCH   1  13
TORSDOF 1
ENDMDL
