MODEL 1
REMARK VINA RESULT:      -8.8      0.000      0.000
REMARK  Name = *****
REMARK                            x       y       z     vdW  Elec       q    Type
REMARK                         _______ _______ _______ _____ _____    ______ ____
ROOT
ATOM      1  C   LIG    1       24.880 -22.799   6.039  0.00  0.00    +0.117 C 
ENDROOT
BRANCH   1   2
ATOM      2  N   LIG    1       24.683 -21.559   6.845  0.00  0.00    -0.310 NA
ATOM      3  H   LIG    1       24.172 -20.890   6.264  0.00  0.00    +0.122 HD
BRANCH   2   5
ATOM      4  C   LIG    1       25.860 -20.570   8.779  0.00  0.00    +0.024 C 
ATOM      5  C   LIG    1       25.948 -20.894   7.271  0.00  0.00    +0.055 C 
BRANCH   5   6
ATOM      6  C   LIG    1       27.239 -21.713   6.984  0.00  0.00    +0.053 C 
BRANCH   6   7
ATOM      7  C   LIG    1       28.531 -20.923   7.116  0.00  0.00    -0.046 A 
ATOM      8  C   LIG    1       28.772 -19.803   6.304  0.00  0.00    +0.007 A 
ATOM      9  C   LIG    1       29.943 -19.057   6.450  0.00  0.00    +0.045 A 
ATOM     10  C   LIG    1       30.880 -19.421   7.403  0.00  0.00    +0.117 A 
ATOM     11  C   LIG    1       30.681 -20.546   8.201  0.00  0.00    +0.045 A 
ATOM     12  C   LIG    1       29.509 -21.297   8.049  0.00  0.00    +0.007 A 
BRANCH  10  13
ATOM     13  O   LIG    1       31.990 -18.640   7.538  0.00  0.00    -0.507 OA
ATOM     14  H   LIG    1       32.137 -18.164   6.707  0.00  0.00    +0.292 HD
ENDBRANCH  10  13
ENDBRANCH   6   7
ENDBRANCH   5   6
ENDBRANCH   2   5
ENDBRANCH   1   2
BRANCH   1  15
ATOM     15  C   LIG    1       24.240 -24.063   6.698  0.00  0.00    +0.158 C 
BRANCH  15  16
ATOM     16  C   LIG    1       24.820 -25.407   6.263  0.00  0.00    -0.011 A 
ATOM     17  C   LIG    1       23.971 -26.491   5.992  0.00  0.00    +0.051 A 
ATOM     18  C   LIG    1       24.480 -27.694   5.492  0.00  0.00    +0.121 A 
ATOM     19  C   LIG    1       25.839 -27.853   5.256  0.00  0.00    +0.090 A 
ATOM     20  C   LIG    1       26.688 -26.793   5.541  0.00  0.00    +0.121 A 
ATOM     21  C   LIG    1       26.202 -25.584   6.047  0.00  0.00    +0.051 A 
BRANCH  18  22
ATOM     22  O   LIG    1       23.594 -28.695   5.216  0.00  0.00    -0.507 OA
ATOM     23  H   LIG    1       23.837 -29.465   5.756  0.00  0.00    +0.292 HD
ENDBRANCH  18  22
BRANCH  20  24
ATOM     24  O   LIG    1       28.018 -26.972   5.276  0.00  0.00    -0.507 OA
ATOM     25  H   LIG    1       28.161 -27.907   5.048  0.00  0.00    +0.292 HD
ENDBRANCH  20  24
ENDBRANCH  15  16
BRANCH  15  26
ATOM     26  O   LIG    1       22.830 -24.071   6.431  0.00  0.00    -0.386 OA
ATOM     27  H   LIG    1       22.458 -23.355   6.972  0.00  0.00    +0.210 HD
ENDBRANCH  15  26
ENDBRANCH   1  15
TORSDOF 10
ENDMDL
MODEL 2
REMARK VINA RESULT:      -8.8      1.328      1.829
REMARK  Name = *****
REMARK                            x       y       z     vdW  Elec       q    Type
REMARK                         _______ _______ _______ _____ _____    ______ ____
ROOT
ATOM      1  C   LIG    1       24.778 -23.227   5.561  0.00  0.00    +0.117 C 
ENDROOT
BRANCH   1   2
ATOM      2  N   LIG    1       23.685 -22.236   5.333  0.00  0.00    -0.310 NA
ATOM      3  H   LIG    1       23.464 -22.243   4.334  0.00  0.00    +0.122 HD
BRANCH   2   5
ATOM      4  C   LIG    1       22.756 -19.974   5.685  0.00  0.00    +0.024 C 
ATOM      5  C   LIG    1       24.040 -20.833   5.695  0.00  0.00    +0.055 C 
BRANCH   5   6
ATOM      6  C   LIG    1       24.764 -20.682   7.063  0.00  0.00    +0.053 C 
BRANCH   6   7
ATOM      7  C   LIG    1       26.276 -20.553   6.966  0.00  0.00    -0.046 A 
ATOM      8  C   LIG    1       26.879 -20.049   5.802  0.00  0.00    +0.007 A 
ATOM      9  C   LIG    1       28.265 -19.898   5.727  0.00  0.00    +0.045 A 
ATOM     10  C   LIG    1       29.058 -20.250   6.807  0.00  0.00    +0.117 A 
ATOM     11  C   LIG    1       28.489 -20.782   7.962  0.00  0.00    +0.045 A 
ATOM     12  C   LIG    1       27.100 -20.939   8.034  0.00  0.00    +0.007 A 
BRANCH  10  13
ATOM     13  O   LIG    1       30.403 -20.049   6.704  0.00  0.00    -0.507 OA
ATOM     14  H   LIG    1       30.825 -20.889   6.467  0.00  0.00    +0.292 HD
ENDBRANCH  10  13
ENDBRANCH   6   7
ENDBRANCH   5   6
ENDBRANCH   2   5
ENDBRANCH   1   2
BRANCH   1  15
ATOM     15  C   LIG    1       24.340 -24.418   6.472  0.00  0.00    +0.158 C 
BRANCH  15  16
ATOM     16  C   LIG    1       24.853 -25.796   6.058  0.00  0.00    -0.011 A 
ATOM     17  C   LIG    1       23.988 -26.902   6.053  0.00  0.00    +0.051 A 
ATOM     18  C   LIG    1       24.416 -28.145   5.576  0.00  0.00    +0.121 A 
ATOM     19  C   LIG    1       25.708 -28.324   5.101  0.00  0.00    +0.090 A 
ATOM     20  C   LIG    1       26.575 -27.240   5.122  0.00  0.00    +0.121 A 
ATOM     21  C   LIG    1       26.172 -25.991   5.600  0.00  0.00    +0.051 A 
BRANCH  18  22
ATOM     22  O   LIG    1       23.513 -29.168   5.565  0.00  0.00    -0.507 OA
ATOM     23  H   LIG    1       22.965 -29.074   4.768  0.00  0.00    +0.292 HD
ENDBRANCH  18  22
BRANCH  20  24
ATOM     24  O   LIG    1       27.834 -27.441   4.626  0.00  0.00    -0.507 OA
ATOM     25  H   LIG    1       28.360 -26.639   4.792  0.00  0.00    +0.292 HD
ENDBRANCH  20  24
ENDBRANCH  15  16
BRANCH  15  26
ATOM     26  O   LIG    1       22.907 -24.466   6.528  0.00  0.00    -0.386 OA
ATOM     27  H   LIG    1       22.620 -23.549   6.666  0.00  0.00    +0.210 HD
ENDBRANCH  15  26
ENDBRANCH   1  15
TORSDOF 10
ENDMDL
MODEL 3
REMARK VINA RESULT:      -8.8      1.690      7.911
REMARK  Name = *****
REMARK                            x       y       z     vdW  Elec       q    Type
REMARK                         _______ _______ _______ _____ _____    ______ ____
ROOT
ATOM      1  C   LIG    1       26.940 -20.283   6.543  0.00  0.00    +0.117 C 
ENDROOT
BRANCH   1   2
ATOM      2  N   LIG    1       26.217 -21.506   6.084  0.00  0.00    -0.310 NA
ATOM      3  H   LIG    1       25.305 -21.211   5.726  0.00  0.00    +0.122 HD
BRANCH   2   5
ATOM      4  C   LIG    1       25.855 -21.780   8.512  0.00  0.00    +0.024 C 
ATOM      5  C   LIG    1       25.965 -22.512   7.156  0.00  0.00    +0.055 C 
BRANCH   5   6
ATOM      6  C   LIG    1       24.703 -23.394   6.931  0.00  0.00    +0.053 C 
BRANCH   6   7
ATOM      7  C   LIG    1       24.999 -24.812   6.470  0.00  0.00    -0.046 A 
ATOM      8  C   LIG    1       26.320 -25.285   6.411  0.00  0.00    +0.007 A 
ATOM      9  C   LIG    1       26.589 -26.598   6.021  0.00  0.00    +0.045 A 
ATOM     10  C   LIG    1       25.546 -27.447   5.688  0.00  0.00    +0.117 A 
ATOM     11  C   LIG    1       24.229 -26.996   5.708  0.00  0.00    +0.045 A 
ATOM     12  C   LIG    1       23.961 -25.676   6.093  0.00  0.00    +0.007 A 
BRANCH  10  13
ATOM     13  O   LIG    1       25.852 -28.734   5.352  0.00  0.00    -0.507 OA
ATOM     14  H   LIG    1       26.071 -28.764   4.408  0.00  0.00    +0.292 HD
ENDBRANCH  10  13
ENDBRANCH   6   7
ENDBRANCH   5   6
ENDBRANCH   2   5
ENDBRANCH   1   2
BRANCH   1  15
ATOM     15  C   LIG    1       28.373 -20.157   5.934  0.00  0.00    +0.158 C 
BRANCH  15  16
ATOM     16  C   LIG    1       29.520 -20.099   6.940  0.00  0.00    -0.011 A 
ATOM     17  C   LIG    1       30.368 -18.981   6.983  0.00  0.00    +0.051 A 
ATOM     18  C   LIG    1       31.356 -18.866   7.967  0.00  0.00    +0.121 A 
ATOM     19  C   LIG    1       31.531 -19.856   8.924  0.00  0.00    +0.090 A 
ATOM     20  C   LIG    1       30.710 -20.974   8.876  0.00  0.00    +0.121 A 
ATOM     21  C   LIG    1       29.721 -21.113   7.899  0.00  0.00    +0.051 A 
BRANCH  18  22
ATOM     22  O   LIG    1       32.121 -17.736   7.973  0.00  0.00    -0.507 OA
ATOM     23  H   LIG    1       33.034 -17.995   8.182  0.00  0.00    +0.292 HD
ENDBRANCH  18  22
BRANCH  20  24
ATOM     24  O   LIG    1       30.891 -21.921   9.847  0.00  0.00    -0.507 OA
ATOM     25  H   LIG    1       30.914 -21.473  10.710  0.00  0.00    +0.292 HD
ENDBRANCH  20  24
ENDBRANCH  15  16
BRANCH  15  26
ATOM     26  O   LIG    1       28.433 -18.986   5.109  0.00  0.00    -0.386 OA
ATOM     27  H   LIG    1       29.314 -19.000   4.700  0.00  0.00    +0.210 HD
ENDBRANCH  15  26
ENDBRANCH   1  15
TORSDOF 10
ENDMDL
MODEL 4
REMARK VINA RESULT:      -8.8      1.699      7.814
REMARK  Name = *****
REMARK                            x       y       z     vdW  Elec       q    Type
REMARK                         _______ _______ _______ _____ _____    ______ ____
ROOT
ATOM      1  C   LIG    1       26.877 -20.307   6.465  0.00  0.00    +0.117 C 
ENDROOT
BRANCH   1   2
ATOM      2  N   LIG    1       26.259 -21.603   6.054  0.00  0.00    -0.310 NA
ATOM      3  H   LIG    1       25.367 -21.390   5.599  0.00  0.00    +0.122 HD
BRANCH   2   5
ATOM      4  C   LIG    1       25.820 -21.709   8.482  0.00  0.00    +0.024 C 
ATOM      5  C   LIG    1       25.966 -22.532   7.183  0.00  0.00    +0.055 C 
BRANCH   5   6
ATOM      6  C   LIG    1       24.706 -23.421   6.979  0.00  0.00    +0.053 C 
BRANCH   6   7
ATOM      7  C   LIG    1       25.002 -24.833   6.499  0.00  0.00    -0.046 A 
ATOM      8  C   LIG    1       26.322 -25.309   6.445  0.00  0.00    +0.007 A 
ATOM      9  C   LIG    1       26.590 -26.618   6.037  0.00  0.00    +0.045 A 
ATOM     10  C   LIG    1       25.547 -27.457   5.680  0.00  0.00    +0.117 A 
ATOM     11  C   LIG    1       24.231 -27.001   5.694  0.00  0.00    +0.045 A 
ATOM     12  C   LIG    1       23.964 -25.687   6.097  0.00  0.00    +0.007 A 
BRANCH  10  13
ATOM     13  O   LIG    1       25.852 -28.739   5.326  0.00  0.00    -0.507 OA
ATOM     14  H   LIG    1       25.433 -29.344   5.958  0.00  0.00    +0.292 HD
ENDBRANCH  10  13
ENDBRANCH   6   7
ENDBRANCH   5   6
ENDBRANCH   2   5
ENDBRANCH   1   2
BRANCH   1  15
ATOM     15  C   LIG    1       28.340 -20.138   5.944  0.00  0.00    +0.158 C 
BRANCH  15  16
ATOM     16  C   LIG    1       29.414 -19.975   7.018  0.00  0.00    -0.011 A 
ATOM     17  C   LIG    1       29.656 -21.004   7.940  0.00  0.00    +0.051 A 
ATOM     18  C   LIG    1       30.705 -20.913   8.860  0.00  0.00    +0.121 A 
ATOM     19  C   LIG    1       31.533 -19.799   8.892  0.00  0.00    +0.090 A 
ATOM     20  C   LIG    1       31.288 -18.767   7.997  0.00  0.00    +0.121 A 
ATOM     21  C   LIG    1       30.241 -18.834   7.074  0.00  0.00    +0.051 A 
BRANCH  18  22
ATOM     22  O   LIG    1       30.907 -21.966   9.704  0.00  0.00    -0.507 OA
ATOM     23  H   LIG    1       30.362 -22.707   9.391  0.00  0.00    +0.292 HD
ENDBRANCH  18  22
BRANCH  20  24
ATOM     24  O   LIG    1       32.135 -17.693   8.037  0.00  0.00    -0.507 OA
ATOM     25  H   LIG    1       32.830 -17.877   8.694  0.00  0.00    +0.292 HD
ENDBRANCH  20  24
ENDBRANCH  15  16
BRANCH  15  26
ATOM     26  O   LIG    1       28.400 -19.004   5.067  0.00  0.00    -0.386 OA
ATOM     27  H   LIG    1       27.737 -18.378   5.404  0.00  0.00    +0.210 HD
ENDBRANCH  15  26
ENDBRANCH   1  15
TORSDOF 10
ENDMDL
MODEL 5
REMARK VINA RESULT:      -8.7      2.072      8.184
REMARK  Name = *****
REMARK                            x       y       z     vdW  Elec       q    Type
REMARK                         _______ _______ _______ _____ _____    ______ ____
ROOT
ATOM      1  C   LIG    1       28.114 -19.949   5.604  0.00  0.00    +0.117 C 
ENDROOT
BRANCH   1   2
ATOM      2  N   LIG    1       27.593 -20.441   6.914  0.00  0.00    -0.310 NA
ATOM      3  H   LIG    1       27.850 -21.428   6.998  0.00  0.00    +0.122 HD
BRANCH   2   5
ATOM      4  C   LIG    1       25.464 -20.544   5.664  0.00  0.00    +0.024 C 
ATOM      5  C   LIG    1       26.110 -20.361   7.056  0.00  0.00    +0.055 C 
BRANCH   5   6
ATOM      6  C   LIG    1       25.500 -21.383   8.057  0.00  0.00    +0.053 C 
BRANCH   6   7
ATOM      7  C   LIG    1       25.023 -22.680   7.423  0.00  0.00    -0.046 A 
ATOM      8  C   LIG    1       25.936 -23.701   7.107  0.00  0.00    +0.007 A 
ATOM      9  C   LIG    1       25.493 -24.905   6.557  0.00  0.00    +0.045 A 
ATOM     10  C   LIG    1       24.142 -25.100   6.317  0.00  0.00    +0.117 A 
ATOM     11  C   LIG    1       23.220 -24.093   6.591  0.00  0.00    +0.045 A 
ATOM     12  C   LIG    1       23.665 -22.883   7.137  0.00  0.00    +0.007 A 
BRANCH  10  13
ATOM     13  O   LIG    1       23.751 -26.307   5.816  0.00  0.00    -0.507 OA
ATOM     14  H   LIG    1       22.838 -26.230   5.499  0.00  0.00    +0.292 HD
ENDBRANCH  10  13
ENDBRANCH   6   7
ENDBRANCH   5   6
ENDBRANCH   2   5
ENDBRANCH   1   2
BRANCH   1  15
ATOM     15  C   LIG    1       29.444 -19.141   5.744  0.00  0.00    +0.158 C 
BRANCH  15  16
ATOM     16  C   LIG    1       30.001 -19.016   7.161  0.00  0.00    -0.011 A 
ATOM     17  C   LIG    1       30.836 -20.015   7.684  0.00  0.00    +0.051 A 
ATOM     18  C   LIG    1       31.438 -19.865   8.938  0.00  0.00    +0.121 A 
ATOM     19  C   LIG    1       31.222 -18.727   9.703  0.00  0.00    +0.090 A 
ATOM     20  C   LIG    1       30.382 -17.743   9.201  0.00  0.00    +0.121 A 
ATOM     21  C   LIG    1       29.765 -17.875   7.955  0.00  0.00    +0.051 A 
BRANCH  18  22
ATOM     22  O   LIG    1       32.267 -20.859   9.370  0.00  0.00    -0.507 OA
ATOM     23  H   LIG    1       31.770 -21.411   9.996  0.00  0.00    +0.292 HD
ENDBRANCH  18  22
BRANCH  20  24
ATOM     24  O   LIG    1       30.207 -16.623   9.968  0.00  0.00    -0.507 OA
ATOM     25  H   LIG    1       30.587 -16.793  10.848  0.00  0.00    +0.292 HD
ENDBRANCH  20  24
ENDBRANCH  15  16
BRANCH  15  26
ATOM     26  O   LIG    1       29.252 -17.821   5.215  0.00  0.00    -0.386 OA
ATOM     27  H   LIG    1       29.521 -17.214   5.924  0.00  0.00    +0.210 HD
ENDBRANCH  15  26
ENDBRANCH   1  15
TORSDOF 10
ENDMDL
MODEL 6
REMARK VINA RESULT:      -8.7      0.157      1.762
REMARK  Name = *****
REMARK                            x       y       z     vdW  Elec       q    Type
REMARK                         _______ _______ _______ _____ _____    ______ ____
ROOT
ATOM      1  C   LIG    1       24.969 -22.884   6.020  0.00  0.00    +0.117 C 
ENDROOT
BRANCH   1   2
ATOM      2  N   LIG    1       24.744 -21.644   6.821  0.00  0.00    -0.310 NA
ATOM      3  H   LIG    1       24.220 -20.989   6.235  0.00  0.00    +0.122 HD
BRANCH   2   5
ATOM      4  C   LIG    1       25.879 -20.591   8.745  0.00  0.00    +0.024 C 
ATOM      5  C   LIG    1       25.993 -20.950   7.247  0.00  0.00    +0.055 C 
BRANCH   5   6
ATOM      6  C   LIG    1       27.299 -21.759   6.998  0.00  0.00    +0.053 C 
BRANCH   6   7
ATOM      7  C   LIG    1       28.578 -20.948   7.135  0.00  0.00    -0.046 A 
ATOM      8  C   LIG    1       28.825 -19.853   6.291  0.00  0.00    +0.007 A 
ATOM      9  C   LIG    1       29.984 -19.088   6.440  0.00  0.00    +0.045 A 
ATOM     10  C   LIG    1       30.902 -19.409   7.427  0.00  0.00    +0.117 A 
ATOM     11  C   LIG    1       30.697 -20.509   8.257  0.00  0.00    +0.045 A 
ATOM     12  C   LIG    1       29.538 -21.279   8.102  0.00  0.00    +0.007 A 
BRANCH  10  13
ATOM     13  O   LIG    1       31.999 -18.610   7.562  0.00  0.00    -0.507 OA
ATOM     14  H   LIG    1       32.788 -19.171   7.607  0.00  0.00    +0.292 HD
ENDBRANCH  10  13
ENDBRANCH   6   7
ENDBRANCH   5   6
ENDBRANCH   2   5
ENDBRANCH   1   2
BRANCH   1  15
ATOM     15  C   LIG    1       24.312 -24.149   6.658  0.00  0.00    +0.158 C 
BRANCH  15  16
ATOM     16  C   LIG    1       24.773 -25.493   6.099  0.00  0.00    -0.011 A 
ATOM     17  C   LIG    1       26.124 -25.702   5.781  0.00  0.00    +0.051 A 
ATOM     18  C   LIG    1       26.579 -26.958   5.368  0.00  0.00    +0.121 A 
ATOM     19  C   LIG    1       25.708 -28.033   5.254  0.00  0.00    +0.090 A 
ATOM     20  C   LIG    1       24.367 -27.830   5.548  0.00  0.00    +0.121 A 
ATOM     21  C   LIG    1       23.889 -26.582   5.955  0.00  0.00    +0.051 A 
BRANCH  18  22
ATOM     22  O   LIG    1       27.912 -27.101   5.110  0.00  0.00    -0.507 OA
ATOM     23  H   LIG    1       28.116 -28.051   5.110  0.00  0.00    +0.292 HD
ENDBRANCH  18  22
BRANCH  20  24
ATOM     24  O   LIG    1       23.537 -28.913   5.449  0.00  0.00    -0.507 OA
ATOM     25  H   LIG    1       23.291 -29.193   6.348  0.00  0.00    +0.292 HD
ENDBRANCH  20  24
ENDBRANCH  15  16
BRANCH  15  26
ATOM     26  O   LIG    1       22.887 -24.064   6.514  0.00  0.00    -0.386 OA
ATOM     27  H   LIG    1       22.730 -23.335   5.892  0.00  0.00    +0.210 HD
ENDBRANCH  15  26
ENDBRANCH   1  15
TORSDOF 10
ENDMDL
MODEL 7
REMARK VINA RESULT:      -8.7      2.692      4.230
REMARK  Name = *****
REMARK                            x       y       z     vdW  Elec       q    Type
REMARK                         _______ _______ _______ _____ _____    ______ ____
ROOT
ATOM      1  C   LIG    1       26.747 -20.345   7.378  0.00  0.00    +0.117 C 
ENDROOT
BRANCH   1   2
ATOM      2  N   LIG    1       28.157 -20.355   6.888  0.00  0.00    -0.310 NA
ATOM      3  H   LIG    1       28.383 -21.315   6.615  0.00  0.00    +0.122 HD
BRANCH   2   5
ATOM      4  C   LIG    1       30.084 -21.141   8.219  0.00  0.00    +0.024 C 
ATOM      5  C   LIG    1       29.166 -19.939   7.905  0.00  0.00    +0.055 C 
BRANCH   5   6
ATOM      6  C   LIG    1       30.028 -18.711   7.496  0.00  0.00    +0.053 C 
BRANCH   6   7
ATOM      7  C   LIG    1       30.646 -17.957   8.663  0.00  0.00    -0.046 A 
ATOM      8  C   LIG    1       31.963 -17.475   8.588  0.00  0.00    +0.007 A 
ATOM      9  C   LIG    1       32.518 -16.753   9.646  0.00  0.00    +0.045 A 
ATOM     10  C   LIG    1       31.766 -16.508  10.784  0.00  0.00    +0.117 A 
ATOM     11  C   LIG    1       30.469 -17.002  10.899  0.00  0.00    +0.045 A 
ATOM     12  C   LIG    1       29.916 -17.731   9.839  0.00  0.00    +0.007 A 
BRANCH  10  13
ATOM     13  O   LIG    1       32.335 -15.764  11.777  0.00  0.00    -0.507 OA
ATOM     14  H   LIG    1       31.693 -15.666  12.497  0.00  0.00    +0.292 HD
ENDBRANCH  10  13
ENDBRANCH   6   7
ENDBRANCH   5   6
ENDBRANCH   2   5
ENDBRANCH   1   2
BRANCH   1  15
ATOM     15  C   LIG    1       26.376 -21.626   8.192  0.00  0.00    +0.158 C 
BRANCH  15  16
ATOM     16  C   LIG    1       25.598 -22.696   7.429  0.00  0.00    -0.011 A 
ATOM     17  C   LIG    1       26.271 -23.782   6.848  0.00  0.00    +0.051 A 
ATOM     18  C   LIG    1       25.563 -24.823   6.239  0.00  0.00    +0.121 A 
ATOM     19  C   LIG    1       24.176 -24.810   6.186  0.00  0.00    +0.090 A 
ATOM     20  C   LIG    1       23.503 -23.730   6.741  0.00  0.00    +0.121 A 
ATOM     21  C   LIG    1       24.191 -22.676   7.348  0.00  0.00    +0.051 A 
BRANCH  18  22
ATOM     22  O   LIG    1       26.279 -25.866   5.726  0.00  0.00    -0.507 OA
ATOM     23  H   LIG    1       27.177 -25.547   5.536  0.00  0.00    +0.292 HD
ENDBRANCH  18  22
BRANCH  20  24
ATOM     24  O   LIG    1       22.137 -23.757   6.694  0.00  0.00    -0.507 OA
ATOM     25  H   LIG    1       21.802 -23.884   7.599  0.00  0.00    +0.292 HD
ENDBRANCH  20  24
ENDBRANCH  15  16
BRANCH  15  26
ATOM     26  O   LIG    1       25.613 -21.246   9.346  0.00  0.00    -0.386 OA
ATOM     27  H   LIG    1       25.242 -22.072   9.697  0.00  0.00    +0.210 HD
ENDBRANCH  15  26
ENDBRANCH   1  15
TORSDOF 10
ENDMDL
MODEL 8
REMARK VINA RESULT:      -8.6      1.883      3.160
REMARK  Name = *****
REMARK                            x       y       z     vdW  Elec       q    Type
REMARK                         _______ _______ _______ _____ _____    ______ ____
ROOT
ATOM      1  C   LIG    1       23.687 -23.817   6.805  0.00  0.00    +0.117 C 
ENDROOT
BRANCH   1   2
ATOM      2  N   LIG    1       22.844 -22.859   6.031  0.00  0.00    -0.310 NA
ATOM      3  H   LIG    1       22.636 -23.289   5.127  0.00  0.00    +0.122 HD
BRANCH   2   5
ATOM      4  C   LIG    1       22.466 -20.600   5.104  0.00  0.00    +0.024 C 
ATOM      5  C   LIG    1       23.499 -21.548   5.753  0.00  0.00    +0.055 C 
BRANCH   5   6
ATOM      6  C   LIG    1       24.131 -20.863   6.999  0.00  0.00    +0.053 C 
BRANCH   6   7
ATOM      7  C   LIG    1       25.635 -20.657   6.910  0.00  0.00    -0.046 A 
ATOM      8  C   LIG    1       26.447 -20.810   8.046  0.00  0.00    +0.007 A 
ATOM      9  C   LIG    1       27.831 -20.655   7.956  0.00  0.00    +0.045 A 
ATOM     10  C   LIG    1       28.415 -20.345   6.738  0.00  0.00    +0.117 A 
ATOM     11  C   LIG    1       27.630 -20.155   5.603  0.00  0.00    +0.045 A 
ATOM     12  C   LIG    1       26.241 -20.305   5.695  0.00  0.00    +0.007 A 
BRANCH  10  13
ATOM     13  O   LIG    1       29.774 -20.242   6.689  0.00  0.00    -0.507 OA
ATOM     14  H   LIG    1       30.093 -19.928   7.549  0.00  0.00    +0.292 HD
ENDBRANCH  10  13
ENDBRANCH   6   7
ENDBRANCH   5   6
ENDBRANCH   2   5
ENDBRANCH   1   2
BRANCH   1  15
ATOM     15  C   LIG    1       24.736 -24.559   5.917  0.00  0.00    +0.158 C 
BRANCH  15  16
ATOM     16  C   LIG    1       24.901 -26.053   6.189  0.00  0.00    -0.011 A 
ATOM     17  C   LIG    1       25.837 -26.502   7.134  0.00  0.00    +0.051 A 
ATOM     18  C   LIG    1       25.925 -27.857   7.470  0.00  0.00    +0.121 A 
ATOM     19  C   LIG    1       25.094 -28.797   6.875  0.00  0.00    +0.090 A 
ATOM     20  C   LIG    1       24.180 -28.364   5.924  0.00  0.00    +0.121 A 
ATOM     21  C   LIG    1       24.080 -27.016   5.569  0.00  0.00    +0.051 A 
BRANCH  18  22
ATOM     22  O   LIG    1       26.831 -28.220   8.423  0.00  0.00    -0.507 OA
ATOM     23  H   LIG    1       27.566 -28.673   7.978  0.00  0.00    +0.292 HD
ENDBRANCH  18  22
BRANCH  20  24
ATOM     24  O   LIG    1       23.360 -29.310   5.373  0.00  0.00    -0.507 OA
ATOM     25  H   LIG    1       22.438 -29.065   5.565  0.00  0.00    +0.292 HD
ENDBRANCH  20  24
ENDBRANCH  15  16
BRANCH  15  26
ATOM     26  O   LIG    1       26.015 -23.927   6.071  0.00  0.00    -0.386 OA
ATOM     27  H   LIG    1       26.615 -24.623   6.385  0.00  0.00    +0.210 HD
ENDBRANCH  15  26
ENDBRANCH   1  15
TORSDOF 10
ENDMDL
MODEL 9
REMARK VINA RESULT:      -8.5      3.112      7.003
REMARK  Name = *****
REMARK                            x       y       z     vdW  Elec       q    Type
REMARK                         _______ _______ _______ _____ _____    ______ ____
ROOT
ATOM      1  C   LIG    1       26.785 -22.812   7.165  0.00  0.00    +0.117 C 
ENDROOT
BRANCH   1   2
ATOM      2  N   LIG    1       25.465 -23.401   7.538  0.00  0.00    -0.310 NA
ATOM      3  H   LIG    1       25.642 -24.314   7.965  0.00  0.00    +0.122 HD
BRANCH   2   5
ATOM      4  C   LIG    1       24.081 -25.100   6.398  0.00  0.00    +0.024 C 
ATOM      5  C   LIG    1       24.544 -23.627   6.386  0.00  0.00    +0.055 C 
BRANCH   5   6
ATOM      6  C   LIG    1       23.305 -22.686   6.355  0.00  0.00    +0.053 C 
BRANCH   6   7
ATOM      7  C   LIG    1       23.496 -21.418   5.539  0.00  0.00    -0.046 A 
ATOM      8  C   LIG    1       22.540 -20.389   5.580  0.00  0.00    +0.007 A 
ATOM      9  C   LIG    1       22.733 -19.210   4.857  0.00  0.00    +0.045 A 
ATOM     10  C   LIG    1       23.876 -19.049   4.090  0.00  0.00    +0.117 A 
ATOM     11  C   LIG    1       24.824 -20.066   4.007  0.00  0.00    +0.045 A 
ATOM     12  C   LIG    1       24.627 -21.250   4.727  0.00  0.00    +0.007 A 
BRANCH  10  13
ATOM     13  O   LIG    1       24.042 -17.865   3.433  0.00  0.00    -0.507 OA
ATOM     14  H   LIG    1       24.898 -17.487   3.686  0.00  0.00    +0.292 HD
ENDBRANCH  10  13
ENDBRANCH   6   7
ENDBRANCH   5   6
ENDBRANCH   2   5
ENDBRANCH   1   2
BRANCH   1  15
ATOM     15  C   LIG    1       26.898 -21.296   7.524  0.00  0.00    +0.158 C 
BRANCH  15  16
ATOM     16  C   LIG    1       28.249 -20.644   7.238  0.00  0.00    -0.011 A 
ATOM     17  C   LIG    1       28.361 -19.647   6.257  0.00  0.00    +0.051 A 
ATOM     18  C   LIG    1       29.568 -18.967   6.058  0.00  0.00    +0.121 A 
ATOM     19  C   LIG    1       30.690 -19.264   6.819  0.00  0.00    +0.090 A 
ATOM     20  C   LIG    1       30.593 -20.263   7.777  0.00  0.00    +0.121 A 
ATOM     21  C   LIG    1       29.400 -20.959   7.989  0.00  0.00    +0.051 A 
BRANCH  18  22
ATOM     22  O   LIG    1       29.596 -17.983   5.112  0.00  0.00    -0.507 OA
ATOM     23  H   LIG    1       28.933 -17.316   5.356  0.00  0.00    +0.292 HD
ENDBRANCH  18  22
BRANCH  20  24
ATOM     24  O   LIG    1       31.709 -20.516   8.527  0.00  0.00    -0.507 OA
ATOM     25  H   LIG    1       31.829 -19.782   9.155  0.00  0.00    +0.292 HD
ENDBRANCH  20  24
ENDBRANCH  15  16
BRANCH  15  26
ATOM     26  O   LIG    1       26.593 -21.116   8.914  0.00  0.00    -0.386 OA
ATOM     27  H   LIG    1       26.838 -20.199   9.118  0.00  0.00    +0.210 HD
ENDBRANCH  15  26
ENDBRANCH   1  15
TORSDOF 10
ENDMDL
