MODEL 1
REMARK VINA RESULT:      -7.6      0.000      0.000
REMARK  Name = *****
REMARK                            x       y       z     vdW  Elec       q    Type
REMARK                         _______ _______ _______ _____ _____    ______ ____
ROOT
ATOM      1  C   LIG    1       24.951 -29.206   7.068  0.00  0.00    +0.130 A 
ATOM      2  C   LIG    1       25.659 -28.134   7.635  0.00  0.00    +0.034 A 
ATOM      3  C   LIG    1       26.565 -28.306   8.823  0.00  0.00    +0.051 C 
ATOM      4  C   LIG    1       25.501 -26.863   7.060  0.00  0.00    +0.149 A 
ATOM      5  C   LIG    1       24.825 -26.668   5.855  0.00  0.00    +0.061 A 
ATOM      6  C   LIG    1       24.942 -25.367   5.201  0.00  0.00    +0.156 C 
ATOM      7  C   LIG    1       25.338 -24.302   5.913  0.00  0.00    +0.162 C 
ATOM      8  C   LIG    1       25.681 -24.464   7.352  0.00  0.00    +0.362 C 
ATOM      9  O   LIG    1       25.794 -23.486   8.087  0.00  0.00    -0.243 OA
ATOM     10  C   LIG    1       24.097 -27.731   5.330  0.00  0.00    +0.019 A 
ATOM     11  O   LIG    1       25.994 -25.747   7.771  0.00  0.00    -0.420 OA
ATOM     12  C   LIG    1       24.116 -28.973   5.968  0.00  0.00    +0.047 A 
ENDROOT
BRANCH   7  13
ATOM     13  N   LIG    1       25.536 -23.036   5.391  0.00  0.00    -0.273 N 
ATOM     14  H   LIG    1       26.493 -22.701   5.453  0.00  0.00    +0.155 HD
ATOM     15  C   LIG    1       24.565 -22.052   5.359  0.00  0.00    +0.248 C 
ATOM     16  O   LIG    1       23.439 -22.137   5.833  0.00  0.00    -0.270 OA
BRANCH  15  17
ATOM     17  C   LIG    1       25.037 -20.755   4.804  0.00  0.00    +0.037 A 
ATOM     18  C   LIG    1       26.307 -20.276   5.161  0.00  0.00    +0.020 A 
ATOM     19  C   LIG    1       26.794 -19.074   4.618  0.00  0.00    -0.002 A 
ATOM     20  C   LIG    1       25.973 -18.377   3.719  0.00  0.00    +0.120 A 
ATOM     21  C   LIG    1       24.698 -18.833   3.385  0.00  0.00    +0.046 A 
ATOM     22  C   LIG    1       24.228 -20.022   3.929  0.00  0.00    +0.016 A 
BRANCH  20  23
ATOM     23  O   LIG    1       26.433 -17.235   3.130  0.00  0.00    -0.506 OA
ATOM     24  H   LIG    1       26.886 -16.694   3.795  0.00  0.00    +0.292 HD
ENDBRANCH  20  23
BRANCH  19  25
ATOM     25  C   LIG    1       28.166 -18.566   5.010  0.00  0.00    +0.066 C 
BRANCH  25  26
ATOM     26  C   LIG    1       28.969 -19.556   5.816  0.00  0.00    -0.023 C 
ATOM     27  C   LIG    1       29.660 -19.327   6.953  0.00  0.00    -0.079 C 
ATOM     28  C   LIG    1       30.410 -20.432   7.647  0.00  0.00    +0.038 C 
ATOM     29  C   LIG    1       29.729 -18.005   7.665  0.00  0.00    +0.038 C 
ENDBRANCH  25  26
ENDBRANCH  19  25
ENDBRANCH  15  17
ENDBRANCH   7  13
BRANCH   6  30
ATOM     30  O   LIG    1       24.828 -25.323   3.822  0.00  0.00    -0.504 OA
ATOM     31  H   LIG    1       23.897 -25.412   3.569  0.00  0.00    +0.292 HD
ENDBRANCH   6  30
BRANCH   1  32
ATOM     32  O   LIG    1       25.076 -30.444   7.649  0.00  0.00    -0.460 OA
BRANCH  32  38
ATOM     33  C   LIG    1       23.617 -32.325  11.104  0.00  0.00    +0.193 C 
ATOM     34  C   LIG    1       23.936 -30.777  11.144  0.00  0.00    +0.098 C 
ATOM     35  C   LIG    1       24.789 -30.394  12.372  0.00  0.00    +0.044 C 
ATOM     36  C   LIG    1       22.679 -29.884  11.243  0.00  0.00    +0.044 C 
ATOM     37  O   LIG    1       24.705 -30.402   9.984  0.00  0.00    -0.331 OA
ATOM     38  C   LIG    1       24.135 -30.737   8.711  0.00  0.00    +0.341 C 
ATOM     39  C   LIG    1       23.751 -32.234   8.608  0.00  0.00    +0.226 C 
ATOM     40  C   LIG    1       22.870 -32.662   9.791  0.00  0.00    +0.244 C 
BRANCH  33  42
ATOM     41  C   LIG    1       25.073 -33.825  12.351  0.00  0.00    +0.194 C 
ATOM     42  O   LIG    1       24.847 -33.082  11.152  0.00  0.00    -0.373 OA
ENDBRANCH  33  42
BRANCH  39  43
ATOM     43  O   LIG    1       23.027 -32.510   7.393  0.00  0.00    -0.382 OA
ATOM     44  H   LIG    1       23.643 -32.334   6.659  0.00  0.00    +0.210 HD
ENDBRANCH  39  43
BRANCH  40  45
ATOM     45  O   LIG    1       21.592 -31.998   9.675  0.00  0.00    -0.442 OA
BRANCH  45  46
ATOM     46  C   LIG    1       20.502 -32.711  10.007  0.00  0.00    +0.398 C 
ATOM     47  O   LIG    1       19.703 -32.441  10.909  0.00  0.00    -0.227 OA
ATOM     48  N   LIG    1       20.346 -33.718   9.132  0.00  0.00    -0.295 N 
ATOM     49  H   LIG    1       19.497 -34.264   9.135  0.00  0.00    +0.148 HD
ATOM     50  H   LIG    1       21.038 -33.863   8.407  0.00  0.00    +0.148 HD
ENDBRANCH  45  46
ENDBRANCH  40  45
ENDBRANCH  32  38
ENDBRANCH   1  32
TORSDOF 12
ENDMDL
MODEL 2
REMARK VINA RESULT:      -6.8      1.803      3.109
REMARK  Name = *****
REMARK                            x       y       z     vdW  Elec       q    Type
REMARK                         _______ _______ _______ _____ _____    ______ ____
ROOT
ATOM      1  C   LIG    1       25.266 -30.429   8.097  0.00  0.00    +0.130 A 
ATOM      2  C   LIG    1       24.781 -29.904   6.888  0.00  0.00    +0.034 A 
ATOM      3  C   LIG    1       23.916 -30.703   5.953  0.00  0.00    +0.051 C 
ATOM      4  C   LIG    1       25.128 -28.584   6.557  0.00  0.00    +0.149 A 
ATOM      5  C   LIG    1       25.770 -27.733   7.457  0.00  0.00    +0.061 A 
ATOM      6  C   LIG    1       25.848 -26.312   7.127  0.00  0.00    +0.156 C 
ATOM      7  C   LIG    1       25.676 -25.918   5.857  0.00  0.00    +0.162 C 
ATOM      8  C   LIG    1       25.378 -26.927   4.806  0.00  0.00    +0.362 C 
ATOM      9  O   LIG    1       25.470 -26.643   3.614  0.00  0.00    -0.243 OA
ATOM     10  C   LIG    1       26.278 -28.280   8.631  0.00  0.00    +0.019 A 
ATOM     11  O   LIG    1       24.869 -28.140   5.242  0.00  0.00    -0.420 OA
ATOM     12  C   LIG    1       26.076 -29.632   8.917  0.00  0.00    +0.047 A 
ENDROOT
BRANCH   7  13
ATOM     13  N   LIG    1       25.674 -24.600   5.436  0.00  0.00    -0.273 N 
ATOM     14  H   LIG    1       26.598 -24.206   5.283  0.00  0.00    +0.155 HD
ATOM     15  C   LIG    1       24.688 -23.685   5.760  0.00  0.00    +0.248 C 
ATOM     16  O   LIG    1       23.732 -23.889   6.498  0.00  0.00    -0.270 OA
BRANCH  15  17
ATOM     17  C   LIG    1       24.941 -22.315   5.240  0.00  0.00    +0.037 A 
ATOM     18  C   LIG    1       26.056 -21.599   5.701  0.00  0.00    +0.020 A 
ATOM     19  C   LIG    1       26.341 -20.319   5.195  0.00  0.00    -0.002 A 
ATOM     20  C   LIG    1       25.478 -19.787   4.226  0.00  0.00    +0.120 A 
ATOM     21  C   LIG    1       24.351 -20.481   3.787  0.00  0.00    +0.046 A 
ATOM     22  C   LIG    1       24.080 -21.746   4.295  0.00  0.00    +0.016 A 
BRANCH  20  23
ATOM     23  O   LIG    1       25.753 -18.570   3.671  0.00  0.00    -0.506 OA
ATOM     24  H   LIG    1       26.479 -18.154   4.162  0.00  0.00    +0.292 HD
ENDBRANCH  20  23
BRANCH  19  25
ATOM     25  C   LIG    1       27.548 -19.556   5.699  0.00  0.00    +0.066 C 
BRANCH  25  26
ATOM     26  C   LIG    1       28.319 -20.284   6.772  0.00  0.00    -0.023 C 
ATOM     27  C   LIG    1       29.610 -20.107   7.127  0.00  0.00    -0.079 C 
ATOM     28  C   LIG    1       30.234 -20.914   8.232  0.00  0.00    +0.038 C 
ATOM     29  C   LIG    1       30.536 -19.093   6.516  0.00  0.00    +0.038 C 
ENDBRANCH  25  26
ENDBRANCH  19  25
ENDBRANCH  15  17
ENDBRANCH   7  13
BRANCH   6  30
ATOM     30  O   LIG    1       25.903 -25.407   8.173  0.00  0.00    -0.504 OA
ATOM     31  H   LIG    1       25.462 -25.780   8.951  0.00  0.00    +0.292 HD
ENDBRANCH   6  30
BRANCH   1  32
ATOM     32  O   LIG    1       24.957 -31.730   8.408  0.00  0.00    -0.460 OA
BRANCH  32  38
ATOM     33  C   LIG    1       23.224 -30.677  12.081  0.00  0.00    +0.193 C 
ATOM     34  C   LIG    1       22.288 -31.058  10.866  0.00  0.00    +0.098 C 
ATOM     35  C   LIG    1       21.161 -30.024  10.658  0.00  0.00    +0.044 C 
ATOM     36  C   LIG    1       21.556 -32.408  11.043  0.00  0.00    +0.044 C 
ATOM     37  O   LIG    1       23.049 -31.079   9.643  0.00  0.00    -0.331 OA
ATOM     38  C   LIG    1       24.208 -31.923   9.632  0.00  0.00    +0.341 C 
ATOM     39  C   LIG    1       25.159 -31.642  10.823  0.00  0.00    +0.226 C 
ATOM     40  C   LIG    1       24.400 -31.680  12.158  0.00  0.00    +0.244 C 
BRANCH  33  42
ATOM     41  C   LIG    1       23.841 -28.539  13.070  0.00  0.00    +0.194 C 
ATOM     42  O   LIG    1       23.755 -29.345  11.893  0.00  0.00    -0.373 OA
ENDBRANCH  33  42
BRANCH  39  43
ATOM     43  O   LIG    1       26.222 -32.611  10.889  0.00  0.00    -0.382 OA
ATOM     44  H   LIG    1       26.639 -32.624  10.008  0.00  0.00    +0.210 HD
ENDBRANCH  39  43
BRANCH  40  45
ATOM     45  O   LIG    1       23.976 -33.039  12.406  0.00  0.00    -0.442 OA
BRANCH  45  46
ATOM     46  C   LIG    1       24.225 -33.542  13.626  0.00  0.00    +0.398 C 
ATOM     47  O   LIG    1       23.383 -33.804  14.492  0.00  0.00    -0.227 OA
ATOM     48  N   LIG    1       25.534 -33.825  13.731  0.00  0.00    -0.295 N 
ATOM     49  H   LIG    1       25.876 -34.351  14.522  0.00  0.00    +0.148 HD
ATOM     50  H   LIG    1       26.159 -33.596  12.968  0.00  0.00    +0.148 HD
ENDBRANCH  45  46
ENDBRANCH  40  45
ENDBRANCH  32  38
ENDBRANCH   1  32
TORSDOF 12
ENDMDL
MODEL 3
REMARK VINA RESULT:      -6.2      1.533      2.808
REMARK  Name = *****
REMARK                            x       y       z     vdW  Elec       q    Type
REMARK                         _______ _______ _______ _____ _____    ______ ____
ROOT
ATOM      1  C   LIG    1       25.128 -29.297   7.181  0.00  0.00    +0.130 A 
ATOM      2  C   LIG    1       25.773 -28.162   7.699  0.00  0.00    +0.034 A 
ATOM      3  C   LIG    1       26.716 -28.236   8.868  0.00  0.00    +0.051 C 
ATOM      4  C   LIG    1       25.515 -26.922   7.092  0.00  0.00    +0.149 A 
ATOM      5  C   LIG    1       24.799 -26.810   5.900  0.00  0.00    +0.061 A 
ATOM      6  C   LIG    1       24.811 -25.525   5.206  0.00  0.00    +0.156 C 
ATOM      7  C   LIG    1       25.149 -24.414   5.878  0.00  0.00    +0.162 C 
ATOM      8  C   LIG    1       25.536 -24.509   7.311  0.00  0.00    +0.362 C 
ATOM      9  O   LIG    1       25.598 -23.504   8.015  0.00  0.00    -0.243 OA
ATOM     10  C   LIG    1       24.134 -27.936   5.423  0.00  0.00    +0.019 A 
ATOM     11  O   LIG    1       25.946 -25.755   7.759  0.00  0.00    -0.420 OA
ATOM     12  C   LIG    1       24.253 -29.154   6.096  0.00  0.00    +0.047 A 
ENDROOT
BRANCH   7  13
ATOM     13  N   LIG    1       25.247 -23.155   5.315  0.00  0.00    -0.273 N 
ATOM     14  H   LIG    1       26.199 -22.813   5.212  0.00  0.00    +0.155 HD
ATOM     15  C   LIG    1       24.277 -22.176   5.434  0.00  0.00    +0.248 C 
ATOM     16  O   LIG    1       23.247 -22.261   6.090  0.00  0.00    -0.270 OA
BRANCH  15  17
ATOM     17  C   LIG    1       24.640 -20.884   4.793  0.00  0.00    +0.037 A 
ATOM     18  C   LIG    1       23.625 -19.981   4.443  0.00  0.00    +0.020 A 
ATOM     19  C   LIG    1       23.944 -18.735   3.874  0.00  0.00    -0.002 A 
ATOM     20  C   LIG    1       25.298 -18.433   3.667  0.00  0.00    +0.120 A 
ATOM     21  C   LIG    1       26.309 -19.340   3.984  0.00  0.00    +0.046 A 
ATOM     22  C   LIG    1       25.981 -20.568   4.546  0.00  0.00    +0.016 A 
BRANCH  20  23
ATOM     23  O   LIG    1       25.649 -17.212   3.168  0.00  0.00    -0.506 OA
ATOM     24  H   LIG    1       26.138 -16.720   3.846  0.00  0.00    +0.292 HD
ENDBRANCH  20  23
BRANCH  19  25
ATOM     25  C   LIG    1       22.840 -17.767   3.501  0.00  0.00    +0.066 C 
BRANCH  25  26
ATOM     26  C   LIG    1       22.251 -17.038   4.682  0.00  0.00    -0.023 C 
ATOM     27  C   LIG    1       22.512 -15.777   5.088  0.00  0.00    -0.079 C 
ATOM     28  C   LIG    1       21.829 -15.187   6.292  0.00  0.00    +0.038 C 
ATOM     29  C   LIG    1       23.446 -14.827   4.393  0.00  0.00    +0.038 C 
ENDBRANCH  25  26
ENDBRANCH  19  25
ENDBRANCH  15  17
ENDBRANCH   7  13
BRANCH   6  30
ATOM     30  O   LIG    1       24.662 -25.530   3.830  0.00  0.00    -0.504 OA
ATOM     31  H   LIG    1       25.534 -25.570   3.408  0.00  0.00    +0.292 HD
ENDBRANCH   6  30
BRANCH   1  32
ATOM     32  O   LIG    1       25.351 -30.505   7.793  0.00  0.00    -0.460 OA
BRANCH  32  38
ATOM     33  C   LIG    1       23.774 -32.437  11.168  0.00  0.00    +0.193 C 
ATOM     34  C   LIG    1       23.750 -30.858  11.100  0.00  0.00    +0.098 C 
ATOM     35  C   LIG    1       24.291 -30.216  12.396  0.00  0.00    +0.044 C 
ATOM     36  C   LIG    1       22.334 -30.264  10.927  0.00  0.00    +0.044 C 
ATOM     37  O   LIG    1       24.602 -30.396  10.034  0.00  0.00    -0.331 OA
ATOM     38  C   LIG    1       24.332 -30.932   8.731  0.00  0.00    +0.341 C 
ATOM     39  C   LIG    1       24.293 -32.480   8.721  0.00  0.00    +0.226 C 
ATOM     40  C   LIG    1       23.341 -33.017   9.800  0.00  0.00    +0.244 C 
BRANCH  33  42
ATOM     41  C   LIG    1       25.222 -33.825  12.549  0.00  0.00    +0.194 C 
ATOM     42  O   LIG    1       25.112 -32.895  11.469  0.00  0.00    -0.373 OA
ENDBRANCH  33  42
BRANCH  39  43
ATOM     43  O   LIG    1       23.853 -32.989   7.447  0.00  0.00    -0.382 OA
ATOM     44  H   LIG    1       22.926 -32.708   7.344  0.00  0.00    +0.210 HD
ENDBRANCH  39  43
BRANCH  40  45
ATOM     45  O   LIG    1       21.988 -32.664   9.434  0.00  0.00    -0.442 OA
BRANCH  45  46
ATOM     46  C   LIG    1       21.001 -33.408   9.960  0.00  0.00    +0.398 C 
ATOM     47  O   LIG    1       20.806 -33.615  11.162  0.00  0.00    -0.227 OA
ATOM     48  N   LIG    1       20.180 -33.815   8.978  0.00  0.00    -0.295 N 
ATOM     49  H   LIG    1       19.300 -34.256   9.204  0.00  0.00    +0.148 HD
ATOM     50  H   LIG    1       20.399 -33.589   8.015  0.00  0.00    +0.148 HD
ENDBRANCH  45  46
ENDBRANCH  40  45
ENDBRANCH  32  38
ENDBRANCH   1  32
TORSDOF 12
ENDMDL
MODEL 4
REMARK VINA RESULT:      -5.7      1.665      3.306
REMARK  Name = *****
REMARK                            x       y       z     vdW  Elec       q    Type
REMARK                         _______ _______ _______ _____ _____    ______ ____
ROOT
ATOM      1  C   LIG    1       25.342 -29.292   8.014  0.00  0.00    +0.130 A 
ATOM      2  C   LIG    1       24.733 -28.810   6.844  0.00  0.00    +0.034 A 
ATOM      3  C   LIG    1       23.780 -29.642   6.030  0.00  0.00    +0.051 C 
ATOM      4  C   LIG    1       25.039 -27.502   6.433  0.00  0.00    +0.149 A 
ATOM      5  C   LIG    1       25.766 -26.620   7.232  0.00  0.00    +0.061 A 
ATOM      6  C   LIG    1       25.803 -25.211   6.847  0.00  0.00    +0.156 C 
ATOM      7  C   LIG    1       25.499 -24.861   5.588  0.00  0.00    +0.162 C 
ATOM      8  C   LIG    1       25.100 -25.907   4.609  0.00  0.00    +0.362 C 
ATOM      9  O   LIG    1       25.068 -25.664   3.405  0.00  0.00    -0.243 OA
ATOM     10  C   LIG    1       26.394 -27.125   8.366  0.00  0.00    +0.019 A 
ATOM     11  O   LIG    1       24.643 -27.105   5.137  0.00  0.00    -0.420 OA
ATOM     12  C   LIG    1       26.229 -28.466   8.717  0.00  0.00    +0.047 A 
ENDROOT
BRANCH   7  13
ATOM     13  N   LIG    1       25.449 -23.559   5.125  0.00  0.00    -0.273 N 
ATOM     14  H   LIG    1       26.353 -23.164   4.880  0.00  0.00    +0.155 HD
ATOM     15  C   LIG    1       24.484 -22.641   5.499  0.00  0.00    +0.248 C 
ATOM     16  O   LIG    1       23.596 -22.826   6.321  0.00  0.00    -0.270 OA
BRANCH  15  17
ATOM     17  C   LIG    1       24.678 -21.288   4.913  0.00  0.00    +0.037 A 
ATOM     18  C   LIG    1       23.556 -20.511   4.589  0.00  0.00    +0.020 A 
ATOM     19  C   LIG    1       23.712 -19.213   4.074  0.00  0.00    -0.002 A 
ATOM     20  C   LIG    1       25.016 -18.728   3.892  0.00  0.00    +0.120 A 
ATOM     21  C   LIG    1       26.135 -19.507   4.184  0.00  0.00    +0.046 A 
ATOM     22  C   LIG    1       25.968 -20.790   4.693  0.00  0.00    +0.016 A 
BRANCH  20  23
ATOM     23  O   LIG    1       25.207 -17.453   3.446  0.00  0.00    -0.506 OA
ATOM     24  H   LIG    1       25.170 -17.447   2.476  0.00  0.00    +0.292 HD
ENDBRANCH  20  23
BRANCH  19  25
ATOM     25  C   LIG    1       22.493 -18.383   3.727  0.00  0.00    +0.066 C 
BRANCH  25  26
ATOM     26  C   LIG    1       22.028 -17.494   4.853  0.00  0.00    -0.023 C 
ATOM     27  C   LIG    1       22.324 -16.192   5.054  0.00  0.00    -0.079 C 
ATOM     28  C   LIG    1       21.769 -15.437   6.232  0.00  0.00    +0.038 C 
ATOM     29  C   LIG    1       23.176 -15.355   4.142  0.00  0.00    +0.038 C 
ENDBRANCH  25  26
ENDBRANCH  19  25
ENDBRANCH  15  17
ENDBRANCH   7  13
BRANCH   6  30
ATOM     30  O   LIG    1       25.961 -24.270   7.849  0.00  0.00    -0.504 OA
ATOM     31  H   LIG    1       25.262 -23.602   7.783  0.00  0.00    +0.292 HD
ENDBRANCH   6  30
BRANCH   1  32
ATOM     32  O   LIG    1       25.073 -30.581   8.399  0.00  0.00    -0.460 OA
BRANCH  32  38
ATOM     33  C   LIG    1       23.419 -32.012  11.981  0.00  0.00    +0.193 C 
ATOM     34  C   LIG    1       23.768 -30.475  11.850  0.00  0.00    +0.098 C 
ATOM     35  C   LIG    1       24.572 -29.960  13.064  0.00  0.00    +0.044 C 
ATOM     36  C   LIG    1       22.526 -29.558  11.782  0.00  0.00    +0.044 C 
ATOM     37  O   LIG    1       24.596 -30.253  10.693  0.00  0.00    -0.331 OA
ATOM     38  C   LIG    1       24.079 -30.731   9.443  0.00  0.00    +0.341 C 
ATOM     39  C   LIG    1       23.669 -32.224   9.500  0.00  0.00    +0.226 C 
ATOM     40  C   LIG    1       22.726 -32.493  10.683  0.00  0.00    +0.244 C 
BRANCH  33  42
ATOM     41  C   LIG    1       24.709 -33.513  13.399  0.00  0.00    +0.194 C 
ATOM     42  O   LIG    1       24.631 -32.776  12.177  0.00  0.00    -0.373 OA
ENDBRANCH  33  42
BRANCH  39  43
ATOM     43  O   LIG    1       22.997 -32.633   8.295  0.00  0.00    -0.382 OA
ATOM     44  H   LIG    1       23.606 -32.440   7.560  0.00  0.00    +0.210 HD
ENDBRANCH  39  43
BRANCH  40  45
ATOM     45  O   LIG    1       21.469 -31.830  10.428  0.00  0.00    -0.442 OA
BRANCH  45  46
ATOM     46  C   LIG    1       20.351 -32.554  10.599  0.00  0.00    +0.398 C 
ATOM     47  O   LIG    1       19.552 -32.451  11.535  0.00  0.00    -0.227 OA
ATOM     48  N   LIG    1       20.168 -33.348   9.531  0.00  0.00    -0.295 N 
ATOM     49  H   LIG    1       19.300 -33.851   9.416  0.00  0.00    +0.148 HD
ATOM     50  H   LIG    1       20.862 -33.364   8.794  0.00  0.00    +0.148 HD
ENDBRANCH  45  46
ENDBRANCH  40  45
ENDBRANCH  32  38
ENDBRANCH   1  32
TORSDOF 12
ENDMDL
MODEL 5
REMARK VINA RESULT:      -5.2      2.381      4.295
REMARK  Name = *****
REMARK                            x       y       z     vdW  Elec       q    Type
REMARK                         _______ _______ _______ _____ _____    ______ ____
ROOT
ATOM      1  C   LIG    1       25.342 -29.337   8.078  0.00  0.00    +0.130 A 
ATOM      2  C   LIG    1       24.737 -28.861   6.904  0.00  0.00    +0.034 A 
ATOM      3  C   LIG    1       23.791 -29.699   6.090  0.00  0.00    +0.051 C 
ATOM      4  C   LIG    1       25.040 -27.554   6.490  0.00  0.00    +0.149 A 
ATOM      5  C   LIG    1       25.760 -26.666   7.289  0.00  0.00    +0.061 A 
ATOM      6  C   LIG    1       25.795 -25.259   6.899  0.00  0.00    +0.156 C 
ATOM      7  C   LIG    1       25.496 -24.915   5.638  0.00  0.00    +0.162 C 
ATOM      8  C   LIG    1       25.104 -25.966   4.660  0.00  0.00    +0.362 C 
ATOM      9  O   LIG    1       25.077 -25.727   3.455  0.00  0.00    -0.243 OA
ATOM     10  C   LIG    1       26.386 -27.165   8.428  0.00  0.00    +0.019 A 
ATOM     11  O   LIG    1       24.649 -27.163   5.190  0.00  0.00    -0.420 OA
ATOM     12  C   LIG    1       26.223 -28.506   8.783  0.00  0.00    +0.047 A 
ENDROOT
BRANCH   7  13
ATOM     13  N   LIG    1       25.443 -23.614   5.169  0.00  0.00    -0.273 N 
ATOM     14  H   LIG    1       26.344 -23.226   4.903  0.00  0.00    +0.155 HD
ATOM     15  C   LIG    1       24.492 -22.689   5.560  0.00  0.00    +0.248 C 
ATOM     16  O   LIG    1       23.621 -22.865   6.402  0.00  0.00    -0.270 OA
BRANCH  15  17
ATOM     17  C   LIG    1       24.681 -21.340   4.964  0.00  0.00    +0.037 A 
ATOM     18  C   LIG    1       23.556 -20.575   4.621  0.00  0.00    +0.020 A 
ATOM     19  C   LIG    1       23.707 -19.280   4.095  0.00  0.00    -0.002 A 
ATOM     20  C   LIG    1       25.009 -18.786   3.923  0.00  0.00    +0.120 A 
ATOM     21  C   LIG    1       26.132 -19.554   4.233  0.00  0.00    +0.046 A 
ATOM     22  C   LIG    1       25.969 -20.833   4.752  0.00  0.00    +0.016 A 
BRANCH  20  23
ATOM     23  O   LIG    1       25.194 -17.514   3.466  0.00  0.00    -0.506 OA
ATOM     24  H   LIG    1       24.351 -17.036   3.505  0.00  0.00    +0.292 HD
ENDBRANCH  20  23
BRANCH  19  25
ATOM     25  C   LIG    1       22.485 -18.463   3.729  0.00  0.00    +0.066 C 
BRANCH  25  26
ATOM     26  C   LIG    1       21.996 -17.574   4.846  0.00  0.00    -0.023 C 
ATOM     27  C   LIG    1       22.277 -16.269   5.046  0.00  0.00    -0.079 C 
ATOM     28  C   LIG    1       21.699 -15.515   6.213  0.00  0.00    +0.038 C 
ATOM     29  C   LIG    1       23.133 -15.427   4.142  0.00  0.00    +0.038 C 
ENDBRANCH  25  26
ENDBRANCH  19  25
ENDBRANCH  15  17
ENDBRANCH   7  13
BRANCH   6  30
ATOM     30  O   LIG    1       25.945 -24.314   7.899  0.00  0.00    -0.504 OA
ATOM     31  H   LIG    1       25.244 -23.648   7.827  0.00  0.00    +0.292 HD
ENDBRANCH   6  30
BRANCH   1  32
ATOM     32  O   LIG    1       25.076 -30.626   8.468  0.00  0.00    -0.460 OA
BRANCH  32  38
ATOM     33  C   LIG    1       24.893 -29.582  12.528  0.00  0.00    +0.193 C 
ATOM     34  C   LIG    1       23.558 -29.950  11.764  0.00  0.00    +0.098 C 
ATOM     35  C   LIG    1       22.447 -28.907  12.007  0.00  0.00    +0.044 C 
ATOM     36  C   LIG    1       22.939 -31.296  12.204  0.00  0.00    +0.044 C 
ATOM     37  O   LIG    1       23.792 -29.969  10.342  0.00  0.00    -0.331 OA
ATOM     38  C   LIG    1       24.852 -30.821   9.886  0.00  0.00    +0.341 C 
ATOM     39  C   LIG    1       26.189 -30.553  10.621  0.00  0.00    +0.226 C 
ATOM     40  C   LIG    1       26.000 -30.594  12.145  0.00  0.00    +0.244 C 
BRANCH  33  42
ATOM     41  C   LIG    1       25.228 -27.260  13.178  0.00  0.00    +0.194 C 
ATOM     42  O   LIG    1       25.322 -28.253  12.155  0.00  0.00    -0.373 OA
ENDBRANCH  33  42
BRANCH  39  43
ATOM     43  O   LIG    1       27.188 -31.530  10.272  0.00  0.00    -0.382 OA
ATOM     44  H   LIG    1       26.736 -32.207   9.736  0.00  0.00    +0.210 HD
ENDBRANCH  39  43
BRANCH  40  45
ATOM     45  O   LIG    1       25.691 -31.951  12.533  0.00  0.00    -0.442 OA
BRANCH  45  46
ATOM     46  C   LIG    1       26.107 -32.347  13.748  0.00  0.00    +0.398 C 
ATOM     47  O   LIG    1       26.503 -31.611  14.658  0.00  0.00    -0.227 OA
ATOM     48  N   LIG    1       25.926 -33.672  13.869  0.00  0.00    -0.295 N 
ATOM     49  H   LIG    1       26.040 -34.119  14.768  0.00  0.00    +0.148 HD
ATOM     50  H   LIG    1       25.579 -34.205  13.081  0.00  0.00    +0.148 HD
ENDBRANCH  45  46
ENDBRANCH  40  45
ENDBRANCH  32  38
ENDBRANCH   1  32
TORSDOF 12
ENDMDL
