MODEL 1
REMARK VINA RESULT:      11.4      0.000      0.000
REMARK  Name = *****
REMARK                            x       y       z     vdW  Elec       q    Type
REMARK                         _______ _______ _______ _____ _____    ______ ____
ROOT
ATOM      1  C   LIG    1       23.487 -20.483   4.099  0.00  0.00    +0.185 C 
ATOM      2  O   LIG    1       24.015 -19.698   5.168  0.00  0.00    -0.334 OA
ATOM      3  C   LIG    1       25.453 -19.839   5.115  0.00  0.00    +0.217 C 
ATOM      4  O   LIG    1       25.754 -20.936   4.224  0.00  0.00    -0.341 OA
ATOM      5  C   LIG    1       24.515 -21.567   3.920  0.00  0.00    +0.198 C 
ENDROOT
BRANCH   3   6
ATOM      6  C   LIG    1       26.142 -18.574   4.578  0.00  0.00    +0.031 A 
ATOM      7  C   LIG    1       25.593 -17.719   3.602  0.00  0.00    +0.051 A 
ATOM      8 CL   LIG    1       24.080 -18.015   2.820  0.00  0.00    -0.083 Cl
ATOM      9  C   LIG    1       26.247 -16.536   3.219  0.00  0.00    +0.040 A 
ATOM     10  C   LIG    1       27.452 -16.175   3.811  0.00  0.00    +0.042 A 
ATOM     11 CL   LIG    1       28.200 -14.685   3.386  0.00  0.00    -0.084 Cl
ATOM     12  C   LIG    1       28.034 -17.001   4.759  0.00  0.00    +0.020 A 
ATOM     13  C   LIG    1       27.390 -18.188   5.130  0.00  0.00    +0.012 A 
ENDBRANCH   3   6
BRANCH   1  14
ATOM     14  C   LIG    1       22.083 -20.999   4.419  0.00  0.00    +0.263 C 
BRANCH  14  15
ATOM     15  O   LIG    1       21.183 -19.926   4.687  0.00  0.00    -0.489 OA
BRANCH  15  19
ATOM     16  C   LIG    1       22.403 -15.885   4.373  0.00  0.00    +0.030 A 
ATOM     17  C   LIG    1       21.713 -16.590   3.373  0.00  0.00    +0.027 A 
ATOM     18  C   LIG    1       21.334 -17.933   3.526  0.00  0.00    +0.047 A 
ATOM     19  C   LIG    1       21.624 -18.637   4.689  0.00  0.00    +0.121 A 
ATOM     20  C   LIG    1       22.325 -17.981   5.691  0.00  0.00    +0.047 A 
ATOM     21  C   LIG    1       22.709 -16.632   5.527  0.00  0.00    +0.027 A 
BRANCH  16  27
ATOM     22  C   LIG    1       26.915 -12.383   2.944  0.00  0.00    +0.109 C 
ATOM     23  C   LIG    1       26.037 -12.598   4.159  0.00  0.00    +0.213 C 
ATOM     24  N   LIG    1       24.677 -12.334   4.005  0.00  0.00    -0.299 N 
ATOM     25  C   LIG    1       23.940 -12.737   2.814  0.00  0.00    +0.126 C 
ATOM     26  C   LIG    1       23.507 -14.215   2.927  0.00  0.00    +0.124 C 
ATOM     27  N   LIG    1       22.796 -14.531   4.199  0.00  0.00    -0.327 N 
ATOM     28  C   LIG    1       23.369 -13.886   5.424  0.00  0.00    +0.124 C 
ATOM     29  C   LIG    1       23.833 -12.437   5.190  0.00  0.00    +0.126 C 
ATOM     30  O   LIG    1       26.534 -12.898   5.235  0.00  0.00    -0.276 OA
ENDBRANCH  16  27
ENDBRANCH  15  19
ENDBRANCH  14  15
ENDBRANCH   1  14
BRANCH   3  31
ATOM     31  C   LIG    1       25.883 -20.233   6.549  0.00  0.00    +0.193 C 
BRANCH  31  32
ATOM     32  N   LIG    1       27.304 -20.392   6.765  0.00  0.00    -0.331 N 
ATOM     33  C   LIG    1       28.197 -19.394   7.039  0.00  0.00    +0.199 A 
ATOM     34  N   LIG    1       29.430 -19.849   7.060  0.00  0.00    -0.244 NA
ATOM     35  C   LIG    1       29.327 -21.189   6.791  0.00  0.00    +0.130 A 
ATOM     36  C   LIG    1       28.013 -21.548   6.604  0.00  0.00    +0.107 A 
ENDBRANCH  31  32
ENDBRANCH   3  31
TORSDOF 7
ENDMDL
MODEL 2
REMARK VINA RESULT:      12.4      2.370      7.181
REMARK  Name = *****
REMARK                            x       y       z     vdW  Elec       q    Type
REMARK                         _______ _______ _______ _____ _____    ______ ____
ROOT
ATOM      1  C   LIG    1       25.329 -14.071   2.369  0.00  0.00    +0.185 C 
ATOM      2  O   LIG    1       25.263 -14.678   3.660  0.00  0.00    -0.334 OA
ATOM      3  C   LIG    1       23.932 -14.425   4.169  0.00  0.00    +0.217 C 
ATOM      4  O   LIG    1       23.325 -13.420   3.328  0.00  0.00    -0.341 OA
ATOM      5  C   LIG    1       24.349 -12.934   2.468  0.00  0.00    +0.198 C 
ENDROOT
BRANCH   3   6
ATOM      6  C   LIG    1       23.049 -15.683   4.137  0.00  0.00    +0.031 A 
ATOM      7  C   LIG    1       21.982 -15.932   5.022  0.00  0.00    +0.051 A 
ATOM      8 CL   LIG    1       21.555 -14.872   6.319  0.00  0.00    -0.083 Cl
ATOM      9  C   LIG    1       21.169 -17.069   4.880  0.00  0.00    +0.040 A 
ATOM     10  C   LIG    1       21.394 -17.971   3.848  0.00  0.00    +0.042 A 
ATOM     11 CL   LIG    1       20.341 -19.316   3.642  0.00  0.00    -0.084 Cl
ATOM     12  C   LIG    1       22.448 -17.771   2.970  0.00  0.00    +0.020 A 
ATOM     13  C   LIG    1       23.269 -16.647   3.119  0.00  0.00    +0.012 A 
ENDBRANCH   3   6
BRANCH   1  14
ATOM     14  C   LIG    1       26.755 -13.639   2.023  0.00  0.00    +0.263 C 
BRANCH  14  15
ATOM     15  O   LIG    1       27.720 -14.405   2.742  0.00  0.00    -0.489 OA
BRANCH  15  19
ATOM     16  C   LIG    1       26.558 -18.300   3.925  0.00  0.00    +0.030 A 
ATOM     17  C   LIG    1       26.145 -17.669   2.740  0.00  0.00    +0.027 A 
ATOM     18  C   LIG    1       26.557 -16.373   2.395  0.00  0.00    +0.047 A 
ATOM     19  C   LIG    1       27.405 -15.642   3.219  0.00  0.00    +0.121 A 
ATOM     20  C   LIG    1       27.817 -16.222   4.411  0.00  0.00    +0.047 A 
ATOM     21  C   LIG    1       27.393 -17.524   4.754  0.00  0.00    +0.027 A 
BRANCH  16  27
ATOM     22  C   LIG    1       21.834 -21.527   5.315  0.00  0.00    +0.109 C 
ATOM     23  C   LIG    1       23.130 -21.133   5.993  0.00  0.00    +0.213 C 
ATOM     24  N   LIG    1       24.309 -21.571   5.394  0.00  0.00    -0.299 N 
ATOM     25  C   LIG    1       24.504 -21.537   3.949  0.00  0.00    +0.126 C 
ATOM     26  C   LIG    1       24.954 -20.128   3.503  0.00  0.00    +0.124 C 
ATOM     27  N   LIG    1       26.121 -19.606   4.271  0.00  0.00    -0.327 N 
ATOM     28  C   LIG    1       26.088 -19.884   5.742  0.00  0.00    +0.124 C 
ATOM     29  C   LIG    1       25.562 -21.289   6.087  0.00  0.00    +0.126 C 
ATOM     30  O   LIG    1       23.113 -20.540   7.062  0.00  0.00    -0.276 OA
ENDBRANCH  16  27
ENDBRANCH  15  19
ENDBRANCH  14  15
ENDBRANCH   1  14
BRANCH   3  31
ATOM     31  C   LIG    1       24.138 -13.831   5.584  0.00  0.00    +0.193 C 
BRANCH  31  32
ATOM     32  N   LIG    1       25.455 -13.308   5.868  0.00  0.00    -0.331 N 
ATOM     33  C   LIG    1       25.976 -12.134   5.402  0.00  0.00    +0.199 A 
ATOM     34  N   LIG    1       27.240 -12.003   5.742  0.00  0.00    -0.244 NA
ATOM     35  C   LIG    1       27.542 -13.135   6.454  0.00  0.00    +0.130 A 
ATOM     36  C   LIG    1       26.446 -13.960   6.544  0.00  0.00    +0.107 A 
ENDBRANCH  31  32
ENDBRANCH   3  31
TORSDOF 7
ENDMDL
MODEL 3
REMARK VINA RESULT:      12.6      2.332      6.805
REMARK  Name = *****
REMARK                            x       y       z     vdW  Elec       q    Type
REMARK                         _______ _______ _______ _____ _____    ______ ____
ROOT
ATOM      1  C   LIG    1       26.674 -13.149   5.752  0.00  0.00    +0.185 C 
ATOM      2  O   LIG    1       26.261 -14.030   4.706  0.00  0.00    -0.334 OA
ATOM      3  C   LIG    1       27.468 -14.524   4.080  0.00  0.00    +0.217 C 
ATOM      4  O   LIG    1       28.567 -13.710   4.544  0.00  0.00    -0.341 OA
ATOM      5  C   LIG    1       27.996 -12.624   5.264  0.00  0.00    +0.198 C 
ENDROOT
BRANCH   3   6
ATOM      6  C   LIG    1       27.757 -15.988   4.450  0.00  0.00    +0.031 A 
ATOM      7  C   LIG    1       27.067 -17.096   3.922  0.00  0.00    +0.051 A 
ATOM      8 CL   LIG    1       25.744 -16.956   2.818  0.00  0.00    -0.083 Cl
ATOM      9  C   LIG    1       27.442 -18.411   4.248  0.00  0.00    +0.040 A 
ATOM     10  C   LIG    1       28.519 -18.646   5.095  0.00  0.00    +0.042 A 
ATOM     11 CL   LIG    1       29.012 -20.261   5.423  0.00  0.00    -0.084 Cl
ATOM     12  C   LIG    1       29.208 -17.580   5.652  0.00  0.00    +0.020 A 
ATOM     13  C   LIG    1       28.826 -16.269   5.340  0.00  0.00    +0.012 A 
ENDBRANCH   3   6
BRANCH   1  14
ATOM     14  C   LIG    1       25.629 -12.064   6.019  0.00  0.00    +0.263 C 
BRANCH  14  15
ATOM     15  O   LIG    1       24.506 -12.198   5.150  0.00  0.00    -0.489 OA
BRANCH  15  19
ATOM     16  C   LIG    1       23.122 -16.142   4.479  0.00  0.00    +0.030 A 
ATOM     17  C   LIG    1       23.873 -15.739   5.595  0.00  0.00    +0.027 A 
ATOM     18  C   LIG    1       24.312 -14.417   5.769  0.00  0.00    +0.047 A 
ATOM     19  C   LIG    1       24.018 -13.431   4.835  0.00  0.00    +0.121 A 
ATOM     20  C   LIG    1       23.297 -13.794   3.706  0.00  0.00    +0.047 A 
ATOM     21  C   LIG    1       22.865 -15.127   3.535  0.00  0.00    +0.027 A 
BRANCH  16  27
ATOM     22  C   LIG    1       23.424 -21.560   6.762  0.00  0.00    +0.109 C 
ATOM     23  C   LIG    1       23.835 -20.893   5.465  0.00  0.00    +0.213 C 
ATOM     24  N   LIG    1       22.813 -20.358   4.683  0.00  0.00    -0.299 N 
ATOM     25  C   LIG    1       21.701 -19.615   5.265  0.00  0.00    +0.126 C 
ATOM     26  C   LIG    1       22.109 -18.145   5.506  0.00  0.00    +0.124 C 
ATOM     27  N   LIG    1       22.699 -17.486   4.305  0.00  0.00    -0.327 N 
ATOM     28  C   LIG    1       23.639 -18.339   3.512  0.00  0.00    +0.124 C 
ATOM     29  C   LIG    1       23.178 -19.803   3.385  0.00  0.00    +0.126 C 
ATOM     30  O   LIG    1       25.002 -20.917   5.100  0.00  0.00    -0.276 OA
ENDBRANCH  16  27
ENDBRANCH  15  19
ENDBRANCH  14  15
ENDBRANCH   1  14
BRANCH   3  31
ATOM     31  C   LIG    1       27.276 -14.281   2.563  0.00  0.00    +0.193 C 
BRANCH  31  32
ATOM     32  N   LIG    1       26.221 -13.364   2.196  0.00  0.00    -0.331 N 
ATOM     33  C   LIG    1       26.331 -12.006   2.085  0.00  0.00    +0.199 A 
ATOM     34  N   LIG    1       25.163 -11.448   1.854  0.00  0.00    -0.244 NA
ATOM     35  C   LIG    1       24.268 -12.486   1.813  0.00  0.00    +0.130 A 
ATOM     36  C   LIG    1       24.904 -13.686   2.023  0.00  0.00    +0.107 A 
ENDBRANCH  31  32
ENDBRANCH   3  31
TORSDOF 7
ENDMDL
