MODEL 1
REMARK VINA RESULT:      71.9      0.000      0.000
REMARK  Name = *****
REMARK                            x       y       z     vdW  Elec       q    Type
REMARK                         _______ _______ _______ _____ _____    ______ ____
ROOT
ATOM      1  C   LIG    1       22.716 -20.764   3.036  0.00  0.00    +0.134 C 
ATOM      2  C   LIG    1       22.878 -19.620   4.266  0.00  0.00    +0.065 C 
ATOM      3  C   LIG    1       22.883 -20.353   5.627  0.00  0.00    +0.022 C 
ATOM      4  C   LIG    1       24.260 -18.844   3.961  0.00  0.00    +0.097 C 
ATOM      5  C   LIG    1       24.772 -17.406   4.431  0.00  0.00    +0.217 C 
ATOM      6  C   LIG    1       24.104 -16.026   3.718  0.00  0.00    +0.116 C 
ATOM      7  C   LIG    1       22.554 -16.021   3.377  0.00  0.00    +0.022 C 
ATOM      8  C   LIG    1       22.008 -14.627   2.817  0.00  0.00    +0.019 C 
ATOM      9  C   LIG    1       22.183 -16.926   2.187  0.00  0.00    +0.019 C 
ATOM     10  C   LIG    1       21.968 -16.271   4.773  0.00  0.00    -0.023 C 
ATOM     11  C   LIG    1       21.177 -17.532   5.059  0.00  0.00    +0.211 C 
ATOM     12  C   LIG    1       22.234 -15.319   5.726  0.00  0.00    -0.030 C 
ATOM     13  C   LIG    1       21.526 -15.222   7.054  0.00  0.00    +0.043 C 
ATOM     14  C   LIG    1       23.240 -14.196   5.420  0.00  0.00    +0.205 C 
ATOM     15  C   LIG    1       24.409 -14.713   4.530  0.00  0.00    +0.088 C 
ATOM     16  C   LIG    1       25.460 -19.942   3.911  0.00  0.00    +0.170 C 
ATOM     17  C   LIG    1       25.111 -20.568   2.498  0.00  0.00    +0.167 C 
ATOM     18  O   LIG    1       26.472 -21.072   2.395  0.00  0.00    -0.368 OA
ATOM     19  C   LIG    1       26.850 -19.846   3.152  0.00  0.00    +0.211 C 
ATOM     20  C   LIG    1       21.457 -18.908   4.329  0.00  0.00    +0.175 C 
ATOM     21  O   LIG    1       20.462 -19.580   3.992  0.00  0.00    -0.294 OA
ATOM     22  C   LIG    1       23.997 -21.571   2.650  0.00  0.00    +0.068 C 
ENDROOT
BRANCH  11  23
ATOM     23  O   LIG    1       19.771 -17.208   5.097  0.00  0.00    -0.368 OA
ATOM     24  C   LIG    1       19.415 -15.919   4.617  0.00  0.00    +0.195 C 
ENDBRANCH  11  23
BRANCH   6  25
ATOM     25  O   LIG    1       24.825 -15.918   2.463  0.00  0.00    -0.384 OA
ATOM     26  H   LIG    1       24.359 -15.296   1.878  0.00  0.00    +0.210 HD
ENDBRANCH   6  25
BRANCH   1  28
ATOM     27  C   LIG    1       22.007 -18.686   1.963  0.00  0.00    +0.194 C 
ATOM     28  O   LIG    1       22.296 -20.077   1.828  0.00  0.00    -0.379 OA
ENDBRANCH   1  28
BRANCH  14  29
ATOM     29  O   LIG    1       23.765 -13.544   6.598  0.00  0.00    -0.455 OA
BRANCH  29  30
ATOM     30  C   LIG    1       25.122 -13.683   6.812  0.00  0.00    +0.339 C 
ATOM     31  O   LIG    1       25.679 -14.746   7.060  0.00  0.00    -0.248 OA
BRANCH  30  32
ATOM     32  C   LIG    1       25.847 -12.323   6.757  0.00  0.00    +0.247 C 
BRANCH  32  33
ATOM     33  O   LIG    1       25.211 -11.450   5.808  0.00  0.00    -0.379 OA
ATOM     34  H   LIG    1       24.811 -10.722   6.316  0.00  0.00    +0.211 HD
ENDBRANCH  32  33
BRANCH  32  35
ATOM     35  C   LIG    1       27.396 -12.412   6.466  0.00  0.00    +0.146 C 
BRANCH  35  36
ATOM     36  C   LIG    1       27.623 -12.096   4.962  0.00  0.00    -0.024 A 
ATOM     37  C   LIG    1       26.518 -11.892   4.110  0.00  0.00    +0.005 A 
ATOM     38  C   LIG    1       26.668 -11.770   2.715  0.00  0.00    +0.000 A 
ATOM     39  C   LIG    1       27.930 -11.808   2.136  0.00  0.00    +0.000 A 
ATOM     40  C   LIG    1       29.040 -11.991   2.954  0.00  0.00    +0.000 A 
ATOM     41  C   LIG    1       28.889 -12.140   4.346  0.00  0.00    +0.005 A 
ENDBRANCH  35  36
BRANCH  35  42
ATOM     42  N   LIG    1       27.907 -13.718   6.933  0.00  0.00    -0.271 N 
ATOM     43  H   LIG    1       28.726 -13.700   7.531  0.00  0.00    +0.153 HD
ATOM     44  C   LIG    1       27.860 -14.944   6.336  0.00  0.00    +0.401 C 
ATOM     45  O   LIG    1       28.387 -15.895   6.901  0.00  0.00    -0.226 OA
BRANCH  44  46
ATOM     46  O   LIG    1       27.179 -14.976   5.166  0.00  0.00    -0.445 OA
BRANCH  46  47
ATOM     47  C   LIG    1       27.852 -15.332   3.923  0.00  0.00    +0.107 C 
ATOM     48  C   LIG    1       26.940 -16.326   3.169  0.00  0.00    +0.055 C 
ATOM     49  C   LIG    1       29.157 -16.081   4.219  0.00  0.00    +0.055 C 
ATOM     50  C   LIG    1       28.044 -14.107   3.022  0.00  0.00    +0.055 C 
ENDBRANCH  46  47
ENDBRANCH  44  46
ENDBRANCH  35  42
ENDBRANCH  32  35
ENDBRANCH  30  32
ENDBRANCH  29  30
ENDBRANCH  14  29
BRANCH   5  51
ATOM     51  O   LIG    1       25.128 -17.263   5.837  0.00  0.00    -0.455 OA
BRANCH  51  52
ATOM     52  C   LIG    1       25.501 -18.448   6.458  0.00  0.00    +0.340 C 
ATOM     53  O   LIG    1       24.726 -19.194   7.052  0.00  0.00    -0.245 OA
BRANCH  52  54
ATOM     54  C   LIG    1       26.915 -18.880   6.233  0.00  0.00    +0.059 A 
ATOM     55  C   LIG    1       27.785 -18.178   5.401  0.00  0.00    +0.015 A 
ATOM     56  C   LIG    1       29.042 -18.714   5.087  0.00  0.00    +0.001 A 
ATOM     57  C   LIG    1       29.436 -19.956   5.590  0.00  0.00    +0.000 A 
ATOM     58  C   LIG    1       28.591 -20.653   6.449  0.00  0.00    +0.001 A 
ATOM     59  C   LIG    1       27.345 -20.109   6.784  0.00  0.00    +0.015 A 
ENDBRANCH  52  54
ENDBRANCH  51  52
ENDBRANCH   5  51
BRANCH  16  60
ATOM     60  O   LIG    1       25.455 -21.018   4.950  0.00  0.00    -0.453 OA
BRANCH  60  61
ATOM     61  C   LIG    1       24.365 -21.317   5.723  0.00  0.00    +0.305 C 
ATOM     62  O   LIG    1       24.345 -21.450   6.912  0.00  0.00    -0.251 OA
ATOM     63  C   LIG    1       23.053 -21.283   4.970  0.00  0.00    +0.136 C 
ENDBRANCH  60  61
ENDBRANCH  16  60
TORSDOF 17
ENDMDL
MODEL 2
REMARK VINA RESULT:      74.0      1.939      7.804
REMARK  Name = *****
REMARK                            x       y       z     vdW  Elec       q    Type
REMARK                         _______ _______ _______ _____ _____    ______ ____
ROOT
ATOM      1  C   LIG    1       27.213 -12.877   3.892  0.00  0.00    +0.134 C 
ATOM      2  C   LIG    1       26.717 -14.211   4.798  0.00  0.00    +0.065 C 
ATOM      3  C   LIG    1       26.544 -13.773   6.270  0.00  0.00    +0.022 C 
ATOM      4  C   LIG    1       25.340 -14.710   4.122  0.00  0.00    +0.097 C 
ATOM      5  C   LIG    1       24.608 -16.129   4.177  0.00  0.00    +0.217 C 
ATOM      6  C   LIG    1       25.248 -17.416   3.287  0.00  0.00    +0.116 C 
ATOM      7  C   LIG    1       26.825 -17.567   3.194  0.00  0.00    +0.022 C 
ATOM      8  C   LIG    1       27.317 -18.882   2.429  0.00  0.00    +0.019 C 
ATOM      9  C   LIG    1       27.493 -16.501   2.305  0.00  0.00    +0.019 C 
ATOM     10  C   LIG    1       27.174 -17.686   4.683  0.00  0.00    -0.023 C 
ATOM     11  C   LIG    1       28.026 -16.629   5.359  0.00  0.00    +0.211 C 
ATOM     12  C   LIG    1       26.646 -18.764   5.350  0.00  0.00    -0.030 C 
ATOM     13  C   LIG    1       27.092 -19.224   6.715  0.00  0.00    +0.043 C 
ATOM     14  C   LIG    1       25.601 -19.653   4.652  0.00  0.00    +0.205 C 
ATOM     15  C   LIG    1       24.669 -18.811   3.731  0.00  0.00    +0.088 C 
ATOM     16  C   LIG    1       24.286 -13.470   4.134  0.00  0.00    +0.170 C 
ATOM     17  C   LIG    1       24.945 -12.627   2.965  0.00  0.00    +0.167 C 
ATOM     18  O   LIG    1       23.683 -11.930   2.769  0.00  0.00    -0.368 OA
ATOM     19  C   LIG    1       23.053 -13.219   3.169  0.00  0.00    +0.211 C 
ATOM     20  C   LIG    1       28.024 -15.110   4.918  0.00  0.00    +0.175 C 
ATOM     21  O   LIG    1       29.127 -14.528   4.895  0.00  0.00    -0.294 OA
ATOM     22  C   LIG    1       26.110 -11.839   3.503  0.00  0.00    +0.068 C 
ENDROOT
BRANCH  11  23
ATOM     23  O   LIG    1       29.362 -17.146   5.538  0.00  0.00    -0.368 OA
ATOM     24  C   LIG    1       29.457 -18.509   5.928  0.00  0.00    +0.195 C 
ENDBRANCH  11  23
BRANCH   6  25
ATOM     25  O   LIG    1       24.756 -17.169   1.944  0.00  0.00    -0.384 OA
ATOM     26  H   LIG    1       25.182 -16.371   1.589  0.00  0.00    +0.210 HD
ENDBRANCH   6  25
BRANCH   1  28
ATOM     27  C   LIG    1       28.162 -14.729   2.613  0.00  0.00    +0.194 C 
ATOM     28  O   LIG    1       27.769 -13.357   2.641  0.00  0.00    -0.379 OA
ENDBRANCH   1  28
BRANCH  14  29
ATOM     29  O   LIG    1       24.811 -20.450   5.562  0.00  0.00    -0.455 OA
BRANCH  29  30
ATOM     30  C   LIG    1       23.565 -19.946   5.881  0.00  0.00    +0.339 C 
ATOM     31  O   LIG    1       22.689 -20.580   6.458  0.00  0.00    -0.248 OA
BRANCH  30  32
ATOM     32  C   LIG    1       23.388 -18.502   5.370  0.00  0.00    +0.247 C 
BRANCH  32  33
ATOM     33  O   LIG    1       22.221 -17.900   5.955  0.00  0.00    -0.379 OA
ATOM     34  H   LIG    1       22.384 -17.840   6.914  0.00  0.00    +0.211 HD
ENDBRANCH  32  33
BRANCH  32  35
ATOM     35  C   LIG    1       23.349 -18.358   3.799  0.00  0.00    +0.146 C 
BRANCH  35  36
ATOM     36  C   LIG    1       21.991 -17.713   3.407  0.00  0.00    -0.024 A 
ATOM     37  C   LIG    1       21.151 -17.177   4.405  0.00  0.00    +0.005 A 
ATOM     38  C   LIG    1       19.846 -16.736   4.119  0.00  0.00    +0.000 A 
ATOM     39  C   LIG    1       19.355 -16.781   2.820  0.00  0.00    +0.000 A 
ATOM     40  C   LIG    1       20.167 -17.289   1.812  0.00  0.00    +0.000 A 
ATOM     41  C   LIG    1       21.464 -17.755   2.101  0.00  0.00    +0.005 A 
ENDBRANCH  35  36
BRANCH  35  42
ATOM     42  N   LIG    1       23.642 -19.668   3.180  0.00  0.00    -0.271 N 
ATOM     43  H   LIG    1       24.579 -19.802   2.816  0.00  0.00    +0.153 HD
ATOM     44  C   LIG    1       22.817 -20.530   2.518  0.00  0.00    +0.401 C 
ATOM     45  O   LIG    1       23.292 -21.559   2.052  0.00  0.00    -0.226 OA
BRANCH  44  46
ATOM     46  O   LIG    1       21.516 -20.155   2.487  0.00  0.00    -0.445 OA
BRANCH  46  47
ATOM     47  C   LIG    1       20.666 -20.318   3.660  0.00  0.00    +0.107 C 
ATOM     48  C   LIG    1       19.755 -21.541   3.407  0.00  0.00    +0.055 C 
ATOM     49  C   LIG    1       19.734 -19.109   3.813  0.00  0.00    +0.055 C 
ATOM     50  C   LIG    1       21.495 -20.611   4.914  0.00  0.00    +0.055 C 
ENDBRANCH  46  47
ENDBRANCH  44  46
ENDBRANCH  35  42
ENDBRANCH  32  35
ENDBRANCH  30  32
ENDBRANCH  29  30
ENDBRANCH  14  29
BRANCH   5  51
ATOM     51  O   LIG    1       23.993 -16.502   5.446  0.00  0.00    -0.455 OA
BRANCH  51  52
ATOM     52  C   LIG    1       23.737 -15.433   6.295  0.00  0.00    +0.340 C 
ATOM     53  O   LIG    1       24.602 -14.695   6.762  0.00  0.00    -0.245 OA
BRANCH  52  54
ATOM     54  C   LIG    1       22.293 -15.104   6.505  0.00  0.00    +0.059 A 
ATOM     55  C   LIG    1       21.388 -16.025   7.030  0.00  0.00    +0.015 A 
ATOM     56  C   LIG    1       20.018 -15.730   7.048  0.00  0.00    +0.001 A 
ATOM     57  C   LIG    1       19.539 -14.523   6.533  0.00  0.00    +0.000 A 
ATOM     58  C   LIG    1       20.433 -13.581   6.036  0.00  0.00    +0.001 A 
ATOM     59  C   LIG    1       21.805 -13.862   6.039  0.00  0.00    +0.015 A 
ENDBRANCH  52  54
ENDBRANCH  51  52
ENDBRANCH   5  51
BRANCH  16  60
ATOM     60  O   LIG    1       24.216 -12.636   5.374  0.00  0.00    -0.453 OA
BRANCH  60  61
ATOM     61  C   LIG    1       23.067 -12.043   5.821  0.00  0.00    +0.305 C 
ATOM     62  O   LIG    1       22.839 -11.673   6.937  0.00  0.00    -0.251 OA
ATOM     63  C   LIG    1       22.098 -11.675   4.718  0.00  0.00    +0.136 C 
ENDBRANCH  60  61
ENDBRANCH  16  60
TORSDOF 17
ENDMDL
