MODEL 1
REMARK VINA RESULT:      -8.2      0.000      0.000
REMARK  Name = *****
REMARK                            x       y       z     vdW  Elec       q    Type
REMARK                         _______ _______ _______ _____ _____    ______ ____
ROOT
ATOM      1  C   LIG    1       26.001 -19.898   4.336  0.00  0.00    +0.003 C 
ATOM      2  C   LIG    1       24.648 -19.904   4.278  0.00  0.00    -0.050 C 
ATOM      3  C   LIG    1       23.967 -19.958   2.934  0.00  0.00    +0.044 C 
ENDROOT
BRANCH   1   5
ATOM      4  C   LIG    1       28.162 -19.880   5.527  0.00  0.00    +0.003 C 
ATOM      5  C   LIG    1       26.822 -19.807   5.532  0.00  0.00    +0.001 C 
BRANCH   4   7
ATOM      6  C   LIG    1       29.138 -21.095   7.482  0.00  0.00    +0.044 C 
ATOM      7  C   LIG    1       28.982 -19.798   6.735  0.00  0.00    -0.044 C 
ATOM      8  C   LIG    1       29.516 -18.623   7.122  0.00  0.00    +0.094 C 
BRANCH   8   9
ATOM      9  C   LIG    1       30.390 -18.448   8.311  0.00  0.00    +0.330 C 
ATOM     10  O   LIG    1       30.038 -18.493   9.469  0.00  0.00    -0.246 OA
BRANCH   9  11
ATOM     11  O   LIG    1       31.679 -18.248   7.941  0.00  0.00    -0.477 OA
ATOM     12  H   LIG    1       32.128 -17.493   8.358  0.00  0.00    +0.295 HD
ENDBRANCH   9  11
ENDBRANCH   8   9
ENDBRANCH   4   7
ENDBRANCH   1   5
BRANCH   2  13
ATOM     13  C   LIG    1       23.819 -19.839   5.479  0.00  0.00    +0.003 C 
ATOM     14  C   LIG    1       23.744 -20.602   6.583  0.00  0.00    +0.004 C 
BRANCH  14  15
ATOM     15  C   LIG    1       24.460 -21.810   6.987  0.00  0.00    -0.043 C 
ATOM     16  C   LIG    1       23.954 -23.123   6.318  0.00  0.00    -0.010 C 
ATOM     17  C   LIG    1       22.453 -23.361   6.631  0.00  0.00    +0.016 C 
ATOM     18  C   LIG    1       24.122 -23.066   4.784  0.00  0.00    +0.016 C 
ATOM     19  C   LIG    1       24.694 -24.385   6.846  0.00  0.00    +0.011 C 
ATOM     20  C   LIG    1       26.157 -24.114   7.139  0.00  0.00    +0.005 C 
ATOM     21  C   LIG    1       26.250 -23.061   8.232  0.00  0.00    +0.031 C 
ATOM     22  C   LIG    1       25.422 -21.826   7.944  0.00  0.00    -0.069 C 
ATOM     23  C   LIG    1       25.790 -20.678   8.852  0.00  0.00    +0.039 C 
ENDBRANCH  14  15
ENDBRANCH   2  13
TORSDOF 6
ENDMDL
MODEL 2
REMARK VINA RESULT:      -7.8      3.103      4.346
REMARK  Name = *****
REMARK                            x       y       z     vdW  Elec       q    Type
REMARK                         _______ _______ _______ _____ _____    ______ ____
ROOT
ATOM      1  C   LIG    1       23.099 -19.337   3.792  0.00  0.00    +0.003 C 
ATOM      2  C   LIG    1       22.487 -20.034   4.779  0.00  0.00    -0.050 C 
ATOM      3  C   LIG    1       21.482 -21.098   4.417  0.00  0.00    +0.044 C 
ENDROOT
BRANCH   1   5
ATOM      4  C   LIG    1       25.236 -18.198   3.316  0.00  0.00    +0.003 C 
ATOM      5  C   LIG    1       24.056 -18.256   3.954  0.00  0.00    +0.001 C 
BRANCH   4   7
ATOM      6  C   LIG    1       27.524 -17.530   4.066  0.00  0.00    +0.044 C 
ATOM      7  C   LIG    1       26.198 -17.112   3.489  0.00  0.00    -0.044 C 
ATOM      8  C   LIG    1       25.869 -15.846   3.166  0.00  0.00    +0.094 C 
BRANCH   8   9
ATOM      9  C   LIG    1       26.791 -14.685   3.273  0.00  0.00    +0.330 C 
ATOM     10  O   LIG    1       27.266 -14.242   4.295  0.00  0.00    -0.246 OA
BRANCH   9  11
ATOM     11  O   LIG    1       27.068 -14.172   2.049  0.00  0.00    -0.477 OA
ATOM     12  H   LIG    1       26.678 -14.642   1.293  0.00  0.00    +0.295 HD
ENDBRANCH   9  11
ENDBRANCH   8   9
ENDBRANCH   4   7
ENDBRANCH   1   5
BRANCH   2  13
ATOM     13  C   LIG    1       22.753 -19.777   6.192  0.00  0.00    +0.003 C 
ATOM     14  C   LIG    1       23.501 -20.408   7.113  0.00  0.00    +0.004 C 
BRANCH  14  15
ATOM     15  C   LIG    1       24.322 -21.615   7.047  0.00  0.00    -0.043 C 
ATOM     16  C   LIG    1       25.859 -21.360   7.039  0.00  0.00    -0.010 C 
ATOM     17  C   LIG    1       26.267 -20.469   5.836  0.00  0.00    +0.016 C 
ATOM     18  C   LIG    1       26.311 -20.653   8.336  0.00  0.00    +0.016 C 
ATOM     19  C   LIG    1       26.681 -22.671   6.883  0.00  0.00    +0.011 C 
ATOM     20  C   LIG    1       26.038 -23.842   7.602  0.00  0.00    +0.005 C 
ATOM     21  C   LIG    1       24.672 -24.103   6.986  0.00  0.00    +0.031 C 
ATOM     22  C   LIG    1       23.809 -22.863   6.899  0.00  0.00    -0.069 C 
ATOM     23  C   LIG    1       22.366 -23.200   6.610  0.00  0.00    +0.039 C 
ENDBRANCH  14  15
ENDBRANCH   2  13
TORSDOF 6
ENDMDL
MODEL 3
REMARK VINA RESULT:      -7.4      4.479      7.163
REMARK  Name = *****
REMARK                            x       y       z     vdW  Elec       q    Type
REMARK                         _______ _______ _______ _____ _____    ______ ____
ROOT
ATOM      1  C   LIG    1       25.632 -26.320   5.878  0.00  0.00    +0.003 C 
ATOM      2  C   LIG    1       24.857 -25.238   5.629  0.00  0.00    -0.050 C 
ATOM      3  C   LIG    1       24.814 -24.666   4.234  0.00  0.00    +0.044 C 
ENDROOT
BRANCH   1   5
ATOM      4  C   LIG    1       25.534 -28.263   7.395  0.00  0.00    +0.003 C 
ATOM      5  C   LIG    1       25.828 -26.975   7.161  0.00  0.00    +0.001 C 
BRANCH   4   7
ATOM      6  C   LIG    1       24.734 -30.005   9.001  0.00  0.00    +0.044 C 
ATOM      7  C   LIG    1       25.724 -28.914   8.691  0.00  0.00    -0.044 C 
ATOM      8  C   LIG    1       26.710 -28.517   9.519  0.00  0.00    +0.094 C 
BRANCH   8   9
ATOM      9  C   LIG    1       27.003 -29.141  10.836  0.00  0.00    +0.330 C 
ATOM     10  O   LIG    1       26.421 -28.922  11.875  0.00  0.00    -0.246 OA
BRANCH   9  11
ATOM     11  O   LIG    1       28.018 -30.033  10.735  0.00  0.00    -0.477 OA
ATOM     12  H   LIG    1       28.305 -30.249   9.831  0.00  0.00    +0.295 HD
ENDBRANCH   9  11
ENDBRANCH   8   9
ENDBRANCH   4   7
ENDBRANCH   1   5
BRANCH   2  13
ATOM     13  C   LIG    1       24.070 -24.588   6.674  0.00  0.00    +0.003 C 
ATOM     14  C   LIG    1       23.925 -23.304   7.046  0.00  0.00    +0.004 C 
BRANCH  14  15
ATOM     15  C   LIG    1       24.525 -22.068   6.550  0.00  0.00    -0.043 C 
ATOM     16  C   LIG    1       25.857 -21.661   7.251  0.00  0.00    -0.010 C 
ATOM     17  C   LIG    1       25.646 -21.480   8.778  0.00  0.00    +0.016 C 
ATOM     18  C   LIG    1       26.946 -22.735   7.040  0.00  0.00    +0.016 C 
ATOM     19  C   LIG    1       26.406 -20.298   6.743  0.00  0.00    +0.011 C 
ATOM     20  C   LIG    1       26.152 -20.091   5.262  0.00  0.00    +0.005 C 
ATOM     21  C   LIG    1       24.650 -20.076   5.021  0.00  0.00    +0.031 C 
ATOM     22  C   LIG    1       23.937 -21.267   5.626  0.00  0.00    -0.069 C 
ATOM     23  C   LIG    1       22.531 -21.410   5.094  0.00  0.00    +0.039 C 
ENDBRANCH  14  15
ENDBRANCH   2  13
TORSDOF 6
ENDMDL
MODEL 4
REMARK VINA RESULT:      -7.2      5.433      7.776
REMARK  Name = *****
REMARK                            x       y       z     vdW  Elec       q    Type
REMARK                         _______ _______ _______ _____ _____    ______ ____
ROOT
ATOM      1  C   LIG    1       25.938 -27.169   5.635  0.00  0.00    +0.003 C 
ATOM      2  C   LIG    1       25.273 -28.343   5.753  0.00  0.00    -0.050 C 
ATOM      3  C   LIG    1       25.624 -29.486   4.834  0.00  0.00    +0.044 C 
ENDROOT
BRANCH   1   5
ATOM      4  C   LIG    1       24.963 -24.927   5.965  0.00  0.00    +0.003 C 
ATOM      5  C   LIG    1       25.707 -25.956   6.401  0.00  0.00    +0.001 C 
BRANCH   4   7
ATOM      6  C   LIG    1       23.302 -23.278   6.843  0.00  0.00    +0.044 C 
ATOM      7  C   LIG    1       24.741 -23.705   6.737  0.00  0.00    -0.044 C 
ATOM      8  C   LIG    1       25.780 -23.033   7.271  0.00  0.00    +0.094 C 
BRANCH   8   9
ATOM      9  C   LIG    1       25.651 -21.805   8.098  0.00  0.00    +0.330 C 
ATOM     10  O   LIG    1       25.610 -21.760   9.307  0.00  0.00    -0.246 OA
BRANCH   9  11
ATOM     11  O   LIG    1       25.606 -20.698   7.318  0.00  0.00    -0.477 OA
ATOM     12  H   LIG    1       26.261 -20.008   7.522  0.00  0.00    +0.295 HD
ENDBRANCH   9  11
ENDBRANCH   8   9
ENDBRANCH   4   7
ENDBRANCH   1   5
BRANCH   2  13
ATOM     13  C   LIG    1       24.206 -28.537   6.732  0.00  0.00    +0.003 C 
ATOM     14  C   LIG    1       24.100 -29.304   7.831  0.00  0.00    +0.004 C 
BRANCH  14  15
ATOM     15  C   LIG    1       25.017 -30.258   8.450  0.00  0.00    -0.043 C 
ATOM     16  C   LIG    1       24.532 -31.739   8.428  0.00  0.00    -0.010 C 
ATOM     17  C   LIG    1       23.169 -31.886   9.154  0.00  0.00    +0.016 C 
ATOM     18  C   LIG    1       24.362 -32.246   6.980  0.00  0.00    +0.016 C 
ATOM     19  C   LIG    1       25.505 -32.697   9.173  0.00  0.00    +0.011 C 
ATOM     20  C   LIG    1       26.957 -32.297   8.991  0.00  0.00    +0.005 C 
ATOM     21  C   LIG    1       27.161 -30.913   9.588  0.00  0.00    +0.031 C 
ATOM     22  C   LIG    1       26.157 -29.895   9.091  0.00  0.00    -0.069 C 
ATOM     23  C   LIG    1       26.578 -28.483   9.421  0.00  0.00    +0.039 C 
ENDBRANCH  14  15
ENDBRANCH   2  13
TORSDOF 6
ENDMDL
MODEL 5
REMARK VINA RESULT:      -7.1      5.425      8.187
REMARK  Name = *****
REMARK                            x       y       z     vdW  Elec       q    Type
REMARK                         _______ _______ _______ _____ _____    ______ ____
ROOT
ATOM      1  C   LIG    1       24.836 -26.508   5.692  0.00  0.00    +0.003 C 
ATOM      2  C   LIG    1       24.442 -25.218   5.572  0.00  0.00    -0.050 C 
ATOM      3  C   LIG    1       24.796 -24.452   4.322  0.00  0.00    +0.044 C 
ENDROOT
BRANCH   1   5
ATOM      4  C   LIG    1       25.049 -28.653   6.894  0.00  0.00    +0.003 C 
ATOM      5  C   LIG    1       24.623 -27.381   6.834  0.00  0.00    +0.001 C 
BRANCH   4   7
ATOM      6  C   LIG    1       25.740 -29.285   9.212  0.00  0.00    +0.044 C 
ATOM      7  C   LIG    1       24.824 -29.529   8.042  0.00  0.00    -0.044 C 
ATOM      8  C   LIG    1       23.874 -30.483   8.000  0.00  0.00    +0.094 C 
BRANCH   8   9
ATOM      9  C   LIG    1       23.548 -31.395   9.128  0.00  0.00    +0.330 C 
ATOM     10  O   LIG    1       24.258 -32.274   9.564  0.00  0.00    -0.246 OA
BRANCH   9  11
ATOM     11  O   LIG    1       22.330 -31.107   9.649  0.00  0.00    -0.477 OA
ATOM     12  H   LIG    1       21.682 -30.731   9.029  0.00  0.00    +0.295 HD
ENDBRANCH   9  11
ENDBRANCH   8   9
ENDBRANCH   4   7
ENDBRANCH   1   5
BRANCH   2  13
ATOM     13  C   LIG    1       23.700 -24.531   6.625  0.00  0.00    +0.003 C 
ATOM     14  C   LIG    1       23.636 -23.244   7.010  0.00  0.00    +0.004 C 
BRANCH  14  15
ATOM     15  C   LIG    1       24.311 -22.043   6.525  0.00  0.00    -0.043 C 
ATOM     16  C   LIG    1       25.663 -21.723   7.231  0.00  0.00    -0.010 C 
ATOM     17  C   LIG    1       25.460 -21.542   8.759  0.00  0.00    +0.016 C 
ATOM     18  C   LIG    1       26.685 -22.859   7.014  0.00  0.00    +0.016 C 
ATOM     19  C   LIG    1       26.295 -20.392   6.735  0.00  0.00    +0.011 C 
ATOM     20  C   LIG    1       26.057 -20.159   5.255  0.00  0.00    +0.005 C 
ATOM     21  C   LIG    1       24.560 -20.051   5.012  0.00  0.00    +0.031 C 
ATOM     22  C   LIG    1       23.774 -21.201   5.606  0.00  0.00    -0.069 C 
ATOM     23  C   LIG    1       22.364 -21.254   5.070  0.00  0.00    +0.039 C 
ENDBRANCH  14  15
ENDBRANCH   2  13
TORSDOF 6
ENDMDL
MODEL 6
REMARK VINA RESULT:      -7.1      1.446      2.050
REMARK  Name = *****
REMARK                            x       y       z     vdW  Elec       q    Type
REMARK                         _______ _______ _______ _____ _____    ______ ____
ROOT
ATOM      1  C   LIG    1       27.325 -20.097   4.916  0.00  0.00    +0.003 C 
ATOM      2  C   LIG    1       25.990 -19.890   5.014  0.00  0.00    -0.050 C 
ATOM      3  C   LIG    1       25.188 -19.637   3.762  0.00  0.00    +0.044 C 
ENDROOT
BRANCH   1   5
ATOM      4  C   LIG    1       28.939 -19.328   6.616  0.00  0.00    +0.003 C 
ATOM      5  C   LIG    1       28.256 -20.313   6.010  0.00  0.00    +0.001 C 
BRANCH   4   7
ATOM      6  C   LIG    1       30.371 -18.300   8.389  0.00  0.00    +0.044 C 
ATOM      7  C   LIG    1       29.881 -19.552   7.711  0.00  0.00    -0.044 C 
ATOM      8  C   LIG    1       30.270 -20.801   8.036  0.00  0.00    +0.094 C 
BRANCH   8   9
ATOM      9  C   LIG    1       31.194 -21.129   9.153  0.00  0.00    +0.330 C 
ATOM     10  O   LIG    1       32.281 -20.634   9.351  0.00  0.00    -0.246 OA
BRANCH   9  11
ATOM     11  O   LIG    1       30.652 -22.064   9.972  0.00  0.00    -0.477 OA
ATOM     12  H   LIG    1       29.953 -21.751  10.570  0.00  0.00    +0.295 HD
ENDBRANCH   9  11
ENDBRANCH   8   9
ENDBRANCH   4   7
ENDBRANCH   1   5
BRANCH   2  13
ATOM     13  C   LIG    1       25.298 -19.882   6.300  0.00  0.00    +0.003 C 
ATOM     14  C   LIG    1       24.842 -20.861   7.101  0.00  0.00    +0.004 C 
BRANCH  14  15
ATOM     15  C   LIG    1       24.852 -22.316   6.969  0.00  0.00    -0.043 C 
ATOM     16  C   LIG    1       23.513 -22.935   6.468  0.00  0.00    -0.010 C 
ATOM     17  C   LIG    1       22.344 -22.575   7.423  0.00  0.00    +0.016 C 
ATOM     18  C   LIG    1       23.157 -22.420   5.056  0.00  0.00    +0.016 C 
ATOM     19  C   LIG    1       23.552 -24.489   6.427  0.00  0.00    +0.011 C 
ATOM     20  C   LIG    1       24.914 -25.020   6.021  0.00  0.00    +0.005 C 
ATOM     21  C   LIG    1       25.938 -24.582   7.058  0.00  0.00    +0.031 C 
ATOM     22  C   LIG    1       25.897 -23.096   7.346  0.00  0.00    -0.069 C 
ATOM     23  C   LIG    1       27.120 -22.636   8.102  0.00  0.00    +0.039 C 
ENDBRANCH  14  15
ENDBRANCH   2  13
TORSDOF 6
ENDMDL
MODEL 7
REMARK VINA RESULT:      -7.0      5.014      7.863
REMARK  Name = *****
REMARK                            x       y       z     vdW  Elec       q    Type
REMARK                         _______ _______ _______ _____ _____    ______ ____
ROOT
ATOM      1  C   LIG    1       25.154 -26.878   5.827  0.00  0.00    +0.003 C 
ATOM      2  C   LIG    1       25.366 -25.542   5.746  0.00  0.00    -0.050 C 
ATOM      3  C   LIG    1       25.069 -24.825   4.454  0.00  0.00    +0.044 C 
ENDROOT
BRANCH   1   5
ATOM      4  C   LIG    1       24.698 -28.824   7.273  0.00  0.00    +0.003 C 
ATOM      5  C   LIG    1       25.422 -27.735   6.969  0.00  0.00    +0.001 C 
BRANCH   4   7
ATOM      6  C   LIG    1       23.747 -30.311   9.043  0.00  0.00    +0.044 C 
ATOM      7  C   LIG    1       24.967 -29.678   8.429  0.00  0.00    -0.044 C 
ATOM      8  C   LIG    1       26.224 -29.836   8.887  0.00  0.00    +0.094 C 
BRANCH   8   9
ATOM      9  C   LIG    1       26.598 -30.709  10.030  0.00  0.00    +0.330 C 
ATOM     10  O   LIG    1       26.978 -31.856   9.958  0.00  0.00    -0.246 OA
BRANCH   9  11
ATOM     11  O   LIG    1       26.486 -30.043  11.206  0.00  0.00    -0.477 OA
ATOM     12  H   LIG    1       25.583 -29.795  11.468  0.00  0.00    +0.295 HD
ENDBRANCH   9  11
ENDBRANCH   8   9
ENDBRANCH   4   7
ENDBRANCH   1   5
BRANCH   2  13
ATOM     13  C   LIG    1       25.895 -24.771   6.867  0.00  0.00    +0.003 C 
ATOM     14  C   LIG    1       25.623 -23.543   7.344  0.00  0.00    +0.004 C 
BRANCH  14  15
ATOM     15  C   LIG    1       24.700 -22.503   6.897  0.00  0.00    -0.043 C 
ATOM     16  C   LIG    1       25.292 -21.062   6.893  0.00  0.00    -0.010 C 
ATOM     17  C   LIG    1       25.776 -20.658   8.311  0.00  0.00    +0.016 C 
ATOM     18  C   LIG    1       26.492 -20.957   5.927  0.00  0.00    +0.016 C 
ATOM     19  C   LIG    1       24.243 -19.987   6.490  0.00  0.00    +0.011 C 
ATOM     20  C   LIG    1       23.280 -20.491   5.432  0.00  0.00    +0.005 C 
ATOM     21  C   LIG    1       22.505 -21.670   5.998  0.00  0.00    +0.031 C 
ATOM     22  C   LIG    1       23.395 -22.734   6.603  0.00  0.00    -0.069 C 
ATOM     23  C   LIG    1       22.646 -24.023   6.843  0.00  0.00    +0.039 C 
ENDBRANCH  14  15
ENDBRANCH   2  13
TORSDOF 6
ENDMDL
MODEL 8
REMARK VINA RESULT:      -7.0      1.318      3.718
REMARK  Name = *****
REMARK                            x       y       z     vdW  Elec       q    Type
REMARK                         _______ _______ _______ _____ _____    ______ ____
ROOT
ATOM      1  C   LIG    1       27.847 -22.213   7.900  0.00  0.00    +0.003 C 
ATOM      2  C   LIG    1       26.506 -22.352   7.771  0.00  0.00    -0.050 C 
ATOM      3  C   LIG    1       25.940 -23.681   7.338  0.00  0.00    +0.044 C 
ENDROOT
BRANCH   1   5
ATOM      4  C   LIG    1       29.807 -20.715   7.839  0.00  0.00    +0.003 C 
ATOM      5  C   LIG    1       28.566 -21.004   8.263  0.00  0.00    +0.001 C 
BRANCH   4   7
ATOM      6  C   LIG    1       31.553 -19.039   7.213  0.00  0.00    +0.044 C 
ATOM      7  C   LIG    1       30.529 -19.501   8.215  0.00  0.00    -0.044 C 
ATOM      8  C   LIG    1       30.279 -18.892   9.391  0.00  0.00    +0.094 C 
BRANCH   8   9
ATOM      9  C   LIG    1       30.936 -17.637   9.843  0.00  0.00    +0.330 C 
ATOM     10  O   LIG    1       30.454 -16.526   9.808  0.00  0.00    -0.246 OA
BRANCH   9  11
ATOM     11  O   LIG    1       32.172 -17.888  10.340  0.00  0.00    -0.477 OA
ATOM     12  H   LIG    1       32.525 -18.778  10.169  0.00  0.00    +0.295 HD
ENDBRANCH   9  11
ENDBRANCH   8   9
ENDBRANCH   4   7
ENDBRANCH   1   5
BRANCH   2  13
ATOM     13  C   LIG    1       25.582 -21.248   8.019  0.00  0.00    +0.003 C 
ATOM     14  C   LIG    1       24.894 -20.429   7.204  0.00  0.00    +0.004 C 
BRANCH  14  15
ATOM     15  C   LIG    1       24.830 -20.325   5.748  0.00  0.00    -0.043 C 
ATOM     16  C   LIG    1       23.482 -20.790   5.119  0.00  0.00    -0.010 C 
ATOM     17  C   LIG    1       23.183 -22.269   5.480  0.00  0.00    +0.016 C 
ATOM     18  C   LIG    1       22.307 -19.925   5.623  0.00  0.00    +0.016 C 
ATOM     19  C   LIG    1       23.500 -20.737   3.565  0.00  0.00    +0.011 C 
ATOM     20  C   LIG    1       24.298 -19.560   3.038  0.00  0.00    +0.005 C 
ATOM     21  C   LIG    1       25.743 -19.710   3.488  0.00  0.00    +0.031 C 
ATOM     22  C   LIG    1       25.883 -19.955   4.976  0.00  0.00    -0.069 C 
ATOM     23  C   LIG    1       27.304 -19.760   5.447  0.00  0.00    +0.039 C 
ENDBRANCH  14  15
ENDBRANCH   2  13
TORSDOF 6
ENDMDL
MODEL 9
REMARK VINA RESULT:      -6.7      5.215      7.764
REMARK  Name = *****
REMARK                            x       y       z     vdW  Elec       q    Type
REMARK                         _______ _______ _______ _____ _____    ______ ____
ROOT
ATOM      1  C   LIG    1       26.018 -26.908   5.629  0.00  0.00    +0.003 C 
ATOM      2  C   LIG    1       25.383 -28.105   5.642  0.00  0.00    -0.050 C 
ATOM      3  C   LIG    1       25.809 -29.176   4.670  0.00  0.00    +0.044 C 
ENDROOT
BRANCH   1   5
ATOM      4  C   LIG    1       25.277 -24.580   5.976  0.00  0.00    +0.003 C 
ATOM      5  C   LIG    1       25.717 -25.754   6.458  0.00  0.00    +0.001 C 
BRANCH   4   7
ATOM      6  C   LIG    1       23.525 -23.062   6.910  0.00  0.00    +0.044 C 
ATOM      7  C   LIG    1       24.984 -23.419   6.814  0.00  0.00    -0.044 C 
ATOM      8  C   LIG    1       25.980 -22.739   7.414  0.00  0.00    +0.094 C 
BRANCH   8   9
ATOM      9  C   LIG    1       25.778 -21.571   8.311  0.00  0.00    +0.330 C 
ATOM     10  O   LIG    1       25.599 -21.612   9.508  0.00  0.00    -0.246 OA
BRANCH   9  11
ATOM     11  O   LIG    1       25.842 -20.409   7.616  0.00  0.00    -0.477 OA
ATOM     12  H   LIG    1       25.562 -20.455   6.686  0.00  0.00    +0.295 HD
ENDBRANCH   9  11
ENDBRANCH   8   9
ENDBRANCH   4   7
ENDBRANCH   1   5
BRANCH   2  13
ATOM     13  C   LIG    1       24.280 -28.390   6.555  0.00  0.00    +0.003 C 
ATOM     14  C   LIG    1       24.135 -29.253   7.576  0.00  0.00    +0.004 C 
BRANCH  14  15
ATOM     15  C   LIG    1       25.034 -30.255   8.143  0.00  0.00    -0.043 C 
ATOM     16  C   LIG    1       25.790 -29.802   9.429  0.00  0.00    -0.010 C 
ATOM     17  C   LIG    1       26.644 -28.536   9.151  0.00  0.00    +0.016 C 
ATOM     18  C   LIG    1       24.802 -29.475  10.569  0.00  0.00    +0.016 C 
ATOM     19  C   LIG    1       26.793 -30.875   9.941  0.00  0.00    +0.011 C 
ATOM     20  C   LIG    1       26.278 -32.287   9.736  0.00  0.00    +0.005 C 
ATOM     21  C   LIG    1       26.098 -32.531   8.246  0.00  0.00    +0.031 C 
ATOM     22  C   LIG    1       25.284 -31.455   7.560  0.00  0.00    -0.069 C 
ATOM     23  C   LIG    1       24.835 -31.882   6.183  0.00  0.00    +0.039 C 
ENDBRANCH  14  15
ENDBRANCH   2  13
TORSDOF 6
ENDMDL
