MODEL 1
REMARK VINA RESULT:       4.0      0.000      0.000
REMARK  Name = *****
REMARK                            x       y       z     vdW  Elec       q    Type
REMARK                         _______ _______ _______ _____ _____    ______ ____
ROOT
ATOM      1  C   LIG    1       22.505 -20.493   4.793  0.00  0.00    +0.183 C 
ATOM      2  C   LIG    1       23.077 -19.344   3.917  0.00  0.00    +0.008 C 
ATOM      3  C   LIG    1       23.666 -19.918   2.615  0.00  0.00    +0.015 C 
ATOM      4  C   LIG    1       24.138 -18.757   4.875  0.00  0.00    +0.002 C 
ATOM      5  C   LIG    1       24.693 -17.366   4.525  0.00  0.00    +0.001 C 
ATOM      6  C   LIG    1       23.609 -16.360   4.062  0.00  0.00    +0.023 C 
ATOM      7  C   LIG    1       22.608 -16.979   3.066  0.00  0.00    +0.009 C 
ATOM      8  C   LIG    1       24.210 -15.076   3.498  0.00  0.00    -0.041 A 
ATOM      9  C   LIG    1       25.574 -14.975   3.153  0.00  0.00    -0.041 A 
ATOM     10  C   LIG    1       26.079 -13.766   2.648  0.00  0.00    +0.049 A 
ATOM     11  C   LIG    1       25.234 -12.677   2.469  0.00  0.00    +0.117 A 
ATOM     12  C   LIG    1       23.890 -12.764   2.797  0.00  0.00    +0.045 A 
ATOM     13  C   LIG    1       26.534 -16.114   3.375  0.00  0.00    +0.036 C 
ATOM     14  C   LIG    1       23.381 -13.955   3.314  0.00  0.00    +0.008 A 
ATOM     15  C   LIG    1       25.829 -17.458   3.496  0.00  0.00    +0.009 C 
ATOM     16  C   LIG    1       23.437 -18.772   6.250  0.00  0.00    +0.008 C 
ATOM     17  C   LIG    1       22.004 -18.288   3.579  0.00  0.00    +0.011 C 
ATOM     18  C   LIG    1       22.397 -19.894   6.196  0.00  0.00    +0.045 C 
ENDROOT
BRANCH  11  19
ATOM     19  O   LIG    1       25.698 -11.492   1.977  0.00  0.00    -0.507 OA
ATOM     20  H   LIG    1       25.070 -10.793   2.221  0.00  0.00    +0.292 HD
ENDBRANCH  11  19
BRANCH   1  21
ATOM     21  O   LIG    1       23.481 -21.556   4.808  0.00  0.00    -0.461 OA
BRANCH  21  22
ATOM     22  C   LIG    1       24.393 -21.551   5.814  0.00  0.00    +0.307 C 
ATOM     23  O   LIG    1       24.134 -21.572   7.005  0.00  0.00    -0.251 OA
BRANCH  22  24
ATOM     24  C   LIG    1       25.789 -21.571   5.239  0.00  0.00    +0.120 C 
BRANCH  24  25
ATOM     25  C   LIG    1       26.820 -20.845   6.103  0.00  0.00    +0.011 C 
BRANCH  25  27
ATOM     26  C   LIG    1       28.892 -19.395   6.091  0.00  0.00    +0.004 C 
ATOM     27  C   LIG    1       27.648 -19.822   5.323  0.00  0.00    -0.003 C 
ENDBRANCH  25  27
ENDBRANCH  24  25
ENDBRANCH  22  24
ENDBRANCH  21  22
ENDBRANCH   1  21
TORSDOF 6
ENDMDL
MODEL 2
REMARK VINA RESULT:       4.9      1.402      3.946
REMARK  Name = *****
REMARK                            x       y       z     vdW  Elec       q    Type
REMARK                         _______ _______ _______ _____ _____    ______ ____
ROOT
ATOM      1  C   LIG    1       24.518 -21.326   4.647  0.00  0.00    +0.183 C 
ATOM      2  C   LIG    1       24.912 -19.841   4.877  0.00  0.00    +0.008 C 
ATOM      3  C   LIG    1       24.782 -19.488   6.370  0.00  0.00    +0.015 C 
ATOM      4  C   LIG    1       23.878 -19.129   3.976  0.00  0.00    +0.002 C 
ATOM      5  C   LIG    1       24.152 -17.653   3.640  0.00  0.00    +0.001 C 
ATOM      6  C   LIG    1       25.632 -17.358   3.288  0.00  0.00    +0.023 C 
ATOM      7  C   LIG    1       26.622 -18.047   4.249  0.00  0.00    +0.009 C 
ATOM      8  C   LIG    1       25.921 -15.863   3.194  0.00  0.00    -0.041 A 
ATOM      9  C   LIG    1       25.022 -14.894   3.687  0.00  0.00    -0.041 A 
ATOM     10  C   LIG    1       25.331 -13.529   3.566  0.00  0.00    +0.049 A 
ATOM     11  C   LIG    1       26.528 -13.134   2.980  0.00  0.00    +0.117 A 
ATOM     12  C   LIG    1       27.424 -14.075   2.499  0.00  0.00    +0.045 A 
ATOM     13  C   LIG    1       23.694 -15.276   4.285  0.00  0.00    +0.036 C 
ATOM     14  C   LIG    1       27.121 -15.433   2.600  0.00  0.00    +0.008 A 
ATOM     15  C   LIG    1       23.660 -16.722   4.757  0.00  0.00    +0.009 C 
ATOM     16  C   LIG    1       23.826 -20.011   2.711  0.00  0.00    +0.008 C 
ATOM     17  C   LIG    1       26.348 -19.545   4.398  0.00  0.00    +0.011 C 
ATOM     18  C   LIG    1       24.228 -21.423   3.148  0.00  0.00    +0.045 C 
ENDROOT
BRANCH  11  19
ATOM     19  O   LIG    1       26.854 -11.816   2.853  0.00  0.00    -0.507 OA
ATOM     20  H   LIG    1       26.365 -11.312   3.524  0.00  0.00    +0.292 HD
ENDBRANCH  11  19
BRANCH   1  21
ATOM     21  O   LIG    1       23.298 -21.572   5.379  0.00  0.00    -0.461 OA
BRANCH  21  22
ATOM     22  C   LIG    1       22.300 -20.660   5.252  0.00  0.00    +0.307 C 
ATOM     23  O   LIG    1       22.216 -19.612   5.870  0.00  0.00    -0.251 OA
BRANCH  22  24
ATOM     24  C   LIG    1       21.330 -21.109   4.186  0.00  0.00    +0.120 C 
BRANCH  24  25
ATOM     25  C   LIG    1       20.112 -20.196   4.040  0.00  0.00    +0.011 C 
BRANCH  25  27
ATOM     26  C   LIG    1       19.363 -18.244   2.618  0.00  0.00    +0.004 C 
ATOM     27  C   LIG    1       20.462 -18.804   3.512  0.00  0.00    -0.003 C 
ENDBRANCH  25  27
ENDBRANCH  24  25
ENDBRANCH  22  24
ENDBRANCH  21  22
ENDBRANCH   1  21
TORSDOF 6
ENDMDL
