MODEL 1
REMARK VINA RESULT:      -7.2      0.000      0.000
REMARK  Name = *****
REMARK                            x       y       z     vdW  Elec       q    Type
REMARK                         _______ _______ _______ _____ _____    ______ ____
ROOT
ATOM      1  C   LIG    1       25.020 -20.821   4.702  0.00  0.00    +0.158 C 
ENDROOT
BRANCH   1   2
ATOM      2  C   LIG    1       25.971 -20.558   5.853  0.00  0.00    -0.011 A 
ATOM      3  C   LIG    1       25.552 -20.662   7.194  0.00  0.00    +0.051 A 
ATOM      4  C   LIG    1       26.441 -20.434   8.235  0.00  0.00    +0.121 A 
ATOM      5  C   LIG    1       27.775 -20.128   7.994  0.00  0.00    +0.090 A 
ATOM      6  C   LIG    1       28.208 -20.056   6.672  0.00  0.00    +0.121 A 
ATOM      7  C   LIG    1       27.326 -20.266   5.614  0.00  0.00    +0.051 A 
BRANCH   4   8
ATOM      8  O   LIG    1       25.956 -20.525   9.508  0.00  0.00    -0.507 OA
ATOM      9  H   LIG    1       25.614 -19.657   9.769  0.00  0.00    +0.292 HD
ENDBRANCH   4   8
BRANCH   6  10
ATOM     10  O   LIG    1       29.525 -19.774   6.460  0.00  0.00    -0.507 OA
ATOM     11  H   LIG    1       29.797 -19.096   7.105  0.00  0.00    +0.292 HD
ENDBRANCH   6  10
ENDBRANCH   1   2
BRANCH   1  12
ATOM     12  O   LIG    1       24.205 -19.664   4.469  0.00  0.00    -0.386 OA
ATOM     13  H   LIG    1       24.829 -18.912   4.470  0.00  0.00    +0.210 HD
ENDBRANCH   1  12
BRANCH   1  14
ATOM     14  C   LIG    1       24.080 -22.052   4.839  0.00  0.00    +0.117 C 
BRANCH  14  15
ATOM     15  N   LIG    1       24.814 -23.339   4.848  0.00  0.00    -0.308 NA
ATOM     16  H   LIG    1       24.549 -23.867   4.010  0.00  0.00    +0.122 HD
BRANCH  15  18
ATOM     17  C   LIG    1       23.300 -23.730   6.798  0.00  0.00    +0.027 C 
ATOM     18  C   LIG    1       24.557 -24.188   6.036  0.00  0.00    +0.011 C 
ATOM     19  C   LIG    1       24.311 -25.627   5.534  0.00  0.00    +0.027 C 
ATOM     20  C   LIG    1       25.760 -24.205   6.993  0.00  0.00    +0.027 C 
ENDBRANCH  15  18
ENDBRANCH  14  15
ENDBRANCH   1  14
TORSDOF 7
ENDMDL
MODEL 2
REMARK VINA RESULT:      -7.2      3.751      6.097
REMARK  Name = *****
REMARK                            x       y       z     vdW  Elec       q    Type
REMARK                         _______ _______ _______ _____ _____    ______ ____
ROOT
ATOM      1  C   LIG    1       24.291 -24.374   6.594  0.00  0.00    +0.158 C 
ENDROOT
BRANCH   1   2
ATOM      2  C   LIG    1       24.783 -25.721   6.101  0.00  0.00    -0.011 A 
ATOM      3  C   LIG    1       23.922 -26.831   6.007  0.00  0.00    +0.051 A 
ATOM      4  C   LIG    1       24.386 -28.052   5.537  0.00  0.00    +0.121 A 
ATOM      5  C   LIG    1       25.701 -28.214   5.118  0.00  0.00    +0.090 A 
ATOM      6  C   LIG    1       26.553 -27.114   5.177  0.00  0.00    +0.121 A 
ATOM      7  C   LIG    1       26.109 -25.885   5.660  0.00  0.00    +0.051 A 
BRANCH   4   8
ATOM      8  O   LIG    1       23.500 -29.090   5.501  0.00  0.00    -0.507 OA
ATOM      9  H   LIG    1       22.622 -28.739   5.291  0.00  0.00    +0.292 HD
ENDBRANCH   4   8
BRANCH   6  10
ATOM     10  O   LIG    1       27.833 -27.291   4.742  0.00  0.00    -0.507 OA
ATOM     11  H   LIG    1       28.295 -26.436   4.804  0.00  0.00    +0.292 HD
ENDBRANCH   6  10
ENDBRANCH   1   2
BRANCH   1  12
ATOM     12  O   LIG    1       22.857 -24.342   6.574  0.00  0.00    -0.386 OA
ATOM     13  H   LIG    1       22.631 -23.613   5.964  0.00  0.00    +0.210 HD
ENDBRANCH   1  12
BRANCH   1  14
ATOM     14  C   LIG    1       24.811 -23.120   5.835  0.00  0.00    +0.117 C 
BRANCH  14  15
ATOM     15  N   LIG    1       23.719 -22.309   5.249  0.00  0.00    -0.308 NA
ATOM     16  H   LIG    1       23.798 -22.353   4.227  0.00  0.00    +0.122 HD
BRANCH  15  18
ATOM     17  C   LIG    1       23.659 -20.730   7.186  0.00  0.00    +0.027 C 
ATOM     18  C   LIG    1       23.723 -20.883   5.656  0.00  0.00    +0.011 C 
ATOM     19  C   LIG    1       25.052 -20.265   5.171  0.00  0.00    +0.027 C 
ATOM     20  C   LIG    1       22.563 -20.107   5.013  0.00  0.00    +0.027 C 
ENDBRANCH  15  18
ENDBRANCH  14  15
ENDBRANCH   1  14
TORSDOF 7
ENDMDL
MODEL 3
REMARK VINA RESULT:      -7.2      0.059      2.065
REMARK  Name = *****
REMARK                            x       y       z     vdW  Elec       q    Type
REMARK                         _______ _______ _______ _____ _____    ______ ____
ROOT
ATOM      1  C   LIG    1       24.969 -20.820   4.702  0.00  0.00    +0.158 C 
ENDROOT
BRANCH   1   2
ATOM      2  C   LIG    1       25.937 -20.606   5.849  0.00  0.00    -0.011 A 
ATOM      3  C   LIG    1       27.286 -20.273   5.623  0.00  0.00    +0.051 A 
ATOM      4  C   LIG    1       28.154 -20.064   6.686  0.00  0.00    +0.121 A 
ATOM      5  C   LIG    1       27.718 -20.145   8.003  0.00  0.00    +0.090 A 
ATOM      6  C   LIG    1       26.378 -20.442   8.237  0.00  0.00    +0.121 A 
ATOM      7  C   LIG    1       25.496 -20.670   7.183  0.00  0.00    +0.051 A 
BRANCH   4   8
ATOM      8  O   LIG    1       29.454 -19.772   6.389  0.00  0.00    -0.507 OA
ATOM      9  H   LIG    1       30.002 -20.537   6.621  0.00  0.00    +0.292 HD
ENDBRANCH   4   8
BRANCH   6  10
ATOM     10  O   LIG    1       25.968 -20.497   9.537  0.00  0.00    -0.507 OA
ATOM     11  H   LIG    1       25.385 -19.734   9.703  0.00  0.00    +0.292 HD
ENDBRANCH   6  10
ENDBRANCH   1   2
BRANCH   1  12
ATOM     12  O   LIG    1       24.122 -19.671   4.557  0.00  0.00    -0.386 OA
ATOM     13  H   LIG    1       23.858 -19.671   3.616  0.00  0.00    +0.210 HD
ENDBRANCH   1  12
BRANCH   1  14
ATOM     14  C   LIG    1       24.062 -22.080   4.778  0.00  0.00    +0.117 C 
BRANCH  14  15
ATOM     15  N   LIG    1       24.834 -23.343   4.844  0.00  0.00    -0.308 NA
ATOM     16  H   LIG    1       24.617 -23.896   4.009  0.00  0.00    +0.122 HD
BRANCH  15  18
ATOM     17  C   LIG    1       23.301 -23.693   6.787  0.00  0.00    +0.027 C 
ATOM     18  C   LIG    1       24.559 -24.173   6.040  0.00  0.00    +0.011 C 
ATOM     19  C   LIG    1       24.303 -25.616   5.556  0.00  0.00    +0.027 C 
ATOM     20  C   LIG    1       25.754 -24.190   7.007  0.00  0.00    +0.027 C 
ENDBRANCH  15  18
ENDBRANCH  14  15
ENDBRANCH   1  14
TORSDOF 7
ENDMDL
MODEL 4
REMARK VINA RESULT:      -7.2      3.768      6.398
REMARK  Name = *****
REMARK                            x       y       z     vdW  Elec       q    Type
REMARK                         _______ _______ _______ _____ _____    ______ ____
ROOT
ATOM      1  C   LIG    1       24.309 -24.369   6.538  0.00  0.00    +0.158 C 
ENDROOT
BRANCH   1   2
ATOM      2  C   LIG    1       24.779 -25.715   6.024  0.00  0.00    -0.011 A 
ATOM      3  C   LIG    1       26.109 -25.922   5.610  0.00  0.00    +0.051 A 
ATOM      4  C   LIG    1       26.526 -27.167   5.157  0.00  0.00    +0.121 A 
ATOM      5  C   LIG    1       25.660 -28.253   5.126  0.00  0.00    +0.090 A 
ATOM      6  C   LIG    1       24.352 -28.067   5.565  0.00  0.00    +0.121 A 
ATOM      7  C   LIG    1       23.911 -26.822   6.007  0.00  0.00    +0.051 A 
BRANCH   4   8
ATOM      8  O   LIG    1       27.823 -27.285   4.745  0.00  0.00    -0.507 OA
ATOM      9  H   LIG    1       28.355 -26.621   5.209  0.00  0.00    +0.292 HD
ENDBRANCH   4   8
BRANCH   6  10
ATOM     10  O   LIG    1       23.526 -29.152   5.544  0.00  0.00    -0.507 OA
ATOM     11  H   LIG    1       22.665 -28.884   5.912  0.00  0.00    +0.292 HD
ENDBRANCH   6  10
ENDBRANCH   1   2
BRANCH   1  12
ATOM     12  O   LIG    1       22.876 -24.342   6.596  0.00  0.00    -0.386 OA
ATOM     13  H   LIG    1       22.614 -23.616   5.997  0.00  0.00    +0.210 HD
ENDBRANCH   1  12
BRANCH   1  14
ATOM     14  C   LIG    1       24.782 -23.115   5.748  0.00  0.00    +0.117 C 
BRANCH  14  15
ATOM     15  N   LIG    1       23.658 -22.271   5.281  0.00  0.00    -0.308 NA
ATOM     16  H   LIG    1       23.646 -22.290   4.256  0.00  0.00    +0.122 HD
BRANCH  15  18
ATOM     17  C   LIG    1       23.636 -20.737   7.254  0.00  0.00    +0.027 C 
ATOM     18  C   LIG    1       23.723 -20.857   5.722  0.00  0.00    +0.011 C 
ATOM     19  C   LIG    1       25.089 -20.294   5.277  0.00  0.00    +0.027 C 
ATOM     20  C   LIG    1       22.614 -20.011   5.076  0.00  0.00    +0.027 C 
ENDBRANCH  15  18
ENDBRANCH  14  15
ENDBRANCH   1  14
TORSDOF 7
ENDMDL
MODEL 5
REMARK VINA RESULT:      -7.1      2.499      3.745
REMARK  Name = *****
REMARK                            x       y       z     vdW  Elec       q    Type
REMARK                         _______ _______ _______ _____ _____    ______ ____
ROOT
ATOM      1  C   LIG    1       28.272 -20.305   6.052  0.00  0.00    +0.158 C 
ENDROOT
BRANCH   1   2
ATOM      2  C   LIG    1       29.397 -20.139   7.056  0.00  0.00    -0.011 A 
ATOM      3  C   LIG    1       29.702 -21.143   7.994  0.00  0.00    +0.051 A 
ATOM      4  C   LIG    1       30.746 -20.980   8.895  0.00  0.00    +0.121 A 
ATOM      5  C   LIG    1       31.541 -19.841   8.882  0.00  0.00    +0.090 A 
ATOM      6  C   LIG    1       31.269 -18.856   7.936  0.00  0.00    +0.121 A 
ATOM      7  C   LIG    1       30.216 -18.995   7.036  0.00  0.00    +0.051 A 
BRANCH   4   8
ATOM      8  O   LIG    1       30.964 -21.985   9.794  0.00  0.00    -0.507 OA
ATOM      9  H   LIG    1       30.513 -21.760  10.621  0.00  0.00    +0.292 HD
ENDBRANCH   4   8
BRANCH   6  10
ATOM     10  O   LIG    1       32.075 -17.756   7.930  0.00  0.00    -0.507 OA
ATOM     11  H   LIG    1       31.510 -16.967   7.850  0.00  0.00    +0.292 HD
ENDBRANCH   6  10
ENDBRANCH   1   2
BRANCH   1  12
ATOM     12  O   LIG    1       28.298 -19.227   5.108  0.00  0.00    -0.386 OA
ATOM     13  H   LIG    1       28.327 -18.416   5.653  0.00  0.00    +0.210 HD
ENDBRANCH   1  12
BRANCH   1  14
ATOM     14  C   LIG    1       26.831 -20.407   6.628  0.00  0.00    +0.117 C 
BRANCH  14  15
ATOM     15  N   LIG    1       26.083 -21.574   6.105  0.00  0.00    -0.308 NA
ATOM     16  H   LIG    1       25.363 -21.231   5.461  0.00  0.00    +0.122 HD
BRANCH  15  18
ATOM     17  C   LIG    1       25.869 -23.873   7.061  0.00  0.00    +0.027 C 
ATOM     18  C   LIG    1       25.426 -22.401   7.144  0.00  0.00    +0.011 C 
ATOM     19  C   LIG    1       25.859 -21.851   8.519  0.00  0.00    +0.027 C 
ATOM     20  C   LIG    1       23.894 -22.320   7.049  0.00  0.00    +0.027 C 
ENDBRANCH  15  18
ENDBRANCH  14  15
ENDBRANCH   1  14
TORSDOF 7
ENDMDL
MODEL 6
REMARK VINA RESULT:      -7.1      2.503      4.065
REMARK  Name = *****
REMARK                            x       y       z     vdW  Elec       q    Type
REMARK                         _______ _______ _______ _____ _____    ______ ____
ROOT
ATOM      1  C   LIG    1       28.293 -20.293   6.028  0.00  0.00    +0.158 C 
ENDROOT
BRANCH   1   2
ATOM      2  C   LIG    1       29.440 -20.170   7.011  0.00  0.00    -0.011 A 
ATOM      3  C   LIG    1       30.260 -19.026   7.047  0.00  0.00    +0.051 A 
ATOM      4  C   LIG    1       31.296 -18.923   7.965  0.00  0.00    +0.121 A 
ATOM      5  C   LIG    1       31.541 -19.926   8.896  0.00  0.00    +0.090 A 
ATOM      6  C   LIG    1       30.715 -21.048   8.890  0.00  0.00    +0.121 A 
ATOM      7  C   LIG    1       29.681 -21.175   7.966  0.00  0.00    +0.051 A 
BRANCH   4   8
ATOM      8  O   LIG    1       32.067 -17.797   7.922  0.00  0.00    -0.507 OA
ATOM      9  H   LIG    1       31.548 -17.056   8.269  0.00  0.00    +0.292 HD
ENDBRANCH   4   8
BRANCH   6  10
ATOM     10  O   LIG    1       30.961 -22.009   9.825  0.00  0.00    -0.507 OA
ATOM     11  H   LIG    1       30.277 -22.698   9.739  0.00  0.00    +0.292 HD
ENDBRANCH   6  10
ENDBRANCH   1   2
BRANCH   1  12
ATOM     12  O   LIG    1       28.317 -19.192   5.109  0.00  0.00    -0.386 OA
ATOM     13  H   LIG    1       28.518 -19.594   4.241  0.00  0.00    +0.210 HD
ENDBRANCH   1  12
BRANCH   1  14
ATOM     14  C   LIG    1       26.862 -20.384   6.632  0.00  0.00    +0.117 C 
BRANCH  14  15
ATOM     15  N   LIG    1       26.083 -21.525   6.098  0.00  0.00    -0.308 NA
ATOM     16  H   LIG    1       25.345 -21.154   5.490  0.00  0.00    +0.122 HD
BRANCH  15  18
ATOM     17  C   LIG    1       25.923 -23.841   7.025  0.00  0.00    +0.027 C 
ATOM     18  C   LIG    1       25.452 -22.379   7.132  0.00  0.00    +0.011 C 
ATOM     19  C   LIG    1       25.888 -21.839   8.510  0.00  0.00    +0.027 C 
ATOM     20  C   LIG    1       23.918 -22.328   7.051  0.00  0.00    +0.027 C 
ENDBRANCH  15  18
ENDBRANCH  14  15
ENDBRANCH   1  14
TORSDOF 7
ENDMDL
MODEL 7
REMARK VINA RESULT:      -7.1      2.822      5.854
REMARK  Name = *****
REMARK                            x       y       z     vdW  Elec       q    Type
REMARK                         _______ _______ _______ _____ _____    ______ ____
ROOT
ATOM      1  C   LIG    1       26.279 -21.849   8.349  0.00  0.00    +0.158 C 
ENDROOT
BRANCH   1   2
ATOM      2  C   LIG    1       25.526 -22.871   7.520  0.00  0.00    -0.011 A 
ATOM      3  C   LIG    1       26.190 -23.933   6.878  0.00  0.00    +0.051 A 
ATOM      4  C   LIG    1       25.481 -24.869   6.137  0.00  0.00    +0.121 A 
ATOM      5  C   LIG    1       24.097 -24.809   6.029  0.00  0.00    +0.090 A 
ATOM      6  C   LIG    1       23.427 -23.781   6.688  0.00  0.00    +0.121 A 
ATOM      7  C   LIG    1       24.123 -22.824   7.423  0.00  0.00    +0.051 A 
BRANCH   4   8
ATOM      8  O   LIG    1       26.196 -25.854   5.519  0.00  0.00    -0.507 OA
ATOM      9  H   LIG    1       25.926 -25.893   4.589  0.00  0.00    +0.292 HD
ENDBRANCH   4   8
BRANCH   6  10
ATOM     10  O   LIG    1       22.068 -23.755   6.584  0.00  0.00    -0.507 OA
ATOM     11  H   LIG    1       21.705 -24.429   7.186  0.00  0.00    +0.292 HD
ENDBRANCH   6  10
ENDBRANCH   1   2
BRANCH   1  12
ATOM     12  O   LIG    1       25.472 -21.428   9.457  0.00  0.00    -0.386 OA
ATOM     13  H   LIG    1       25.968 -21.709  10.251  0.00  0.00    +0.210 HD
ENDBRANCH   1  12
BRANCH   1  14
ATOM     14  C   LIG    1       26.778 -20.577   7.606  0.00  0.00    +0.117 C 
BRANCH  14  15
ATOM     15  N   LIG    1       27.891 -19.899   8.309  0.00  0.00    -0.308 NA
ATOM     16  H   LIG    1       27.643 -18.911   8.428  0.00  0.00    +0.122 HD
BRANCH  15  18
ATOM     17  C   LIG    1       30.050 -21.146   8.123  0.00  0.00    +0.027 C 
ATOM     18  C   LIG    1       29.197 -19.971   7.611  0.00  0.00    +0.011 C 
ATOM     19  C   LIG    1       28.911 -20.208   6.113  0.00  0.00    +0.027 C 
ATOM     20  C   LIG    1       29.989 -18.661   7.754  0.00  0.00    +0.027 C 
ENDBRANCH  15  18
ENDBRANCH  14  15
ENDBRANCH   1  14
TORSDOF 7
ENDMDL
MODEL 8
REMARK VINA RESULT:      -7.0      2.825      5.615
REMARK  Name = *****
REMARK                            x       y       z     vdW  Elec       q    Type
REMARK                         _______ _______ _______ _____ _____    ______ ____
ROOT
ATOM      1  C   LIG    1       26.268 -21.904   8.328  0.00  0.00    +0.158 C 
ENDROOT
BRANCH   1   2
ATOM      2  C   LIG    1       25.506 -22.945   7.532  0.00  0.00    -0.011 A 
ATOM      3  C   LIG    1       24.104 -22.893   7.402  0.00  0.00    +0.051 A 
ATOM      4  C   LIG    1       23.425 -23.845   6.655  0.00  0.00    +0.121 A 
ATOM      5  C   LIG    1       24.101 -24.859   5.988  0.00  0.00    +0.090 A 
ATOM      6  C   LIG    1       25.490 -24.900   6.082  0.00  0.00    +0.121 A 
ATOM      7  C   LIG    1       26.187 -23.963   6.840  0.00  0.00    +0.051 A 
BRANCH   4   8
ATOM      8  O   LIG    1       22.064 -23.747   6.598  0.00  0.00    -0.507 OA
ATOM      9  H   LIG    1       21.692 -24.641   6.565  0.00  0.00    +0.292 HD
ENDBRANCH   4   8
BRANCH   6  10
ATOM     10  O   LIG    1       26.133 -25.892   5.403  0.00  0.00    -0.507 OA
ATOM     11  H   LIG    1       26.411 -25.536   4.539  0.00  0.00    +0.292 HD
ENDBRANCH   6  10
ENDBRANCH   1   2
BRANCH   1  12
ATOM     12  O   LIG    1       25.449 -21.413   9.399  0.00  0.00    -0.386 OA
ATOM     13  H   LIG    1       25.961 -20.678   9.790  0.00  0.00    +0.210 HD
ENDBRANCH   1  12
BRANCH   1  14
ATOM     14  C   LIG    1       26.811 -20.679   7.538  0.00  0.00    +0.117 C 
BRANCH  14  15
ATOM     15  N   LIG    1       27.829 -19.913   8.293  0.00  0.00    -0.308 NA
ATOM     16  H   LIG    1       27.510 -18.941   8.368  0.00  0.00    +0.122 HD
BRANCH  15  18
ATOM     17  C   LIG    1       29.982 -21.166   8.086  0.00  0.00    +0.027 C 
ATOM     18  C   LIG    1       29.180 -19.915   7.683  0.00  0.00    +0.011 C 
ATOM     19  C   LIG    1       28.999 -19.940   6.151  0.00  0.00    +0.027 C 
ATOM     20  C   LIG    1       29.974 -18.653   8.059  0.00  0.00    +0.027 C 
ENDBRANCH  15  18
ENDBRANCH  14  15
ENDBRANCH   1  14
TORSDOF 7
ENDMDL
MODEL 9
REMARK VINA RESULT:      -6.9      2.061      3.591
REMARK  Name = *****
REMARK                            x       y       z     vdW  Elec       q    Type
REMARK                         _______ _______ _______ _____ _____    ______ ____
ROOT
ATOM      1  C   LIG    1       26.944 -21.007   7.635  0.00  0.00    +0.158 C 
ENDROOT
BRANCH   1   2
ATOM      2  C   LIG    1       28.334 -20.445   7.406  0.00  0.00    -0.011 A 
ATOM      3  C   LIG    1       28.586 -19.490   6.403  0.00  0.00    +0.051 A 
ATOM      4  C   LIG    1       29.862 -18.974   6.219  0.00  0.00    +0.121 A 
ATOM      5  C   LIG    1       30.922 -19.356   7.033  0.00  0.00    +0.090 A 
ATOM      6  C   LIG    1       30.676 -20.276   8.049  0.00  0.00    +0.121 A 
ATOM      7  C   LIG    1       29.406 -20.816   8.239  0.00  0.00    +0.051 A 
BRANCH   4   8
ATOM      8  O   LIG    1       30.037 -18.073   5.208  0.00  0.00    -0.507 OA
ATOM      9  H   LIG    1       30.643 -18.456   4.556  0.00  0.00    +0.292 HD
ENDBRANCH   4   8
BRANCH   6  10
ATOM     10  O   LIG    1       31.726 -20.621   8.847  0.00  0.00    -0.507 OA
ATOM     11  H   LIG    1       31.374 -20.860   9.724  0.00  0.00    +0.292 HD
ENDBRANCH   6  10
ENDBRANCH   1   2
BRANCH   1  12
ATOM     12  O   LIG    1       26.641 -21.001   9.037  0.00  0.00    -0.386 OA
ATOM     13  H   LIG    1       25.874 -20.401   9.126  0.00  0.00    +0.210 HD
ENDBRANCH   1  12
BRANCH   1  14
ATOM     14  C   LIG    1       26.670 -22.437   7.089  0.00  0.00    +0.117 C 
BRANCH  14  15
ATOM     15  N   LIG    1       25.403 -23.013   7.597  0.00  0.00    -0.308 NA
ATOM     16  H   LIG    1       25.536 -24.023   7.719  0.00  0.00    +0.122 HD
BRANCH  15  18
ATOM     17  C   LIG    1       24.659 -22.472   5.272  0.00  0.00    +0.027 C 
ATOM     18  C   LIG    1       24.231 -22.800   6.714  0.00  0.00    +0.011 C 
ATOM     19  C   LIG    1       23.427 -24.116   6.684  0.00  0.00    +0.027 C 
ATOM     20  C   LIG    1       23.318 -21.683   7.245  0.00  0.00    +0.027 C 
ENDBRANCH  15  18
ENDBRANCH  14  15
ENDBRANCH   1  14
TORSDOF 7
ENDMDL
