MODEL 1
REMARK VINA RESULT:      -8.5      0.000      0.000
REMARK  Name = *****
REMARK                            x       y       z     vdW  Elec       q    Type
REMARK                         _______ _______ _______ _____ _____    ______ ____
ROOT
ATOM      1  C   LIG    1       24.868 -23.995   5.923  0.00  0.00    +0.144 A 
ATOM      2  C   LIG    1       25.921 -24.106   6.845  0.00  0.00    +0.077 A 
ATOM      3  C   LIG    1       26.292 -25.389   7.277  0.00  0.00    +0.038 A 
ATOM      4  C   LIG    1       25.570 -26.570   6.872  0.00  0.00    +0.025 A 
ATOM      5  C   LIG    1       24.523 -26.399   5.946  0.00  0.00    +0.076 A 
ATOM      6  N   LIG    1       23.777 -27.385   5.435  0.00  0.00    -0.254 NA
ATOM      7  C   LIG    1       24.036 -28.641   5.819  0.00  0.00    +0.132 A 
ATOM      8  C   LIG    1       25.016 -28.953   6.739  0.00  0.00    +0.091 A 
ATOM      9  C   LIG    1       25.783 -27.920   7.308  0.00  0.00    +0.060 A 
ATOM     10  C   LIG    1       24.186 -25.142   5.513  0.00  0.00    +0.075 A 
ENDROOT
BRANCH   2  11
ATOM     11  N   LIG    1       26.535 -22.898   7.275  0.00  0.00    -0.279 N 
ATOM     12  H   LIG    1       27.210 -22.527   6.616  0.00  0.00    +0.155 HD
ATOM     13  C   LIG    1       26.134 -22.063   8.300  0.00  0.00    +0.241 C 
ATOM     14  O   LIG    1       25.195 -22.241   9.063  0.00  0.00    -0.271 OA
BRANCH  13  15
ATOM     15  C   LIG    1       26.952 -20.806   8.345  0.00  0.00    +0.064 C 
ATOM     16  C   LIG    1       28.076 -20.699   7.617  0.00  0.00    -0.007 C 
BRANCH  16  17
ATOM     17  C   LIG    1       29.038 -19.536   7.635  0.00  0.00    +0.111 C 
BRANCH  17  18
ATOM     18  N   LIG    1       30.050 -19.671   8.701  0.00  0.00    -0.305 NA
ATOM     19  C   LIG    1       30.981 -18.538   8.693  0.00  0.00    +0.105 C 
ATOM     20  C   LIG    1       30.809 -20.919   8.571  0.00  0.00    +0.105 C 
ENDBRANCH  17  18
ENDBRANCH  16  17
ENDBRANCH  13  15
ENDBRANCH   2  11
BRANCH   8  21
ATOM     21  C   LIG    1       25.197 -30.334   7.083  0.00  0.00    +0.103 C 
ATOM     22  N   LIG    1       25.380 -31.436   7.349  0.00  0.00    -0.191 NA
ENDBRANCH   8  21
BRANCH   9  23
ATOM     23  N   LIG    1       26.648 -28.255   8.385  0.00  0.00    -0.313 N 
ATOM     24  H   LIG    1       27.517 -28.699   8.097  0.00  0.00    +0.152 HD
BRANCH  23  25
ATOM     25  C   LIG    1       26.346 -28.538   9.737  0.00  0.00    +0.033 A 
ATOM     26  C   LIG    1       25.284 -29.354  10.141  0.00  0.00    +0.047 A 
ATOM     27  C   LIG    1       24.793 -29.286  11.448  0.00  0.00    +0.084 A 
ATOM     28 CL   LIG    1       23.365 -30.173  11.843  0.00  0.00    -0.080 Cl
ATOM     29  C   LIG    1       25.421 -28.463  12.382  0.00  0.00    +0.139 A 
ATOM     30  C   LIG    1       26.600 -27.803  12.045  0.00  0.00    +0.049 A 
ATOM     31  C   LIG    1       27.053 -27.834  10.725  0.00  0.00    +0.027 A 
BRANCH  29  32
ATOM     32  O   LIG    1       24.774 -28.065  13.522  0.00  0.00    -0.484 OA
BRANCH  32  33
ATOM     33  C   LIG    1       24.315 -26.717  13.476  0.00  0.00    +0.284 C 
BRANCH  33  34
ATOM     34  C   LIG    1       22.855 -26.717  13.886  0.00  0.00    +0.078 A 
ATOM     35  N   LIG    1       22.556 -26.313  15.149  0.00  0.00    -0.257 NA
ATOM     36  C   LIG    1       21.250 -26.280  15.500  0.00  0.00    +0.111 A 
ATOM     37  C   LIG    1       20.214 -26.646  14.657  0.00  0.00    +0.020 A 
ATOM     38  C   LIG    1       20.532 -27.054  13.368  0.00  0.00    +0.003 A 
ATOM     39  C   LIG    1       21.867 -27.081  12.970  0.00  0.00    +0.027 A 
ENDBRANCH  33  34
ENDBRANCH  32  33
ENDBRANCH  29  32
ENDBRANCH  23  25
ENDBRANCH   9  23
BRANCH   1  40
ATOM     40  O   LIG    1       24.493 -22.734   5.505  0.00  0.00    -0.490 OA
BRANCH  40  42
ATOM     41  C   LIG    1       23.304 -20.782   6.268  0.00  0.00    +0.048 C 
ATOM     42  C   LIG    1       23.246 -22.281   6.049  0.00  0.00    +0.226 C 
ENDBRANCH  40  42
ENDBRANCH   1  40
TORSDOF 12
ENDMDL
MODEL 2
REMARK VINA RESULT:      -7.5      1.725      2.583
REMARK  Name = *****
REMARK                            x       y       z     vdW  Elec       q    Type
REMARK                         _______ _______ _______ _____ _____    ______ ____
ROOT
ATOM      1  C   LIG    1       24.882 -23.920   5.916  0.00  0.00    +0.144 A 
ATOM      2  C   LIG    1       25.953 -24.043   6.816  0.00  0.00    +0.077 A 
ATOM      3  C   LIG    1       26.321 -25.331   7.238  0.00  0.00    +0.038 A 
ATOM      4  C   LIG    1       25.579 -26.503   6.846  0.00  0.00    +0.025 A 
ATOM      5  C   LIG    1       24.515 -26.321   5.943  0.00  0.00    +0.076 A 
ATOM      6  N   LIG    1       23.749 -27.299   5.445  0.00  0.00    -0.254 NA
ATOM      7  C   LIG    1       24.004 -28.558   5.821  0.00  0.00    +0.132 A 
ATOM      8  C   LIG    1       25.000 -28.881   6.720  0.00  0.00    +0.091 A 
ATOM      9  C   LIG    1       25.789 -27.857   7.275  0.00  0.00    +0.060 A 
ATOM     10  C   LIG    1       24.181 -25.059   5.519  0.00  0.00    +0.075 A 
ENDROOT
BRANCH   2  11
ATOM     11  N   LIG    1       26.587 -22.842   7.237  0.00  0.00    -0.279 N 
ATOM     12  H   LIG    1       27.293 -22.508   6.591  0.00  0.00    +0.155 HD
ATOM     13  C   LIG    1       26.177 -21.970   8.227  0.00  0.00    +0.241 C 
ATOM     14  O   LIG    1       25.210 -22.102   8.962  0.00  0.00    -0.271 OA
BRANCH  13  15
ATOM     15  C   LIG    1       27.030 -20.735   8.267  0.00  0.00    +0.064 C 
ATOM     16  C   LIG    1       28.064 -20.594   7.421  0.00  0.00    -0.007 C 
BRANCH  16  17
ATOM     17  C   LIG    1       29.053 -19.454   7.411  0.00  0.00    +0.111 C 
BRANCH  17  18
ATOM     18  N   LIG    1       29.861 -19.411   8.645  0.00  0.00    -0.305 NA
ATOM     19  C   LIG    1       30.208 -18.032   9.002  0.00  0.00    +0.105 C 
ATOM     20  C   LIG    1       31.090 -20.200   8.514  0.00  0.00    +0.105 C 
ENDBRANCH  17  18
ENDBRANCH  16  17
ENDBRANCH  13  15
ENDBRANCH   2  11
BRANCH   8  21
ATOM     21  C   LIG    1       25.175 -30.264   7.057  0.00  0.00    +0.103 C 
ATOM     22  N   LIG    1       25.338 -31.376   7.295  0.00  0.00    -0.191 NA
ENDBRANCH   8  21
BRANCH   9  23
ATOM     23  N   LIG    1       26.672 -28.202   8.333  0.00  0.00    -0.313 N 
ATOM     24  H   LIG    1       27.616 -28.429   8.028  0.00  0.00    +0.152 HD
BRANCH  23  25
ATOM     25  C   LIG    1       26.393 -28.752   9.605  0.00  0.00    +0.033 A 
ATOM     26  C   LIG    1       25.100 -29.016  10.070  0.00  0.00    +0.047 A 
ATOM     27  C   LIG    1       24.856 -29.179  11.437  0.00  0.00    +0.084 A 
ATOM     28 CL   LIG    1       23.220 -29.315  11.975  0.00  0.00    -0.080 Cl
ATOM     29  C   LIG    1       25.920 -29.162  12.338  0.00  0.00    +0.139 A 
ATOM     30  C   LIG    1       27.229 -29.103  11.865  0.00  0.00    +0.049 A 
ATOM     31  C   LIG    1       27.461 -28.889  10.506  0.00  0.00    +0.027 A 
BRANCH  29  32
ATOM     32  O   LIG    1       25.715 -28.925  13.671  0.00  0.00    -0.484 OA
BRANCH  32  33
ATOM     33  C   LIG    1       25.283 -27.598  13.955  0.00  0.00    +0.284 C 
BRANCH  33  34
ATOM     34  C   LIG    1       26.504 -26.794  14.356  0.00  0.00    +0.078 A 
ATOM     35  N   LIG    1       26.556 -25.492  13.969  0.00  0.00    -0.257 NA
ATOM     36  C   LIG    1       27.631 -24.769  14.358  0.00  0.00    +0.111 A 
ATOM     37  C   LIG    1       28.677 -25.280  15.108  0.00  0.00    +0.020 A 
ATOM     38  C   LIG    1       28.611 -26.611  15.499  0.00  0.00    +0.003 A 
ATOM     39  C   LIG    1       27.507 -27.378  15.130  0.00  0.00    +0.027 A 
ENDBRANCH  33  34
ENDBRANCH  32  33
ENDBRANCH  29  32
ENDBRANCH  23  25
ENDBRANCH   9  23
BRANCH   1  40
ATOM     40  O   LIG    1       24.511 -22.655   5.509  0.00  0.00    -0.490 OA
BRANCH  40  42
ATOM     41  C   LIG    1       23.263 -20.753   6.303  0.00  0.00    +0.048 C 
ATOM     42  C   LIG    1       23.226 -22.235   5.991  0.00  0.00    +0.226 C 
ENDBRANCH  40  42
ENDBRANCH   1  40
TORSDOF 12
ENDMDL
MODEL 3
REMARK VINA RESULT:      -7.1      3.035      9.147
REMARK  Name = *****
REMARK                            x       y       z     vdW  Elec       q    Type
REMARK                         _______ _______ _______ _____ _____    ______ ____
ROOT
ATOM      1  C   LIG    1       24.988 -30.505  11.929  0.00  0.00    +0.144 A 
ATOM      2  C   LIG    1       24.047 -29.796  11.165  0.00  0.00    +0.077 A 
ATOM      3  C   LIG    1       24.020 -30.014   9.778  0.00  0.00    +0.038 A 
ATOM      4  C   LIG    1       24.980 -30.866   9.120  0.00  0.00    +0.025 A 
ATOM      5  C   LIG    1       25.900 -31.551   9.936  0.00  0.00    +0.076 A 
ATOM      6  N   LIG    1       26.829 -32.409   9.498  0.00  0.00    -0.254 NA
ATOM      7  C   LIG    1       26.901 -32.650   8.183  0.00  0.00    +0.132 A 
ATOM      8  C   LIG    1       26.079 -32.029   7.265  0.00  0.00    +0.091 A 
ATOM      9  C   LIG    1       25.122 -31.101   7.711  0.00  0.00    +0.060 A 
ATOM     10  C   LIG    1       25.900 -31.348  11.293  0.00  0.00    +0.075 A 
ENDROOT
BRANCH   2  11
ATOM     11  N   LIG    1       23.188 -28.903  11.860  0.00  0.00    -0.279 N 
ATOM     12  H   LIG    1       23.521 -27.945  11.872  0.00  0.00    +0.155 HD
ATOM     13  C   LIG    1       21.882 -29.118  12.255  0.00  0.00    +0.241 C 
ATOM     14  O   LIG    1       21.238 -30.148  12.120  0.00  0.00    -0.271 OA
BRANCH  13  15
ATOM     15  C   LIG    1       21.263 -27.876  12.827  0.00  0.00    +0.064 C 
ATOM     16  C   LIG    1       20.243 -27.963  13.698  0.00  0.00    -0.007 C 
BRANCH  16  17
ATOM     17  C   LIG    1       19.471 -26.803  14.278  0.00  0.00    +0.111 C 
BRANCH  17  18
ATOM     18  N   LIG    1       18.156 -27.221  14.801  0.00  0.00    -0.305 NA
ATOM     19  C   LIG    1       17.867 -28.616  14.455  0.00  0.00    +0.105 C 
ATOM     20  C   LIG    1       17.077 -26.365  14.297  0.00  0.00    +0.105 C 
ENDBRANCH  17  18
ENDBRANCH  16  17
ENDBRANCH  13  15
ENDBRANCH   2  11
BRANCH   8  21
ATOM     21  C   LIG    1       26.255 -32.359   5.880  0.00  0.00    +0.103 C 
ATOM     22  N   LIG    1       26.357 -32.628   4.768  0.00  0.00    -0.191 NA
ENDBRANCH   8  21
BRANCH   9  23
ATOM     23  N   LIG    1       24.427 -30.345   6.730  0.00  0.00    -0.313 N 
ATOM     24  H   LIG    1       23.842 -30.904   6.112  0.00  0.00    +0.152 HD
BRANCH  23  25
ATOM     25  C   LIG    1       24.750 -29.098   6.146  0.00  0.00    +0.033 A 
ATOM     26  C   LIG    1       25.899 -28.876   5.379  0.00  0.00    +0.047 A 
ATOM     27  C   LIG    1       26.370 -27.578   5.164  0.00  0.00    +0.084 A 
ATOM     28 CL   LIG    1       27.891 -27.369   4.371  0.00  0.00    -0.080 Cl
ATOM     29  C   LIG    1       25.643 -26.489   5.644  0.00  0.00    +0.139 A 
ATOM     30  C   LIG    1       24.397 -26.691   6.232  0.00  0.00    +0.049 A 
ATOM     31  C   LIG    1       23.960 -27.991   6.489  0.00  0.00    +0.027 A 
BRANCH  29  32
ATOM     32  O   LIG    1       26.231 -25.263   5.808  0.00  0.00    -0.484 OA
BRANCH  32  33
ATOM     33  C   LIG    1       25.716 -24.525   6.911  0.00  0.00    +0.284 C 
BRANCH  33  34
ATOM     34  C   LIG    1       25.550 -23.086   6.463  0.00  0.00    +0.078 A 
ATOM     35  N   LIG    1       24.789 -22.854   5.360  0.00  0.00    -0.257 NA
ATOM     36  C   LIG    1       24.614 -21.567   4.983  0.00  0.00    +0.111 A 
ATOM     37  C   LIG    1       25.174 -20.485   5.643  0.00  0.00    +0.020 A 
ATOM     38  C   LIG    1       25.946 -20.735   6.770  0.00  0.00    +0.003 A 
ATOM     39  C   LIG    1       26.130 -22.050   7.194  0.00  0.00    +0.027 A 
ENDBRANCH  33  34
ENDBRANCH  32  33
ENDBRANCH  29  32
ENDBRANCH  23  25
ENDBRANCH   9  23
BRANCH   1  40
ATOM     40  O   LIG    1       25.025 -30.285  13.291  0.00  0.00    -0.490 OA
BRANCH  40  42
ATOM     41  C   LIG    1       25.972 -28.187  14.003  0.00  0.00    +0.048 C 
ATOM     42  C   LIG    1       26.230 -29.659  13.753  0.00  0.00    +0.226 C 
ENDBRANCH  40  42
ENDBRANCH   1  40
TORSDOF 12
ENDMDL
MODEL 4
REMARK VINA RESULT:      -7.1      2.276      2.860
REMARK  Name = *****
REMARK                            x       y       z     vdW  Elec       q    Type
REMARK                         _______ _______ _______ _____ _____    ______ ____
ROOT
ATOM      1  C   LIG    1       24.789 -24.082   5.963  0.00  0.00    +0.144 A 
ATOM      2  C   LIG    1       25.885 -24.170   6.837  0.00  0.00    +0.077 A 
ATOM      3  C   LIG    1       26.287 -25.444   7.271  0.00  0.00    +0.038 A 
ATOM      4  C   LIG    1       25.556 -26.636   6.919  0.00  0.00    +0.025 A 
ATOM      5  C   LIG    1       24.466 -26.488   6.041  0.00  0.00    +0.076 A 
ATOM      6  N   LIG    1       23.705 -27.488   5.580  0.00  0.00    -0.254 NA
ATOM      7  C   LIG    1       23.993 -28.736   5.971  0.00  0.00    +0.132 A 
ATOM      8  C   LIG    1       25.017 -29.025   6.849  0.00  0.00    +0.091 A 
ATOM      9  C   LIG    1       25.801 -27.978   7.365  0.00  0.00    +0.060 A 
ATOM     10  C   LIG    1       24.098 -25.240   5.604  0.00  0.00    +0.075 A 
ENDROOT
BRANCH   2  11
ATOM     11  N   LIG    1       26.508 -22.951   7.220  0.00  0.00    -0.279 N 
ATOM     12  H   LIG    1       27.153 -22.589   6.527  0.00  0.00    +0.155 HD
ATOM     13  C   LIG    1       26.143 -22.098   8.244  0.00  0.00    +0.241 C 
ATOM     14  O   LIG    1       25.237 -22.267   9.047  0.00  0.00    -0.271 OA
BRANCH  13  15
ATOM     15  C   LIG    1       26.954 -20.836   8.232  0.00  0.00    +0.064 C 
ATOM     16  C   LIG    1       28.009 -20.712   7.408  0.00  0.00    -0.007 C 
BRANCH  16  17
ATOM     17  C   LIG    1       28.962 -19.543   7.356  0.00  0.00    +0.111 C 
BRANCH  17  18
ATOM     18  N   LIG    1       29.752 -19.417   8.595  0.00  0.00    -0.305 NA
ATOM     19  C   LIG    1       30.164 -18.028   8.821  0.00  0.00    +0.105 C 
ATOM     20  C   LIG    1       30.942 -20.274   8.568  0.00  0.00    +0.105 C 
ENDBRANCH  17  18
ENDBRANCH  16  17
ENDBRANCH  13  15
ENDBRANCH   2  11
BRANCH   8  21
ATOM     21  C   LIG    1       25.225 -30.399   7.205  0.00  0.00    +0.103 C 
ATOM     22  N   LIG    1       25.353 -31.504   7.489  0.00  0.00    -0.191 NA
ENDBRANCH   8  21
BRANCH   9  23
ATOM     23  N   LIG    1       26.717 -28.289   8.406  0.00  0.00    -0.313 N 
ATOM     24  H   LIG    1       27.655 -28.515   8.079  0.00  0.00    +0.152 HD
BRANCH  23  25
ATOM     25  C   LIG    1       26.481 -28.808   9.699  0.00  0.00    +0.033 A 
ATOM     26  C   LIG    1       25.203 -29.006  10.234  0.00  0.00    +0.047 A 
ATOM     27  C   LIG    1       25.023 -29.139  11.614  0.00  0.00    +0.084 A 
ATOM     28 CL   LIG    1       23.413 -29.192  12.237  0.00  0.00    -0.080 Cl
ATOM     29  C   LIG    1       26.133 -29.161  12.458  0.00  0.00    +0.139 A 
ATOM     30  C   LIG    1       27.417 -29.169  11.918  0.00  0.00    +0.049 A 
ATOM     31  C   LIG    1       27.587 -28.984  10.546  0.00  0.00    +0.027 A 
BRANCH  29  32
ATOM     32  O   LIG    1       26.008 -28.897  13.796  0.00  0.00    -0.484 OA
BRANCH  32  33
ATOM     33  C   LIG    1       26.762 -29.778  14.624  0.00  0.00    +0.284 C 
BRANCH  33  34
ATOM     34  C   LIG    1       26.026 -31.102  14.675  0.00  0.00    +0.078 A 
ATOM     35  N   LIG    1       26.704 -32.215  14.287  0.00  0.00    -0.257 NA
ATOM     36  C   LIG    1       26.055 -33.399  14.366  0.00  0.00    +0.111 A 
ATOM     37  C   LIG    1       24.748 -33.537  14.802  0.00  0.00    +0.020 A 
ATOM     38  C   LIG    1       24.067 -32.393  15.198  0.00  0.00    +0.003 A 
ATOM     39  C   LIG    1       24.714 -31.160  15.146  0.00  0.00    +0.027 A 
ENDBRANCH  33  34
ENDBRANCH  32  33
ENDBRANCH  29  32
ENDBRANCH  23  25
ENDBRANCH   9  23
BRANCH   1  40
ATOM     40  O   LIG    1       24.385 -22.831   5.544  0.00  0.00    -0.490 OA
BRANCH  40  42
ATOM     41  C   LIG    1       23.124 -20.840   6.048  0.00  0.00    +0.048 C 
ATOM     42  C   LIG    1       23.201 -22.347   6.194  0.00  0.00    +0.226 C 
ENDBRANCH  40  42
ENDBRANCH   1  40
TORSDOF 12
ENDMDL
MODEL 5
REMARK VINA RESULT:      -6.9      3.142      8.305
REMARK  Name = *****
REMARK                            x       y       z     vdW  Elec       q    Type
REMARK                         _______ _______ _______ _____ _____    ______ ____
ROOT
ATOM      1  C   LIG    1       25.552 -31.536  10.686  0.00  0.00    +0.144 A 
ATOM      2  C   LIG    1       24.667 -30.558  10.205  0.00  0.00    +0.077 A 
ATOM      3  C   LIG    1       24.412 -30.516   8.824  0.00  0.00    +0.038 A 
ATOM      4  C   LIG    1       25.096 -31.380   7.895  0.00  0.00    +0.025 A 
ATOM      5  C   LIG    1       25.972 -32.342   8.433  0.00  0.00    +0.076 A 
ATOM      6  N   LIG    1       26.654 -33.247   7.723  0.00  0.00    -0.254 NA
ATOM      7  C   LIG    1       26.501 -33.257   6.393  0.00  0.00    +0.132 A 
ATOM      8  C   LIG    1       25.694 -32.356   5.728  0.00  0.00    +0.091 A 
ATOM      9  C   LIG    1       24.998 -31.379   6.463  0.00  0.00    +0.060 A 
ATOM     10  C   LIG    1       26.194 -32.389   9.786  0.00  0.00    +0.075 A 
ENDROOT
BRANCH   2  11
ATOM     11  N   LIG    1       24.095 -29.675  11.161  0.00  0.00    -0.279 N 
ATOM     12  H   LIG    1       24.588 -28.794  11.246  0.00  0.00    +0.155 HD
ATOM     13  C   LIG    1       22.847 -29.757  11.749  0.00  0.00    +0.241 C 
ATOM     14  O   LIG    1       22.021 -30.643  11.588  0.00  0.00    -0.271 OA
BRANCH  13  15
ATOM     15  C   LIG    1       22.550 -28.550  12.590  0.00  0.00    +0.064 C 
ATOM     16  C   LIG    1       23.527 -27.685  12.910  0.00  0.00    -0.007 C 
BRANCH  16  17
ATOM     17  C   LIG    1       23.389 -26.488  13.818  0.00  0.00    +0.111 C 
BRANCH  17  18
ATOM     18  N   LIG    1       24.651 -26.174  14.516  0.00  0.00    -0.305 NA
ATOM     19  C   LIG    1       25.100 -24.813  14.211  0.00  0.00    +0.105 C 
ATOM     20  C   LIG    1       25.714 -27.122  14.165  0.00  0.00    +0.105 C 
ENDBRANCH  17  18
ENDBRANCH  16  17
ENDBRANCH  13  15
ENDBRANCH   2  11
BRANCH   8  21
ATOM     21  C   LIG    1       25.615 -32.455   4.299  0.00  0.00    +0.103 C 
ATOM     22  N   LIG    1       25.539 -32.498   3.154  0.00  0.00    -0.191 NA
ENDBRANCH   8  21
BRANCH   9  23
ATOM     23  N   LIG    1       24.332 -30.355   5.737  0.00  0.00    -0.313 N 
ATOM     24  H   LIG    1       23.649 -30.700   5.066  0.00  0.00    +0.152 HD
BRANCH  23  25
ATOM     25  C   LIG    1       24.758 -29.046   5.414  0.00  0.00    +0.033 A 
ATOM     26  C   LIG    1       26.035 -28.744   4.926  0.00  0.00    +0.047 A 
ATOM     27  C   LIG    1       26.532 -27.440   4.997  0.00  0.00    +0.084 A 
ATOM     28 CL   LIG    1       28.177 -27.156   4.555  0.00  0.00    -0.080 Cl
ATOM     29  C   LIG    1       25.719 -26.413   5.480  0.00  0.00    +0.139 A 
ATOM     30  C   LIG    1       24.383 -26.668   5.777  0.00  0.00    +0.049 A 
ATOM     31  C   LIG    1       23.910 -27.980   5.753  0.00  0.00    +0.027 A 
BRANCH  29  32
ATOM     32  O   LIG    1       26.258 -25.238   5.930  0.00  0.00    -0.484 OA
BRANCH  32  33
ATOM     33  C   LIG    1       25.674 -24.769   7.142  0.00  0.00    +0.284 C 
BRANCH  33  34
ATOM     34  C   LIG    1       25.090 -23.398   6.869  0.00  0.00    +0.078 A 
ATOM     35  N   LIG    1       25.953 -22.399   6.544  0.00  0.00    -0.257 NA
ATOM     36  C   LIG    1       25.426 -21.185   6.268  0.00  0.00    +0.111 A 
ATOM     37  C   LIG    1       24.071 -20.902   6.311  0.00  0.00    +0.020 A 
ATOM     38  C   LIG    1       23.199 -21.931   6.642  0.00  0.00    +0.003 A 
ATOM     39  C   LIG    1       23.710 -23.198   6.914  0.00  0.00    +0.027 A 
ENDBRANCH  33  34
ENDBRANCH  32  33
ENDBRANCH  29  32
ENDBRANCH  23  25
ENDBRANCH   9  23
BRANCH   1  40
ATOM     40  O   LIG    1       25.814 -31.573  12.040  0.00  0.00    -0.490 OA
BRANCH  40  42
ATOM     41  C   LIG    1       24.495 -32.183  13.962  0.00  0.00    +0.048 C 
ATOM     42  C   LIG    1       25.215 -32.682  12.726  0.00  0.00    +0.226 C 
ENDBRANCH  40  42
ENDBRANCH   1  40
TORSDOF 12
ENDMDL
MODEL 6
REMARK VINA RESULT:      -6.7      3.394      6.307
REMARK  Name = *****
REMARK                            x       y       z     vdW  Elec       q    Type
REMARK                         _______ _______ _______ _____ _____    ______ ____
ROOT
ATOM      1  C   LIG    1       25.069 -31.232   6.900  0.00  0.00    +0.144 A 
ATOM      2  C   LIG    1       24.699 -30.011   7.485  0.00  0.00    +0.077 A 
ATOM      3  C   LIG    1       23.873 -30.043   8.620  0.00  0.00    +0.038 A 
ATOM      4  C   LIG    1       23.331 -31.276   9.135  0.00  0.00    +0.025 A 
ATOM      5  C   LIG    1       23.737 -32.469   8.509  0.00  0.00    +0.076 A 
ATOM      6  N   LIG    1       23.365 -33.700   8.881  0.00  0.00    -0.254 NA
ATOM      7  C   LIG    1       22.547 -33.825   9.933  0.00  0.00    +0.132 A 
ATOM      8  C   LIG    1       22.051 -32.739  10.626  0.00  0.00    +0.091 A 
ATOM      9  C   LIG    1       22.409 -31.440  10.222  0.00  0.00    +0.060 A 
ATOM     10  C   LIG    1       24.564 -32.426   7.416  0.00  0.00    +0.075 A 
ENDROOT
BRANCH   2  11
ATOM     11  N   LIG    1       25.191 -28.825   6.875  0.00  0.00    -0.279 N 
ATOM     12  H   LIG    1       24.746 -28.607   5.991  0.00  0.00    +0.155 HD
ATOM     13  C   LIG    1       25.962 -27.833   7.452  0.00  0.00    +0.241 C 
ATOM     14  O   LIG    1       26.406 -27.822   8.590  0.00  0.00    -0.271 OA
BRANCH  13  15
ATOM     15  C   LIG    1       26.148 -26.666   6.527  0.00  0.00    +0.064 C 
ATOM     16  C   LIG    1       25.225 -25.692   6.465  0.00  0.00    -0.007 C 
BRANCH  16  17
ATOM     17  C   LIG    1       25.238 -24.515   5.521  0.00  0.00    +0.111 C 
BRANCH  17  18
ATOM     18  N   LIG    1       24.998 -23.239   6.223  0.00  0.00    -0.305 NA
ATOM     19  C   LIG    1       25.938 -23.061   7.333  0.00  0.00    +0.105 C 
ATOM     20  C   LIG    1       23.626 -23.152   6.734  0.00  0.00    +0.105 C 
ENDBRANCH  17  18
ENDBRANCH  16  17
ENDBRANCH  13  15
ENDBRANCH   2  11
BRANCH   8  21
ATOM     21  C   LIG    1       21.173 -32.995  11.731  0.00  0.00    +0.103 C 
ATOM     22  N   LIG    1       20.481 -33.165  12.632  0.00  0.00    -0.191 NA
ENDBRANCH   8  21
BRANCH   9  23
ATOM     23  N   LIG    1       21.735 -30.349  10.833  0.00  0.00    -0.313 N 
ATOM     24  H   LIG    1       21.233 -29.752  10.179  0.00  0.00    +0.152 HD
BRANCH  23  25
ATOM     25  C   LIG    1       22.014 -29.671  12.042  0.00  0.00    +0.033 A 
ATOM     26  C   LIG    1       21.084 -28.868  12.713  0.00  0.00    +0.047 A 
ATOM     27  C   LIG    1       21.508 -27.927  13.656  0.00  0.00    +0.084 A 
ATOM     28 CL   LIG    1       20.344 -26.835  14.317  0.00  0.00    -0.080 Cl
ATOM     29  C   LIG    1       22.859 -27.846  13.995  0.00  0.00    +0.139 A 
ATOM     30  C   LIG    1       23.760 -28.776  13.483  0.00  0.00    +0.049 A 
ATOM     31  C   LIG    1       23.339 -29.676  12.505  0.00  0.00    +0.027 A 
BRANCH  29  32
ATOM     32  O   LIG    1       23.372 -26.724  14.590  0.00  0.00    -0.484 OA
BRANCH  32  33
ATOM     33  C   LIG    1       23.705 -25.691  13.669  0.00  0.00    +0.284 C 
BRANCH  33  34
ATOM     34  C   LIG    1       25.106 -25.216  13.999  0.00  0.00    +0.078 A 
ATOM     35  N   LIG    1       25.235 -24.237  14.934  0.00  0.00    -0.257 NA
ATOM     36  C   LIG    1       26.488 -23.840  15.251  0.00  0.00    +0.111 A 
ATOM     37  C   LIG    1       27.634 -24.360  14.673  0.00  0.00    +0.020 A 
ATOM     38  C   LIG    1       27.489 -25.362  13.722  0.00  0.00    +0.003 A 
ATOM     39  C   LIG    1       26.212 -25.805  13.386  0.00  0.00    +0.027 A 
ENDBRANCH  33  34
ENDBRANCH  32  33
ENDBRANCH  29  32
ENDBRANCH  23  25
ENDBRANCH   9  23
BRANCH   1  40
ATOM     40  O   LIG    1       25.872 -31.204   5.777  0.00  0.00    -0.490 OA
BRANCH  40  42
ATOM     41  C   LIG    1       26.679 -32.826   4.189  0.00  0.00    +0.048 C 
ATOM     42  C   LIG    1       25.464 -32.107   4.739  0.00  0.00    +0.226 C 
ENDBRANCH  40  42
ENDBRANCH   1  40
TORSDOF 12
ENDMDL
MODEL 7
REMARK VINA RESULT:      -6.7      3.548      8.538
REMARK  Name = *****
REMARK                            x       y       z     vdW  Elec       q    Type
REMARK                         _______ _______ _______ _____ _____    ______ ____
ROOT
ATOM      1  C   LIG    1       25.338 -30.449  11.304  0.00  0.00    +0.144 A 
ATOM      2  C   LIG    1       25.937 -29.184  11.186  0.00  0.00    +0.077 A 
ATOM      3  C   LIG    1       25.914 -28.554   9.931  0.00  0.00    +0.038 A 
ATOM      4  C   LIG    1       25.380 -29.204   8.760  0.00  0.00    +0.025 A 
ATOM      5  C   LIG    1       24.792 -30.471   8.938  0.00  0.00    +0.076 A 
ATOM      6  N   LIG    1       24.215 -31.195   7.972  0.00  0.00    -0.254 NA
ATOM      7  C   LIG    1       24.179 -30.688   6.733  0.00  0.00    +0.132 A 
ATOM      8  C   LIG    1       24.738 -29.468   6.410  0.00  0.00    +0.091 A 
ATOM      9  C   LIG    1       25.377 -28.714   7.411  0.00  0.00    +0.060 A 
ATOM     10  C   LIG    1       24.799 -31.065  10.174  0.00  0.00    +0.075 A 
ENDROOT
BRANCH   2  11
ATOM     11  N   LIG    1       26.528 -28.635  12.356  0.00  0.00    -0.279 N 
ATOM     12  H   LIG    1       27.534 -28.753  12.397  0.00  0.00    +0.155 HD
ATOM     13  C   LIG    1       25.961 -27.756  13.259  0.00  0.00    +0.241 C 
ATOM     14  O   LIG    1       24.818 -27.326  13.240  0.00  0.00    -0.271 OA
BRANCH  13  15
ATOM     15  C   LIG    1       26.958 -27.288  14.279  0.00  0.00    +0.064 C 
ATOM     16  C   LIG    1       28.128 -27.931  14.434  0.00  0.00    -0.007 C 
BRANCH  16  17
ATOM     17  C   LIG    1       29.177 -27.627  15.475  0.00  0.00    +0.111 C 
BRANCH  17  18
ATOM     18  N   LIG    1       30.244 -28.646  15.500  0.00  0.00    -0.305 NA
ATOM     19  C   LIG    1       31.569 -28.027  15.391  0.00  0.00    +0.105 C 
ATOM     20  C   LIG    1       30.080 -29.627  14.423  0.00  0.00    +0.105 C 
ENDBRANCH  17  18
ENDBRANCH  16  17
ENDBRANCH  13  15
ENDBRANCH   2  11
BRANCH   8  21
ATOM     21  C   LIG    1       24.649 -29.031   5.047  0.00  0.00    +0.103 C 
ATOM     22  N   LIG    1       24.611 -28.662   3.960  0.00  0.00    -0.191 NA
ENDBRANCH   8  21
BRANCH   9  23
ATOM     23  N   LIG    1       26.103 -27.561   7.008  0.00  0.00    -0.313 N 
ATOM     24  H   LIG    1       27.071 -27.549   7.323  0.00  0.00    +0.152 HD
BRANCH  23  25
ATOM     25  C   LIG    1       25.643 -26.260   6.700  0.00  0.00    +0.033 A 
ATOM     26  C   LIG    1       26.442 -25.115   6.785  0.00  0.00    +0.047 A 
ATOM     27  C   LIG    1       25.860 -23.846   6.857  0.00  0.00    +0.084 A 
ATOM     28 CL   LIG    1       26.880 -22.483   7.149  0.00  0.00    -0.080 Cl
ATOM     29  C   LIG    1       24.476 -23.712   6.757  0.00  0.00    +0.139 A 
ATOM     30  C   LIG    1       23.689 -24.825   6.470  0.00  0.00    +0.049 A 
ATOM     31  C   LIG    1       24.272 -26.093   6.452  0.00  0.00    +0.027 A 
BRANCH  29  32
ATOM     32  O   LIG    1       23.841 -22.584   7.203  0.00  0.00    -0.484 OA
BRANCH  32  33
ATOM     33  C   LIG    1       22.734 -22.194   6.395  0.00  0.00    +0.284 C 
BRANCH  33  34
ATOM     34  C   LIG    1       23.211 -21.099   5.462  0.00  0.00    +0.078 A 
ATOM     35  N   LIG    1       24.419 -21.265   4.860  0.00  0.00    -0.257 NA
ATOM     36  C   LIG    1       24.826 -20.303   4.002  0.00  0.00    +0.111 A 
ATOM     37  C   LIG    1       24.094 -19.162   3.716  0.00  0.00    +0.020 A 
ATOM     38  C   LIG    1       22.861 -19.005   4.334  0.00  0.00    +0.003 A 
ATOM     39  C   LIG    1       22.405 -19.988   5.210  0.00  0.00    +0.027 A 
ENDBRANCH  33  34
ENDBRANCH  32  33
ENDBRANCH  29  32
ENDBRANCH  23  25
ENDBRANCH   9  23
BRANCH   1  40
ATOM     40  O   LIG    1       25.370 -31.076  12.533  0.00  0.00    -0.490 OA
BRANCH  40  42
ATOM     41  C   LIG    1       24.076 -32.403  14.073  0.00  0.00    +0.048 C 
ATOM     42  C   LIG    1       24.509 -32.220  12.632  0.00  0.00    +0.226 C 
ENDBRANCH  40  42
ENDBRANCH   1  40
TORSDOF 12
ENDMDL
MODEL 8
REMARK VINA RESULT:      -6.7      2.957      8.690
REMARK  Name = *****
REMARK                            x       y       z     vdW  Elec       q    Type
REMARK                         _______ _______ _______ _____ _____    ______ ____
ROOT
ATOM      1  C   LIG    1       25.592 -31.680  10.483  0.00  0.00    +0.144 A 
ATOM      2  C   LIG    1       24.943 -30.500  10.088  0.00  0.00    +0.077 A 
ATOM      3  C   LIG    1       24.774 -30.264   8.714  0.00  0.00    +0.038 A 
ATOM      4  C   LIG    1       25.324 -31.147   7.714  0.00  0.00    +0.025 A 
ATOM      5  C   LIG    1       25.965 -32.315   8.169  0.00  0.00    +0.076 A 
ATOM      6  N   LIG    1       26.494 -33.259   7.382  0.00  0.00    -0.254 NA
ATOM      7  C   LIG    1       26.413 -33.099   6.056  0.00  0.00    +0.132 A 
ATOM      8  C   LIG    1       25.834 -31.991   5.472  0.00  0.00    +0.091 A 
ATOM      9  C   LIG    1       25.305 -30.977   6.289  0.00  0.00    +0.060 A 
ATOM     10  C   LIG    1       26.101 -32.545   9.514  0.00  0.00    +0.075 A 
ENDROOT
BRANCH   2  11
ATOM     11  N   LIG    1       24.504 -29.625  11.118  0.00  0.00    -0.279 N 
ATOM     12  H   LIG    1       23.642 -29.921  11.563  0.00  0.00    +0.155 HD
ATOM     13  C   LIG    1       25.224 -28.627  11.746  0.00  0.00    +0.241 C 
ATOM     14  O   LIG    1       26.367 -28.280  11.490  0.00  0.00    -0.271 OA
BRANCH  13  15
ATOM     15  C   LIG    1       24.461 -28.027  12.891  0.00  0.00    +0.064 C 
ATOM     16  C   LIG    1       23.182 -28.376  13.114  0.00  0.00    -0.007 C 
BRANCH  16  17
ATOM     17  C   LIG    1       22.272 -27.788  14.165  0.00  0.00    +0.111 C 
BRANCH  17  18
ATOM     18  N   LIG    1       20.884 -27.653  13.683  0.00  0.00    -0.305 NA
ATOM     19  C   LIG    1       20.124 -26.716  14.516  0.00  0.00    +0.105 C 
ATOM     20  C   LIG    1       20.192 -28.946  13.656  0.00  0.00    +0.105 C 
ENDBRANCH  17  18
ENDBRANCH  16  17
ENDBRANCH  13  15
ENDBRANCH   2  11
BRANCH   8  21
ATOM     21  C   LIG    1       25.813 -31.924   4.039  0.00  0.00    +0.103 C 
ATOM     22  N   LIG    1       25.832 -31.853   2.893  0.00  0.00    -0.191 NA
ENDBRANCH   8  21
BRANCH   9  23
ATOM     23  N   LIG    1       24.891 -29.771   5.662  0.00  0.00    -0.313 N 
ATOM     24  H   LIG    1       24.704 -29.864   4.666  0.00  0.00    +0.152 HD
BRANCH  23  25
ATOM     25  C   LIG    1       25.153 -28.427   6.016  0.00  0.00    +0.033 A 
ATOM     26  C   LIG    1       24.155 -27.502   6.342  0.00  0.00    +0.047 A 
ATOM     27  C   LIG    1       24.416 -26.129   6.295  0.00  0.00    +0.084 A 
ATOM     28 CL   LIG    1       23.105 -25.029   6.523  0.00  0.00    -0.080 Cl
ATOM     29  C   LIG    1       25.704 -25.678   6.006  0.00  0.00    +0.139 A 
ATOM     30  C   LIG    1       26.748 -26.592   5.880  0.00  0.00    +0.049 A 
ATOM     31  C   LIG    1       26.469 -27.959   5.876  0.00  0.00    +0.027 A 
BRANCH  29  32
ATOM     32  O   LIG    1       25.924 -24.399   5.570  0.00  0.00    -0.484 OA
BRANCH  32  33
ATOM     33  C   LIG    1       26.033 -23.447   6.624  0.00  0.00    +0.284 C 
BRANCH  33  34
ATOM     34  C   LIG    1       25.010 -22.359   6.367  0.00  0.00    +0.078 A 
ATOM     35  N   LIG    1       24.706 -22.073   5.073  0.00  0.00    -0.257 NA
ATOM     36  C   LIG    1       23.767 -21.125   4.849  0.00  0.00    +0.111 A 
ATOM     37  C   LIG    1       23.117 -20.427   5.852  0.00  0.00    +0.020 A 
ATOM     38  C   LIG    1       23.434 -20.730   7.170  0.00  0.00    +0.003 A 
ATOM     39  C   LIG    1       24.383 -21.715   7.435  0.00  0.00    +0.027 A 
ENDBRANCH  33  34
ENDBRANCH  32  33
ENDBRANCH  29  32
ENDBRANCH  23  25
ENDBRANCH   9  23
BRANCH   1  40
ATOM     40  O   LIG    1       25.769 -31.909  11.832  0.00  0.00    -0.490 OA
BRANCH  40  42
ATOM     41  C   LIG    1       23.696 -32.853  12.618  0.00  0.00    +0.048 C 
ATOM     42  C   LIG    1       25.156 -33.115  12.310  0.00  0.00    +0.226 C 
ENDBRANCH  40  42
ENDBRANCH   1  40
TORSDOF 12
ENDMDL
MODEL 9
REMARK VINA RESULT:      -6.6      3.013      8.574
REMARK  Name = *****
REMARK                            x       y       z     vdW  Elec       q    Type
REMARK                         _______ _______ _______ _____ _____    ______ ____
ROOT
ATOM      1  C   LIG    1       22.515 -31.810  10.258  0.00  0.00    +0.144 A 
ATOM      2  C   LIG    1       23.169 -30.570  10.167  0.00  0.00    +0.077 A 
ATOM      3  C   LIG    1       23.886 -30.284   8.994  0.00  0.00    +0.038 A 
ATOM      4  C   LIG    1       24.041 -31.253   7.937  0.00  0.00    +0.025 A 
ATOM      5  C   LIG    1       23.363 -32.479   8.083  0.00  0.00    +0.076 A 
ATOM      6  N   LIG    1       23.363 -33.471   7.185  0.00  0.00    -0.254 NA
ATOM      7  C   LIG    1       24.053 -33.300   6.051  0.00  0.00    +0.132 A 
ATOM      8  C   LIG    1       24.784 -32.160   5.786  0.00  0.00    +0.091 A 
ATOM      9  C   LIG    1       24.817 -31.125   6.737  0.00  0.00    +0.060 A 
ATOM     10  C   LIG    1       22.646 -32.737   9.223  0.00  0.00    +0.075 A 
ENDROOT
BRANCH   2  11
ATOM     11  N   LIG    1       23.055 -29.694  11.280  0.00  0.00    -0.279 N 
ATOM     12  H   LIG    1       22.102 -29.567  11.601  0.00  0.00    +0.155 HD
ATOM     13  C   LIG    1       24.063 -29.243  12.110  0.00  0.00    +0.241 C 
ATOM     14  O   LIG    1       25.257 -29.480  12.004  0.00  0.00    -0.271 OA
BRANCH  13  15
ATOM     15  C   LIG    1       23.519 -28.455  13.266  0.00  0.00    +0.064 C 
ATOM     16  C   LIG    1       22.472 -27.631  13.097  0.00  0.00    -0.007 C 
BRANCH  16  17
ATOM     17  C   LIG    1       21.884 -26.716  14.143  0.00  0.00    +0.111 C 
BRANCH  17  18
ATOM     18  N   LIG    1       20.410 -26.784  14.173  0.00  0.00    -0.305 NA
ATOM     19  C   LIG    1       19.949 -28.136  14.505  0.00  0.00    +0.105 C 
ATOM     20  C   LIG    1       19.823 -26.376  12.892  0.00  0.00    +0.105 C 
ENDBRANCH  17  18
ENDBRANCH  16  17
ENDBRANCH  13  15
ENDBRANCH   2  11
BRANCH   8  21
ATOM     21  C   LIG    1       25.492 -32.093   4.540  0.00  0.00    +0.103 C 
ATOM     22  N   LIG    1       26.027 -32.054   3.525  0.00  0.00    -0.191 NA
ENDBRANCH   8  21
BRANCH   9  23
ATOM     23  N   LIG    1       25.725 -30.055   6.518  0.00  0.00    -0.313 N 
ATOM     24  H   LIG    1       26.695 -30.283   6.729  0.00  0.00    +0.152 HD
BRANCH  23  25
ATOM     25  C   LIG    1       25.506 -28.658   6.542  0.00  0.00    +0.033 A 
ATOM     26  C   LIG    1       25.088 -27.919   5.429  0.00  0.00    +0.047 A 
ATOM     27  C   LIG    1       25.264 -26.533   5.389  0.00  0.00    +0.084 A 
ATOM     28 CL   LIG    1       24.904 -25.695   3.923  0.00  0.00    -0.080 Cl
ATOM     29  C   LIG    1       25.782 -25.868   6.500  0.00  0.00    +0.139 A 
ATOM     30  C   LIG    1       26.012 -26.567   7.683  0.00  0.00    +0.049 A 
ATOM     31  C   LIG    1       25.882 -27.956   7.697  0.00  0.00    +0.027 A 
BRANCH  29  32
ATOM     32  O   LIG    1       26.329 -24.619   6.385  0.00  0.00    -0.484 OA
BRANCH  32  33
ATOM     33  C   LIG    1       25.927 -23.721   7.415  0.00  0.00    +0.284 C 
BRANCH  33  34
ATOM     34  C   LIG    1       25.034 -22.671   6.786  0.00  0.00    +0.078 A 
ATOM     35  N   LIG    1       25.635 -21.600   6.202  0.00  0.00    -0.257 NA
ATOM     36  C   LIG    1       24.836 -20.683   5.612  0.00  0.00    +0.111 A 
ATOM     37  C   LIG    1       23.454 -20.765   5.582  0.00  0.00    +0.020 A 
ATOM     38  C   LIG    1       22.852 -21.865   6.180  0.00  0.00    +0.003 A 
ATOM     39  C   LIG    1       23.648 -22.837   6.781  0.00  0.00    +0.027 A 
ENDBRANCH  33  34
ENDBRANCH  32  33
ENDBRANCH  29  32
ENDBRANCH  23  25
ENDBRANCH   9  23
BRANCH   1  40
ATOM     40  O   LIG    1       21.819 -32.099  11.414  0.00  0.00    -0.490 OA
BRANCH  40  42
ATOM     41  C   LIG    1       19.658 -31.178  10.877  0.00  0.00    +0.048 C 
ATOM     42  C   LIG    1       20.440 -32.434  11.203  0.00  0.00    +0.226 C 
ENDBRANCH  40  42
ENDBRANCH   1  40
TORSDOF 12
ENDMDL
