MODEL 1
REMARK VINA RESULT:      -7.8      0.000      0.000
REMARK  Name = *****
REMARK                            x       y       z     vdW  Elec       q    Type
REMARK                         _______ _______ _______ _____ _____    ______ ____
ROOT
ATOM      1  C   LIG    1       29.121 -20.532   7.745  0.00  0.00    +0.165 C 
ATOM      2  O   LIG    1       29.473 -21.481   8.434  0.00  0.00    -0.294 OA
ENDROOT
BRANCH   1   3
ATOM      3  C   LIG    1       30.104 -19.920   6.825  0.00  0.00    +0.223 C 
ATOM      4  C   LIG    1       31.278 -19.111   7.307  0.00  0.00    +0.240 C 
ATOM      5  O   LIG    1       30.104 -18.485   6.753  0.00  0.00    -0.350 OA
BRANCH   4   6
ATOM      6  C   LIG    1       31.527 -18.836   8.738  0.00  0.00    +0.242 C 
ATOM      7  O   LIG    1       32.143 -19.611   9.444  0.00  0.00    -0.273 OA
ATOM      8  N   LIG    1       31.088 -17.620   9.182  0.00  0.00    -0.327 N 
ATOM      9  H   LIG    1       30.712 -16.929   8.550  0.00  0.00    +0.145 HD
ATOM     10  H   LIG    1       31.291 -17.364  10.138  0.00  0.00    +0.145 HD
ENDBRANCH   4   6
ENDBRANCH   1   3
BRANCH   1  11
ATOM     11  C   LIG    1       27.698 -20.010   7.648  0.00  0.00    +0.081 C 
BRANCH  11  12
ATOM     12  C   LIG    1       26.670 -20.859   8.395  0.00  0.00    +0.034 C 
BRANCH  12  14
ATOM     13  C   LIG    1       24.527 -21.859   7.526  0.00  0.00    -0.027 C 
ATOM     14  C   LIG    1       25.312 -20.797   7.757  0.00  0.00    -0.030 C 
BRANCH  13  15
ATOM     15  C   LIG    1       23.199 -21.762   6.835  0.00  0.00    +0.053 C 
BRANCH  15  18
ATOM     16  C   LIG    1       22.328 -18.748   4.513  0.00  0.00    +0.035 C 
ATOM     17  C   LIG    1       22.538 -20.121   5.058  0.00  0.00    -0.034 C 
ATOM     18  C   LIG    1       22.990 -20.378   6.296  0.00  0.00    -0.027 C 
ENDBRANCH  15  18
ENDBRANCH  13  15
ENDBRANCH  12  14
ENDBRANCH  11  12
ENDBRANCH   1  11
TORSDOF 7
ENDMDL
MODEL 2
REMARK VINA RESULT:      -7.7      1.289      2.114
REMARK  Name = *****
REMARK                            x       y       z     vdW  Elec       q    Type
REMARK                         _______ _______ _______ _____ _____    ______ ____
ROOT
ATOM      1  C   LIG    1       30.542 -19.587   7.217  0.00  0.00    +0.165 C 
ATOM      2  O   LIG    1       31.472 -19.201   6.520  0.00  0.00    -0.294 OA
ENDROOT
BRANCH   1   3
ATOM      3  C   LIG    1       30.801 -19.887   8.642  0.00  0.00    +0.223 C 
ATOM      4  C   LIG    1       31.050 -18.816   9.669  0.00  0.00    +0.240 C 
ATOM      5  O   LIG    1       32.124 -19.606   9.124  0.00  0.00    -0.350 OA
BRANCH   4   6
ATOM      6  C   LIG    1       31.088 -17.377   9.331  0.00  0.00    +0.242 C 
ATOM      7  O   LIG    1       30.145 -16.640   9.547  0.00  0.00    -0.273 OA
ATOM      8  N   LIG    1       32.281 -16.925   8.838  0.00  0.00    -0.327 N 
ATOM      9  H   LIG    1       33.098 -17.516   8.805  0.00  0.00    +0.145 HD
ATOM     10  H   LIG    1       32.371 -15.936   8.652  0.00  0.00    +0.145 HD
ENDBRANCH   4   6
ENDBRANCH   1   3
BRANCH   1  11
ATOM     11  C   LIG    1       29.092 -19.652   6.772  0.00  0.00    +0.081 C 
BRANCH  11  12
ATOM     12  C   LIG    1       28.104 -19.938   7.902  0.00  0.00    +0.034 C 
BRANCH  12  14
ATOM     13  C   LIG    1       25.792 -20.900   8.172  0.00  0.00    -0.027 C 
ATOM     14  C   LIG    1       26.854 -20.604   7.408  0.00  0.00    -0.030 C 
BRANCH  13  15
ATOM     15  C   LIG    1       24.581 -21.617   7.651  0.00  0.00    +0.053 C 
BRANCH  15  18
ATOM     16  C   LIG    1       22.487 -19.444   5.174  0.00  0.00    +0.035 C 
ATOM     17  C   LIG    1       23.458 -20.416   5.757  0.00  0.00    -0.034 C 
ATOM     18  C   LIG    1       23.601 -20.639   7.073  0.00  0.00    -0.027 C 
ENDBRANCH  15  18
ENDBRANCH  13  15
ENDBRANCH  12  14
ENDBRANCH  11  12
ENDBRANCH   1  11
TORSDOF 7
ENDMDL
MODEL 3
REMARK VINA RESULT:      -7.3      1.809      2.465
REMARK  Name = *****
REMARK                            x       y       z     vdW  Elec       q    Type
REMARK                         _______ _______ _______ _____ _____    ______ ____
ROOT
ATOM      1  C   LIG    1       30.108 -20.018   7.991  0.00  0.00    +0.165 C 
ATOM      2  O   LIG    1       29.873 -21.067   8.576  0.00  0.00    -0.294 OA
ENDROOT
BRANCH   1   3
ATOM      3  C   LIG    1       31.463 -19.433   8.098  0.00  0.00    +0.223 C 
ATOM      4  C   LIG    1       31.834 -18.422   9.149  0.00  0.00    +0.240 C 
ATOM      5  O   LIG    1       31.582 -18.037   7.784  0.00  0.00    -0.350 OA
BRANCH   4   6
ATOM      6  C   LIG    1       30.866 -17.908  10.141  0.00  0.00    +0.242 C 
ATOM      7  O   LIG    1       30.629 -18.500  11.176  0.00  0.00    -0.273 OA
ATOM      8  N   LIG    1       30.325 -16.687   9.848  0.00  0.00    -0.327 N 
ATOM      9  H   LIG    1       30.643 -16.141   9.061  0.00  0.00    +0.145 HD
ATOM     10  H   LIG    1       29.706 -16.268  10.528  0.00  0.00    +0.145 HD
ENDBRANCH   4   6
ENDBRANCH   1   3
BRANCH   1  11
ATOM     11  C   LIG    1       29.154 -19.326   7.033  0.00  0.00    +0.081 C 
BRANCH  11  12
ATOM     12  C   LIG    1       28.407 -20.278   6.100  0.00  0.00    +0.034 C 
BRANCH  12  14
ATOM     13  C   LIG    1       26.412 -20.603   7.603  0.00  0.00    -0.027 C 
ATOM     14  C   LIG    1       26.937 -20.330   6.400  0.00  0.00    -0.030 C 
BRANCH  13  15
ATOM     15  C   LIG    1       24.935 -20.700   7.850  0.00  0.00    +0.053 C 
BRANCH  15  18
ATOM     16  C   LIG    1       22.778 -23.746   6.706  0.00  0.00    +0.035 C 
ATOM     17  C   LIG    1       23.270 -22.366   6.987  0.00  0.00    -0.034 C 
ATOM     18  C   LIG    1       24.448 -22.091   7.570  0.00  0.00    -0.027 C 
ENDBRANCH  15  18
ENDBRANCH  13  15
ENDBRANCH  12  14
ENDBRANCH  11  12
ENDBRANCH   1  11
TORSDOF 7
ENDMDL
MODEL 4
REMARK VINA RESULT:      -7.1      2.103      3.075
REMARK  Name = *****
REMARK                            x       y       z     vdW  Elec       q    Type
REMARK                         _______ _______ _______ _____ _____    ______ ____
ROOT
ATOM      1  C   LIG    1       28.800 -20.615   7.651  0.00  0.00    +0.165 C 
ATOM      2  O   LIG    1       29.162 -21.475   8.443  0.00  0.00    -0.294 OA
ENDROOT
BRANCH   1   3
ATOM      3  C   LIG    1       29.794 -20.055   6.709  0.00  0.00    +0.223 C 
ATOM      4  C   LIG    1       30.991 -19.264   7.162  0.00  0.00    +0.240 C 
ATOM      5  O   LIG    1       29.831 -18.624   6.596  0.00  0.00    -0.350 OA
BRANCH   4   6
ATOM      6  C   LIG    1       31.255 -18.955   8.583  0.00  0.00    +0.242 C 
ATOM      7  O   LIG    1       32.026 -19.615   9.253  0.00  0.00    -0.273 OA
ATOM      8  N   LIG    1       30.636 -17.833   9.060  0.00  0.00    -0.327 N 
ATOM      9  H   LIG    1       30.120 -17.214   8.453  0.00  0.00    +0.145 HD
ATOM     10  H   LIG    1       30.837 -17.549  10.009  0.00  0.00    +0.145 HD
ENDBRANCH   4   6
ENDBRANCH   1   3
BRANCH   1  11
ATOM     11  C   LIG    1       27.363 -20.167   7.452  0.00  0.00    +0.081 C 
BRANCH  11  12
ATOM     12  C   LIG    1       26.397 -20.675   8.522  0.00  0.00    +0.034 C 
BRANCH  12  14
ATOM     13  C   LIG    1       25.522 -22.780   7.451  0.00  0.00    -0.027 C 
ATOM     14  C   LIG    1       25.323 -21.551   7.947  0.00  0.00    -0.030 C 
BRANCH  13  15
ATOM     15  C   LIG    1       24.429 -23.603   6.833  0.00  0.00    +0.053 C 
BRANCH  15  18
ATOM     16  C   LIG    1       24.668 -27.312   5.640  0.00  0.00    +0.035 C 
ATOM     17  C   LIG    1       24.164 -25.959   6.017  0.00  0.00    -0.034 C 
ATOM     18  C   LIG    1       24.946 -24.960   6.455  0.00  0.00    -0.027 C 
ENDBRANCH  15  18
ENDBRANCH  13  15
ENDBRANCH  12  14
ENDBRANCH  11  12
ENDBRANCH   1  11
TORSDOF 7
ENDMDL
MODEL 5
REMARK VINA RESULT:      -6.9      3.666      7.089
REMARK  Name = *****
REMARK                            x       y       z     vdW  Elec       q    Type
REMARK                         _______ _______ _______ _____ _____    ______ ____
ROOT
ATOM      1  C   LIG    1       25.545 -21.049   8.161  0.00  0.00    +0.165 C 
ATOM      2  O   LIG    1       25.503 -21.679   9.210  0.00  0.00    -0.294 OA
ENDROOT
BRANCH   1   3
ATOM      3  C   LIG    1       24.276 -20.748   7.463  0.00  0.00    +0.223 C 
ATOM      4  C   LIG    1       23.610 -21.719   6.526  0.00  0.00    +0.240 C 
ATOM      5  O   LIG    1       24.354 -20.586   6.037  0.00  0.00    -0.350 OA
BRANCH   4   6
ATOM      6  C   LIG    1       24.186 -23.042   6.203  0.00  0.00    +0.242 C 
ATOM      7  O   LIG    1       23.985 -24.018   6.900  0.00  0.00    -0.273 OA
ATOM      8  N   LIG    1       24.886 -23.102   5.030  0.00  0.00    -0.327 N 
ATOM      9  H   LIG    1       24.918 -22.322   4.392  0.00  0.00    +0.145 HD
ATOM     10  H   LIG    1       25.245 -24.001   4.739  0.00  0.00    +0.145 HD
ENDBRANCH   4   6
ENDBRANCH   1   3
BRANCH   1  11
ATOM     11  C   LIG    1       26.797 -20.418   7.577  0.00  0.00    +0.081 C 
BRANCH  11  12
ATOM     12  C   LIG    1       27.860 -21.426   7.144  0.00  0.00    +0.034 C 
BRANCH  12  14
ATOM     13  C   LIG    1       29.730 -19.750   6.936  0.00  0.00    -0.027 C 
ATOM     14  C   LIG    1       29.253 -20.921   7.384  0.00  0.00    -0.030 C 
BRANCH  13  15
ATOM     15  C   LIG    1       31.147 -19.306   7.151  0.00  0.00    +0.053 C 
BRANCH  15  18
ATOM     16  C   LIG    1       30.374 -17.190  10.339  0.00  0.00    +0.035 C 
ATOM     17  C   LIG    1       30.257 -17.923   9.045  0.00  0.00    -0.034 C 
ATOM     18  C   LIG    1       31.273 -18.572   8.454  0.00  0.00    -0.027 C 
ENDBRANCH  15  18
ENDBRANCH  13  15
ENDBRANCH  12  14
ENDBRANCH  11  12
ENDBRANCH   1  11
TORSDOF 7
ENDMDL
MODEL 6
REMARK VINA RESULT:      -6.8      5.875      7.145
REMARK  Name = *****
REMARK                            x       y       z     vdW  Elec       q    Type
REMARK                         _______ _______ _______ _____ _____    ______ ____
ROOT
ATOM      1  C   LIG    1       24.604 -24.787   6.350  0.00  0.00    +0.165 C 
ATOM      2  O   LIG    1       23.398 -24.822   6.558  0.00  0.00    -0.294 OA
ENDROOT
BRANCH   1   3
ATOM      3  C   LIG    1       25.133 -25.435   5.131  0.00  0.00    +0.223 C 
ATOM      4  C   LIG    1       25.281 -26.927   4.999  0.00  0.00    +0.240 C 
ATOM      5  O   LIG    1       26.414 -26.074   5.251  0.00  0.00    -0.350 OA
BRANCH   4   6
ATOM      6  C   LIG    1       24.939 -27.864   6.090  0.00  0.00    +0.242 C 
ATOM      7  O   LIG    1       25.566 -27.895   7.132  0.00  0.00    -0.273 OA
ATOM      8  N   LIG    1       23.826 -28.628   5.875  0.00  0.00    -0.327 N 
ATOM      9  H   LIG    1       23.232 -28.485   5.071  0.00  0.00    +0.145 HD
ATOM     10  H   LIG    1       23.519 -29.238   6.620  0.00  0.00    +0.145 HD
ENDBRANCH   4   6
ENDBRANCH   1   3
BRANCH   1  11
ATOM     11  C   LIG    1       25.605 -24.000   7.178  0.00  0.00    +0.081 C 
BRANCH  11  12
ATOM     12  C   LIG    1       25.208 -22.544   7.419  0.00  0.00    +0.034 C 
BRANCH  12  14
ATOM     13  C   LIG    1       24.670 -21.334   5.276  0.00  0.00    -0.027 C 
ATOM     14  C   LIG    1       25.534 -21.665   6.247  0.00  0.00    -0.030 C 
BRANCH  13  15
ATOM     15  C   LIG    1       25.051 -20.497   4.090  0.00  0.00    +0.053 C 
BRANCH  15  18
ATOM     16  C   LIG    1       21.925 -18.178   4.391  0.00  0.00    +0.035 C 
ATOM     17  C   LIG    1       22.908 -19.286   4.572  0.00  0.00    -0.034 C 
ATOM     18  C   LIG    1       24.068 -19.379   3.902  0.00  0.00    -0.027 C 
ENDBRANCH  15  18
ENDBRANCH  13  15
ENDBRANCH  12  14
ENDBRANCH  11  12
ENDBRANCH   1  11
TORSDOF 7
ENDMDL
MODEL 7
REMARK VINA RESULT:      -6.8      1.996      2.119
REMARK  Name = *****
REMARK                            x       y       z     vdW  Elec       q    Type
REMARK                         _______ _______ _______ _____ _____    ______ ____
ROOT
ATOM      1  C   LIG    1       29.100 -20.652   7.199  0.00  0.00    +0.165 C 
ATOM      2  O   LIG    1       29.109 -20.817   5.987  0.00  0.00    -0.294 OA
ENDROOT
BRANCH   1   3
ATOM      3  C   LIG    1       30.101 -19.743   7.799  0.00  0.00    +0.223 C 
ATOM      4  C   LIG    1       31.163 -20.216   8.755  0.00  0.00    +0.240 C 
ATOM      5  O   LIG    1       29.990 -19.515   9.213  0.00  0.00    -0.350 OA
BRANCH   4   6
ATOM      6  C   LIG    1       31.273 -21.623   9.196  0.00  0.00    +0.242 C 
ATOM      7  O   LIG    1       30.672 -22.041  10.166  0.00  0.00    -0.273 OA
ATOM      8  N   LIG    1       32.029 -22.428   8.390  0.00  0.00    -0.327 N 
ATOM      9  H   LIG    1       32.398 -22.101   7.510  0.00  0.00    +0.145 HD
ATOM     10  H   LIG    1       32.081 -23.411   8.619  0.00  0.00    +0.145 HD
ENDBRANCH   4   6
ENDBRANCH   1   3
BRANCH   1  11
ATOM     11  C   LIG    1       28.043 -21.199   8.142  0.00  0.00    +0.081 C 
BRANCH  11  12
ATOM     12  C   LIG    1       26.786 -20.335   8.241  0.00  0.00    +0.034 C 
BRANCH  12  14
ATOM     13  C   LIG    1       25.525 -21.751   6.583  0.00  0.00    -0.027 C 
ATOM     14  C   LIG    1       25.855 -20.552   7.084  0.00  0.00    -0.030 C 
BRANCH  13  15
ATOM     15  C   LIG    1       24.633 -21.924   5.389  0.00  0.00    +0.053 C 
BRANCH  15  18
ATOM     16  C   LIG    1       22.328 -18.847   4.707  0.00  0.00    +0.035 C 
ATOM     17  C   LIG    1       22.857 -20.167   5.159  0.00  0.00    -0.034 C 
ATOM     18  C   LIG    1       24.110 -20.594   4.931  0.00  0.00    -0.027 C 
ENDBRANCH  15  18
ENDBRANCH  13  15
ENDBRANCH  12  14
ENDBRANCH  11  12
ENDBRANCH   1  11
TORSDOF 7
ENDMDL
MODEL 8
REMARK VINA RESULT:      -6.7      2.154      2.916
REMARK  Name = *****
REMARK                            x       y       z     vdW  Elec       q    Type
REMARK                         _______ _______ _______ _____ _____    ______ ____
ROOT
ATOM      1  C   LIG    1       29.086 -20.630   7.217  0.00  0.00    +0.165 C 
ATOM      2  O   LIG    1       29.079 -20.810   6.006  0.00  0.00    -0.294 OA
ENDROOT
BRANCH   1   3
ATOM      3  C   LIG    1       30.095 -19.714   7.792  0.00  0.00    +0.223 C 
ATOM      4  C   LIG    1       31.163 -20.175   8.748  0.00  0.00    +0.240 C 
ATOM      5  O   LIG    1       29.997 -19.460   9.203  0.00  0.00    -0.350 OA
BRANCH   4   6
ATOM      6  C   LIG    1       31.270 -21.574   9.214  0.00  0.00    +0.242 C 
ATOM      7  O   LIG    1       30.652 -21.979  10.179  0.00  0.00    -0.273 OA
ATOM      8  N   LIG    1       32.044 -22.389   8.436  0.00  0.00    -0.327 N 
ATOM      9  H   LIG    1       32.429 -22.075   7.558  0.00  0.00    +0.145 HD
ATOM     10  H   LIG    1       32.096 -23.368   8.682  0.00  0.00    +0.145 HD
ENDBRANCH   4   6
ENDBRANCH   1   3
BRANCH   1  11
ATOM     11  C   LIG    1       28.040 -21.164   8.180  0.00  0.00    +0.081 C 
BRANCH  11  12
ATOM     12  C   LIG    1       26.732 -20.374   8.182  0.00  0.00    +0.034 C 
BRANCH  12  14
ATOM     13  C   LIG    1       24.397 -20.665   7.284  0.00  0.00    -0.027 C 
ATOM     14  C   LIG    1       25.584 -21.176   7.643  0.00  0.00    -0.030 C 
BRANCH  13  15
ATOM     15  C   LIG    1       23.254 -21.509   6.801  0.00  0.00    +0.053 C 
BRANCH  15  18
ATOM     16  C   LIG    1       24.294 -25.246   6.361  0.00  0.00    +0.035 C 
ATOM     17  C   LIG    1       24.014 -23.800   6.121  0.00  0.00    -0.034 C 
ATOM     18  C   LIG    1       23.534 -22.962   7.052  0.00  0.00    -0.027 C 
ENDBRANCH  15  18
ENDBRANCH  13  15
ENDBRANCH  12  14
ENDBRANCH  11  12
ENDBRANCH   1  11
TORSDOF 7
ENDMDL
MODEL 9
REMARK VINA RESULT:      -6.6      2.556      3.546
REMARK  Name = *****
REMARK                            x       y       z     vdW  Elec       q    Type
REMARK                         _______ _______ _______ _____ _____    ______ ____
ROOT
ATOM      1  C   LIG    1       29.983 -19.250   6.927  0.00  0.00    +0.165 C 
ATOM      2  O   LIG    1       29.645 -18.191   6.414  0.00  0.00    -0.294 OA
ENDROOT
BRANCH   1   3
ATOM      3  C   LIG    1       31.358 -19.375   7.457  0.00  0.00    +0.223 C 
ATOM      4  C   LIG    1       31.752 -18.893   8.827  0.00  0.00    +0.240 C 
ATOM      5  O   LIG    1       32.087 -18.150   7.638  0.00  0.00    -0.350 OA
BRANCH   4   6
ATOM      6  C   LIG    1       30.802 -18.225   9.743  0.00  0.00    +0.242 C 
ATOM      7  O   LIG    1       30.507 -18.702  10.821  0.00  0.00    -0.273 OA
ATOM      8  N   LIG    1       30.351 -17.004   9.326  0.00  0.00    -0.327 N 
ATOM      9  H   LIG    1       30.720 -16.556   8.500  0.00  0.00    +0.145 HD
ATOM     10  H   LIG    1       29.749 -16.484   9.949  0.00  0.00    +0.145 HD
ENDBRANCH   4   6
ENDBRANCH   1   3
BRANCH   1  11
ATOM     11  C   LIG    1       29.052 -20.419   7.198  0.00  0.00    +0.081 C 
BRANCH  11  12
ATOM     12  C   LIG    1       27.907 -20.095   8.157  0.00  0.00    +0.034 C 
BRANCH  12  14
ATOM     13  C   LIG    1       26.746 -22.186   7.367  0.00  0.00    -0.027 C 
ATOM     14  C   LIG    1       26.708 -20.968   7.925  0.00  0.00    -0.030 C 
BRANCH  13  15
ATOM     15  C   LIG    1       25.517 -23.005   7.101  0.00  0.00    +0.053 C 
BRANCH  15  18
ATOM     16  C   LIG    1       26.065 -26.761   6.189  0.00  0.00    +0.035 C 
ATOM     17  C   LIG    1       25.709 -25.497   6.898  0.00  0.00    -0.034 C 
ATOM     18  C   LIG    1       25.877 -24.271   6.380  0.00  0.00    -0.027 C 
ENDBRANCH  15  18
ENDBRANCH  13  15
ENDBRANCH  12  14
ENDBRANCH  11  12
ENDBRANCH   1  11
TORSDOF 7
ENDMDL
