MODEL 1
REMARK VINA RESULT:      -5.2      0.000      0.000
REMARK  Name = *****
REMARK                            x       y       z     vdW  Elec       q    Type
REMARK                         _______ _______ _______ _____ _____    ______ ____
ROOT
ATOM      1  C   LIG    1       25.247 -17.789   3.987  0.00  0.00    -0.003 C 
ENDROOT
BRANCH   1   2
ATOM      2  C   LIG    1       24.005 -18.577   3.352  0.00  0.00    -0.008 C 
ATOM      3  C   LIG    1       24.118 -20.105   3.157  0.00  0.00    +0.004 C 
ATOM      4  C   LIG    1       24.082 -20.889   4.464  0.00  0.00    +0.000 C 
ATOM      5  C   LIG    1       22.728 -20.696   5.128  0.00  0.00    +0.000 C 
ATOM      6  C   LIG    1       22.438 -19.214   5.344  0.00  0.00    +0.000 C 
ATOM      7  C   LIG    1       22.635 -18.377   4.073  0.00  0.00    +0.004 C 
ENDBRANCH   1   2
BRANCH   1   8
ATOM      8  C   LIG    1       25.407 -16.352   3.277  0.00  0.00    -0.008 C 
ATOM      9  C   LIG    1       24.361 -15.273   3.637  0.00  0.00    +0.004 C 
ATOM     10  C   LIG    1       24.740 -14.259   4.713  0.00  0.00    +0.000 C 
ATOM     11  C   LIG    1       26.152 -13.711   4.571  0.00  0.00    +0.000 C 
ATOM     12  C   LIG    1       27.183 -14.813   4.392  0.00  0.00    +0.000 C 
ATOM     13  C   LIG    1       26.833 -15.761   3.247  0.00  0.00    +0.004 C 
ENDBRANCH   1   8
BRANCH   1  14
ATOM     14  C   LIG    1       26.623 -18.552   3.941  0.00  0.00    +0.022 C 
BRANCH  14  15
ATOM     15  C   LIG    1       27.369 -18.929   5.248  0.00  0.00    +0.054 C 
ATOM     16  N   LIG    1       28.814 -18.678   5.158  0.00  0.00    -0.313 NA
ATOM     17  H   LIG    1       29.224 -19.309   4.480  0.00  0.00    +0.122 HD
ATOM     18  C   LIG    1       29.459 -18.883   6.464  0.00  0.00    +0.081 C 
ATOM     19  C   LIG    1       29.237 -20.292   7.004  0.00  0.00    +0.015 C 
ATOM     20  C   LIG    1       27.760 -20.656   7.037  0.00  0.00    +0.003 C 
ATOM     21  C   LIG    1       27.113 -20.389   5.671  0.00  0.00    +0.019 C 
ENDBRANCH  14  15
ENDBRANCH   1  14
TORSDOF 4
ENDMDL
MODEL 2
REMARK VINA RESULT:      -4.8      1.204      5.264
REMARK  Name = *****
REMARK                            x       y       z     vdW  Elec       q    Type
REMARK                         _______ _______ _______ _____ _____    ______ ____
ROOT
ATOM      1  C   LIG    1       25.481 -18.666   4.107  0.00  0.00    -0.003 C 
ENDROOT
BRANCH   1   2
ATOM      2  C   LIG    1       26.295 -20.002   4.452  0.00  0.00    -0.008 C 
ATOM      3  C   LIG    1       27.832 -19.922   4.579  0.00  0.00    +0.004 C 
ATOM      4  C   LIG    1       28.301 -19.189   5.831  0.00  0.00    +0.000 C 
ATOM      5  C   LIG    1       27.864 -19.968   7.061  0.00  0.00    +0.000 C 
ATOM      6  C   LIG    1       26.354 -20.182   7.058  0.00  0.00    +0.000 C 
ATOM      7  C   LIG    1       25.838 -20.763   5.735  0.00  0.00    +0.004 C 
ENDBRANCH   1   2
BRANCH   1   8
ATOM      8  C   LIG    1       23.987 -19.038   3.636  0.00  0.00    -0.008 C 
ATOM      9  C   LIG    1       23.752 -20.477   3.122  0.00  0.00    +0.004 C 
ATOM     10  C   LIG    1       23.188 -21.493   4.112  0.00  0.00    +0.000 C 
ATOM     11  C   LIG    1       22.042 -20.956   4.958  0.00  0.00    +0.000 C 
ATOM     12  C   LIG    1       22.372 -19.615   5.592  0.00  0.00    +0.000 C 
ATOM     13  C   LIG    1       22.843 -18.584   4.569  0.00  0.00    +0.004 C 
ENDBRANCH   1   8
BRANCH   1  14
ATOM     14  C   LIG    1       26.150 -17.726   3.036  0.00  0.00    +0.022 C 
BRANCH  14  15
ATOM     15  C   LIG    1       26.233 -16.194   3.262  0.00  0.00    +0.054 C 
ATOM     16  N   LIG    1       27.438 -15.804   4.008  0.00  0.00    -0.313 NA
ATOM     17  H   LIG    1       27.378 -16.164   4.953  0.00  0.00    +0.122 HD
ATOM     18  C   LIG    1       27.570 -14.340   4.052  0.00  0.00    +0.081 C 
ATOM     19  C   LIG    1       26.358 -13.668   4.690  0.00  0.00    +0.015 C 
ATOM     20  C   LIG    1       25.060 -14.101   4.023  0.00  0.00    +0.003 C 
ATOM     21  C   LIG    1       24.977 -15.633   3.958  0.00  0.00    +0.019 C 
ENDBRANCH  14  15
ENDBRANCH   1  14
TORSDOF 4
ENDMDL
MODEL 3
REMARK VINA RESULT:      -4.6      1.610      5.445
REMARK  Name = *****
REMARK                            x       y       z     vdW  Elec       q    Type
REMARK                         _______ _______ _______ _____ _____    ______ ____
ROOT
ATOM      1  C   LIG    1       25.537 -18.619   4.235  0.00  0.00    -0.003 C 
ENDROOT
BRANCH   1   2
ATOM      2  C   LIG    1       26.371 -19.966   4.475  0.00  0.00    -0.008 C 
ATOM      3  C   LIG    1       27.909 -19.876   4.589  0.00  0.00    +0.004 C 
ATOM      4  C   LIG    1       28.385 -19.226   5.883  0.00  0.00    +0.000 C 
ATOM      5  C   LIG    1       27.974 -20.095   7.061  0.00  0.00    +0.000 C 
ATOM      6  C   LIG    1       26.466 -20.327   7.062  0.00  0.00    +0.000 C 
ATOM      7  C   LIG    1       25.939 -20.821   5.708  0.00  0.00    +0.004 C 
ENDBRANCH   1   2
BRANCH   1   8
ATOM      8  C   LIG    1       24.070 -18.973   3.675  0.00  0.00    -0.008 C 
ATOM      9  C   LIG    1       23.862 -20.394   3.102  0.00  0.00    +0.004 C 
ATOM     10  C   LIG    1       23.248 -21.441   4.028  0.00  0.00    +0.000 C 
ATOM     11  C   LIG    1       22.060 -20.931   4.830  0.00  0.00    +0.000 C 
ATOM     12  C   LIG    1       22.356 -19.612   5.525  0.00  0.00    +0.000 C 
ATOM     13  C   LIG    1       22.880 -18.548   4.562  0.00  0.00    +0.004 C 
ENDBRANCH   1   8
BRANCH   1  14
ATOM     14  C   LIG    1       26.220 -17.563   3.288  0.00  0.00    +0.022 C 
BRANCH  14  15
ATOM     15  C   LIG    1       26.204 -16.052   3.635  0.00  0.00    +0.054 C 
ATOM     16  N   LIG    1       25.667 -15.233   2.540  0.00  0.00    -0.313 NA
ATOM     17  H   LIG    1       26.299 -15.271   1.750  0.00  0.00    +0.122 HD
ATOM     18  C   LIG    1       25.507 -13.835   2.967  0.00  0.00    +0.081 C 
ATOM     19  C   LIG    1       26.821 -13.221   3.442  0.00  0.00    +0.015 C 
ATOM     20  C   LIG    1       27.482 -14.071   4.516  0.00  0.00    +0.003 C 
ATOM     21  C   LIG    1       27.594 -15.530   4.052  0.00  0.00    +0.019 C 
ENDBRANCH  14  15
ENDBRANCH   1  14
TORSDOF 4
ENDMDL
MODEL 4
REMARK VINA RESULT:      -3.4      1.397      5.509
REMARK  Name = *****
REMARK                            x       y       z     vdW  Elec       q    Type
REMARK                         _______ _______ _______ _____ _____    ______ ____
ROOT
ATOM      1  C   LIG    1       26.703 -17.455   4.226  0.00  0.00    -0.003 C 
ENDROOT
BRANCH   1   2
ATOM      2  C   LIG    1       27.183 -16.092   3.534  0.00  0.00    -0.008 C 
ATOM      3  C   LIG    1       26.151 -15.260   2.741  0.00  0.00    +0.004 C 
ATOM      4  C   LIG    1       25.119 -14.570   3.625  0.00  0.00    +0.000 C 
ATOM      5  C   LIG    1       25.817 -13.551   4.512  0.00  0.00    +0.000 C 
ATOM      6  C   LIG    1       26.918 -14.215   5.334  0.00  0.00    +0.000 C 
ATOM      7  C   LIG    1       27.873 -15.058   4.478  0.00  0.00    +0.004 C 
ENDBRANCH   1   2
BRANCH   1   8
ATOM      8  C   LIG    1       27.955 -18.450   4.407  0.00  0.00    -0.008 C 
ATOM      9  C   LIG    1       29.226 -17.866   5.065  0.00  0.00    +0.004 C 
ATOM     10  C   LIG    1       29.418 -18.110   6.560  0.00  0.00    +0.000 C 
ATOM     11  C   LIG    1       29.111 -19.536   6.994  0.00  0.00    +0.000 C 
ATOM     12  C   LIG    1       27.769 -20.021   6.472  0.00  0.00    +0.000 C 
ATOM     13  C   LIG    1       27.635 -19.857   4.960  0.00  0.00    +0.004 C 
ENDBRANCH   1   8
BRANCH   1  14
ATOM     14  C   LIG    1       25.535 -18.210   3.489  0.00  0.00    +0.022 C 
BRANCH  14  15
ATOM     15  C   LIG    1       24.501 -19.049   4.284  0.00  0.00    +0.054 C 
ATOM     16  N   LIG    1       24.582 -20.482   3.967  0.00  0.00    -0.313 NA
ATOM     17  H   LIG    1       24.296 -20.630   3.007  0.00  0.00    +0.122 HD
ATOM     18  C   LIG    1       23.712 -21.261   4.860  0.00  0.00    +0.081 C 
ATOM     19  C   LIG    1       22.254 -20.821   4.776  0.00  0.00    +0.015 C 
ATOM     20  C   LIG    1       22.105 -19.324   5.003  0.00  0.00    +0.003 C 
ATOM     21  C   LIG    1       23.057 -18.546   4.084  0.00  0.00    +0.019 C 
ENDBRANCH  14  15
ENDBRANCH   1  14
TORSDOF 4
ENDMDL
MODEL 5
REMARK VINA RESULT:      -2.2      1.589      4.889
REMARK  Name = *****
REMARK                            x       y       z     vdW  Elec       q    Type
REMARK                         _______ _______ _______ _____ _____    ______ ____
ROOT
ATOM      1  C   LIG    1       26.084 -20.072   4.229  0.00  0.00    -0.003 C 
ENDROOT
BRANCH   1   2
ATOM      2  C   LIG    1       24.935 -21.102   4.661  0.00  0.00    -0.008 C 
ATOM      3  C   LIG    1       24.153 -20.837   5.966  0.00  0.00    +0.004 C 
ATOM      4  C   LIG    1       23.200 -19.651   5.872  0.00  0.00    +0.000 C 
ATOM      5  C   LIG    1       22.120 -19.955   4.845  0.00  0.00    +0.000 C 
ATOM      6  C   LIG    1       22.741 -20.295   3.494  0.00  0.00    +0.000 C 
ATOM      7  C   LIG    1       23.829 -21.372   3.593  0.00  0.00    +0.004 C 
ENDBRANCH   1   2
BRANCH   1   8
ATOM      8  C   LIG    1       26.789 -19.455   5.538  0.00  0.00    -0.008 C 
ATOM      9  C   LIG    1       26.828 -20.346   6.800  0.00  0.00    +0.004 C 
ATOM     10  C   LIG    1       28.106 -21.139   7.061  0.00  0.00    +0.000 C 
ATOM     11  C   LIG    1       29.381 -20.337   6.847  0.00  0.00    +0.000 C 
ATOM     12  C   LIG    1       29.386 -19.608   5.514  0.00  0.00    +0.000 C 
ATOM     13  C   LIG    1       28.142 -18.744   5.314  0.00  0.00    +0.004 C 
ENDBRANCH   1   8
BRANCH   1  14
ATOM     14  C   LIG    1       25.619 -18.902   3.283  0.00  0.00    +0.022 C 
BRANCH  14  15
ATOM     15  C   LIG    1       25.469 -17.455   3.820  0.00  0.00    +0.054 C 
ATOM     16  N   LIG    1       24.107 -16.933   3.642  0.00  0.00    -0.313 NA
ATOM     17  H   LIG    1       23.915 -16.823   2.653  0.00  0.00    +0.122 HD
ATOM     18  C   LIG    1       23.958 -15.633   4.313  0.00  0.00    +0.081 C 
ATOM     19  C   LIG    1       24.953 -14.598   3.797  0.00  0.00    +0.015 C 
ATOM     20  C   LIG    1       26.383 -15.111   3.865  0.00  0.00    +0.003 C 
ATOM     21  C   LIG    1       26.491 -16.486   3.192  0.00  0.00    +0.019 C 
ENDBRANCH  14  15
ENDBRANCH   1  14
TORSDOF 4
ENDMDL
