MODEL 1
REMARK VINA RESULT:      -2.4      0.000      0.000
REMARK  Name = *****
REMARK                            x       y       z     vdW  Elec       q    Type
REMARK                         _______ _______ _______ _____ _____    ______ ____
ROOT
ATOM      1  C   LIG    1       26.785 -15.923   4.035  0.00  0.00    -0.016 C 
ATOM      2  C   LIG    1       25.505 -15.679   3.677  0.00  0.00    -0.011 C 
ATOM      3  C   LIG    1       24.507 -16.778   3.835  0.00  0.00    +0.024 A 
ATOM      4  C   LIG    1       23.247 -16.594   4.438  0.00  0.00    +0.129 A 
ATOM      5  C   LIG    1       22.349 -17.671   4.520  0.00  0.00    +0.046 A 
ATOM      6  C   LIG    1       22.679 -18.925   4.013  0.00  0.00    +0.004 A 
ATOM      7  C   LIG    1       23.906 -19.114   3.393  0.00  0.00    +0.001 A 
ATOM      8  O   LIG    1       22.716 -15.435   4.951  0.00  0.00    -0.487 OA
ATOM      9  C   LIG    1       23.598 -14.379   5.327  0.00  0.00    +0.265 C 
ATOM     10  C   LIG    1       24.153 -13.653   4.130  0.00  0.00    -0.003 A 
ATOM     11  C   LIG    1       23.745 -12.349   3.811  0.00  0.00    +0.007 A 
ATOM     12  C   LIG    1       24.225 -11.724   2.660  0.00  0.00    +0.000 A 
ATOM     13  C   LIG    1       25.101 -12.399   1.812  0.00  0.00    +0.001 A 
ATOM     14  C   LIG    1       25.523 -13.691   2.130  0.00  0.00    +0.009 A 
ATOM     15  C   LIG    1       24.806 -18.050   3.298  0.00  0.00    +0.012 A 
ATOM     16  C   LIG    1       25.074 -14.312   3.302  0.00  0.00    -0.011 A 
ENDROOT
BRANCH   1  17
ATOM     17  C   LIG    1       27.955 -14.962   4.098  0.00  0.00    +0.043 C 
BRANCH  17  18
ATOM     18  C   LIG    1       27.674 -13.774   5.046  0.00  0.00    +0.088 C 
BRANCH  18  20
ATOM     19  C   LIG    1       29.097 -11.857   5.559  0.00  0.00    +0.104 C 
ATOM     20  N   LIG    1       28.211 -12.479   4.572  0.00  0.00    -0.308 NA
ATOM     21  C   LIG    1       28.937 -12.661   3.309  0.00  0.00    +0.104 C 
ENDBRANCH  18  20
ENDBRANCH  17  18
ENDBRANCH   1  17
TORSDOF 3
ENDMDL
MODEL 2
REMARK VINA RESULT:      -0.6      3.345      5.913
REMARK  Name = *****
REMARK                            x       y       z     vdW  Elec       q    Type
REMARK                         _______ _______ _______ _____ _____    ______ ____
ROOT
ATOM      1  C   LIG    1       25.999 -17.734   4.099  0.00  0.00    -0.016 C 
ATOM      2  C   LIG    1       25.952 -19.048   4.409  0.00  0.00    -0.011 C 
ATOM      3  C   LIG    1       27.059 -19.617   5.235  0.00  0.00    +0.024 A 
ATOM      4  C   LIG    1       26.839 -20.442   6.356  0.00  0.00    +0.129 A 
ATOM      5  C   LIG    1       27.934 -20.965   7.061  0.00  0.00    +0.046 A 
ATOM      6  C   LIG    1       29.243 -20.687   6.674  0.00  0.00    +0.004 A 
ATOM      7  C   LIG    1       29.474 -19.898   5.556  0.00  0.00    +0.001 A 
ATOM      8  O   LIG    1       25.638 -20.871   6.866  0.00  0.00    -0.487 OA
ATOM      9  C   LIG    1       24.454 -20.138   6.558  0.00  0.00    +0.265 C 
ATOM     10  C   LIG    1       23.994 -20.375   5.144  0.00  0.00    -0.003 A 
ATOM     11  C   LIG    1       22.842 -21.126   4.867  0.00  0.00    +0.007 A 
ATOM     12  C   LIG    1       22.474 -21.387   3.547  0.00  0.00    +0.000 A 
ATOM     13  C   LIG    1       23.258 -20.915   2.496  0.00  0.00    +0.001 A 
ATOM     14  C   LIG    1       24.398 -20.154   2.764  0.00  0.00    +0.009 A 
ATOM     15  C   LIG    1       28.393 -19.376   4.840  0.00  0.00    +0.012 A 
ATOM     16  C   LIG    1       24.755 -19.858   4.085  0.00  0.00    -0.011 A 
ENDROOT
BRANCH   1  17
ATOM     17  C   LIG    1       24.958 -16.885   3.395  0.00  0.00    +0.043 C 
BRANCH  17  18
ATOM     18  C   LIG    1       25.211 -15.374   3.603  0.00  0.00    +0.088 C 
BRANCH  18  20
ATOM     19  C   LIG    1       26.261 -13.697   2.172  0.00  0.00    +0.104 C 
ATOM     20  N   LIG    1       26.473 -14.883   3.006  0.00  0.00    -0.308 NA
ATOM     21  C   LIG    1       27.448 -14.574   4.059  0.00  0.00    +0.104 C 
ENDBRANCH  18  20
ENDBRANCH  17  18
ENDBRANCH   1  17
TORSDOF 3
ENDMDL
