MODEL 1
REMARK VINA RESULT:      -8.7      0.000      0.000
REMARK  Name = *****
REMARK                            x       y       z     vdW  Elec       q    Type
REMARK                         _______ _______ _______ _____ _____    ______ ____
ROOT
ATOM      1  C   LIG    1       27.761 -19.850   6.486  0.00  0.00    +0.051 C 
ATOM      2  C   LIG    1       26.869 -20.851   6.856  0.00  0.00    -0.012 C 
ATOM      3  C   LIG    1       26.919 -21.824   8.011  0.00  0.00    +0.056 C 
ATOM      4  C   LIG    1       25.605 -21.980   8.807  0.00  0.00    +0.109 C 
ATOM      5  N   LIG    1       24.383 -21.833   8.026  0.00  0.00    -0.311 N 
ATOM      6  H   LIG    1       24.189 -20.847   7.893  0.00  0.00    +0.149 HD
ATOM      7  C   LIG    1       24.317 -22.539   6.830  0.00  0.00    +0.245 C 
ATOM      8  C   LIG    1       24.716 -21.721   5.668  0.00  0.00    +0.049 C 
ATOM      9  C   LIG    1       23.986 -21.684   4.482  0.00  0.00    +0.052 C 
ATOM     10  C   LIG    1       24.387 -20.806   3.482  0.00  0.00    +0.126 C 
ATOM     11  F   LIG    1       23.677 -20.753   2.346  0.00  0.00    -0.205 F 
ATOM     12  C   LIG    1       25.493 -19.954   3.622  0.00  0.00    +0.064 C 
ATOM     13  C   LIG    1       26.225 -20.044   4.813  0.00  0.00    +0.051 C 
ATOM     14  O   LIG    1       24.016 -23.717   6.722  0.00  0.00    -0.270 OA
ATOM     15  C   LIG    1       25.875 -20.926   5.824  0.00  0.00    +0.016 C 
ATOM     16  N   LIG    1       27.338 -19.375   5.255  0.00  0.00    -0.354 NA
ATOM     17  H   LIG    1       27.807 -18.643   4.738  0.00  0.00    +0.166 HD
ENDROOT
BRANCH   1  21
ATOM     18  C   LIG    1       31.292 -18.332   8.407  0.00  0.00    -0.034 A 
ATOM     19  C   LIG    1       30.059 -18.321   9.068  0.00  0.00    +0.005 A 
ATOM     20  C   LIG    1       28.909 -18.810   8.438  0.00  0.00    +0.010 A 
ATOM     21  C   LIG    1       28.966 -19.327   7.135  0.00  0.00    -0.001 A 
ATOM     22  C   LIG    1       30.202 -19.341   6.478  0.00  0.00    +0.010 A 
ATOM     23  C   LIG    1       31.349 -18.840   7.101  0.00  0.00    +0.005 A 
BRANCH  18  24
ATOM     24  C   LIG    1       32.531 -17.778   9.074  0.00  0.00    +0.116 C 
BRANCH  24  26
ATOM     25  C   LIG    1       33.025 -15.656  10.093  0.00  0.00    +0.101 C 
ATOM     26  N   LIG    1       32.649 -16.335   8.862  0.00  0.00    -0.315 NA
ATOM     27  H   LIG    1       33.359 -16.167   8.151  0.00  0.00    +0.122 HD
ENDBRANCH  24  26
ENDBRANCH  18  24
ENDBRANCH   1  21
TORSDOF 3
ENDMDL
MODEL 2
REMARK VINA RESULT:      -8.2      2.589      3.453
REMARK  Name = *****
REMARK                            x       y       z     vdW  Elec       q    Type
REMARK                         _______ _______ _______ _____ _____    ______ ____
ROOT
ATOM      1  C   LIG    1       27.075 -22.212   6.977  0.00  0.00    +0.051 C 
ATOM      2  C   LIG    1       25.691 -22.080   6.990  0.00  0.00    -0.012 C 
ATOM      3  C   LIG    1       24.827 -20.908   7.395  0.00  0.00    +0.056 C 
ATOM      4  C   LIG    1       23.678 -20.562   6.423  0.00  0.00    +0.109 C 
ATOM      5  N   LIG    1       23.090 -21.698   5.723  0.00  0.00    -0.311 N 
ATOM      6  H   LIG    1       23.682 -21.950   4.940  0.00  0.00    +0.149 HD
ATOM      7  C   LIG    1       22.759 -22.805   6.498  0.00  0.00    +0.245 C 
ATOM      8  C   LIG    1       23.820 -23.831   6.500  0.00  0.00    +0.049 C 
ATOM      9  C   LIG    1       23.562 -25.187   6.312  0.00  0.00    +0.052 C 
ATOM     10  C   LIG    1       24.639 -26.063   6.230  0.00  0.00    +0.126 C 
ATOM     11  F   LIG    1       24.397 -27.366   6.031  0.00  0.00    -0.205 F 
ATOM     12  C   LIG    1       25.971 -25.634   6.325  0.00  0.00    +0.064 C 
ATOM     13  C   LIG    1       26.192 -24.270   6.549  0.00  0.00    +0.051 C 
ATOM     14  O   LIG    1       21.737 -22.926   7.154  0.00  0.00    -0.270 OA
ATOM     15  C   LIG    1       25.146 -23.367   6.665  0.00  0.00    +0.016 C 
ATOM     16  N   LIG    1       27.346 -23.541   6.696  0.00  0.00    -0.354 NA
ATOM     17  H   LIG    1       28.277 -23.929   6.631  0.00  0.00    +0.166 HD
ENDROOT
BRANCH   1  21
ATOM     18  C   LIG    1       30.246 -19.406   7.710  0.00  0.00    -0.034 A 
ATOM     19  C   LIG    1       30.211 -20.635   8.378  0.00  0.00    +0.005 A 
ATOM     20  C   LIG    1       29.175 -21.545   8.142  0.00  0.00    +0.010 A 
ATOM     21  C   LIG    1       28.151 -21.249   7.230  0.00  0.00    -0.001 A 
ATOM     22  C   LIG    1       28.189 -20.021   6.560  0.00  0.00    +0.010 A 
ATOM     23  C   LIG    1       29.217 -19.105   6.805  0.00  0.00    +0.005 A 
BRANCH  18  24
ATOM     24  C   LIG    1       31.348 -18.408   7.983  0.00  0.00    +0.116 C 
BRANCH  24  26
ATOM     25  C   LIG    1       32.205 -17.340   9.961  0.00  0.00    +0.101 C 
ATOM     26  N   LIG    1       31.934 -18.612   9.309  0.00  0.00    -0.315 NA
ATOM     27  H   LIG    1       31.279 -19.151   9.874  0.00  0.00    +0.122 HD
ENDBRANCH  24  26
ENDBRANCH  18  24
ENDBRANCH   1  21
TORSDOF 3
ENDMDL
MODEL 3
REMARK VINA RESULT:      -8.1      2.225      3.173
REMARK  Name = *****
REMARK                            x       y       z     vdW  Elec       q    Type
REMARK                         _______ _______ _______ _____ _____    ______ ____
ROOT
ATOM      1  C   LIG    1       27.534 -21.331   6.947  0.00  0.00    +0.051 C 
ATOM      2  C   LIG    1       26.402 -21.016   6.203  0.00  0.00    -0.012 C 
ATOM      3  C   LIG    1       25.943 -19.690   5.642  0.00  0.00    +0.056 C 
ATOM      4  C   LIG    1       25.467 -19.718   4.173  0.00  0.00    +0.109 C 
ATOM      5  N   LIG    1       24.819 -20.955   3.753  0.00  0.00    -0.311 N 
ATOM      6  H   LIG    1       25.528 -21.647   3.539  0.00  0.00    +0.149 HD
ATOM      7  C   LIG    1       23.837 -21.464   4.596  0.00  0.00    +0.245 C 
ATOM      8  C   LIG    1       24.362 -22.490   5.520  0.00  0.00    +0.049 C 
ATOM      9  C   LIG    1       23.718 -23.704   5.746  0.00  0.00    +0.052 C 
ATOM     10  C   LIG    1       24.343 -24.646   6.556  0.00  0.00    +0.126 C 
ATOM     11  F   LIG    1       23.737 -25.823   6.762  0.00  0.00    -0.205 F 
ATOM     12  C   LIG    1       25.594 -24.422   7.150  0.00  0.00    +0.064 C 
ATOM     13  C   LIG    1       26.195 -23.176   6.930  0.00  0.00    +0.051 C 
ATOM     14  O   LIG    1       22.675 -21.093   4.630  0.00  0.00    -0.270 OA
ATOM     15  C   LIG    1       25.593 -22.199   6.151  0.00  0.00    +0.016 C 
ATOM     16  N   LIG    1       27.385 -22.645   7.361  0.00  0.00    -0.354 NA
ATOM     17  H   LIG    1       28.058 -23.141   7.929  0.00  0.00    +0.166 HD
ENDROOT
BRANCH   1  21
ATOM     18  C   LIG    1       30.975 -19.016   8.071  0.00  0.00    -0.034 A 
ATOM     19  C   LIG    1       30.780 -20.302   8.587  0.00  0.00    +0.005 A 
ATOM     20  C   LIG    1       29.656 -21.052   8.224  0.00  0.00    +0.010 A 
ATOM     21  C   LIG    1       28.703 -20.536   7.334  0.00  0.00    -0.001 A 
ATOM     22  C   LIG    1       28.901 -19.251   6.816  0.00  0.00    +0.010 A 
ATOM     23  C   LIG    1       30.018 -18.495   7.189  0.00  0.00    +0.005 A 
BRANCH  18  24
ATOM     24  C   LIG    1       32.174 -18.192   8.483  0.00  0.00    +0.116 C 
BRANCH  24  26
ATOM     25  C   LIG    1       32.620 -16.708  10.323  0.00  0.00    +0.101 C 
ATOM     26  N   LIG    1       32.257 -18.063   9.938  0.00  0.00    -0.315 NA
ATOM     27  H   LIG    1       31.348 -18.298  10.338  0.00  0.00    +0.122 HD
ENDBRANCH  24  26
ENDBRANCH  18  24
ENDBRANCH   1  21
TORSDOF 3
ENDMDL
MODEL 4
REMARK VINA RESULT:      -7.7      4.751      8.777
REMARK  Name = *****
REMARK                            x       y       z     vdW  Elec       q    Type
REMARK                         _______ _______ _______ _____ _____    ______ ____
ROOT
ATOM      1  C   LIG    1       25.499 -24.883   6.656  0.00  0.00    +0.051 C 
ATOM      2  C   LIG    1       24.589 -23.834   6.585  0.00  0.00    -0.012 C 
ATOM      3  C   LIG    1       23.151 -23.820   6.123  0.00  0.00    +0.056 C 
ATOM      4  C   LIG    1       22.164 -23.066   7.042  0.00  0.00    +0.109 C 
ATOM      5  N   LIG    1       22.721 -21.912   7.739  0.00  0.00    -0.311 N 
ATOM      6  H   LIG    1       23.238 -22.231   8.550  0.00  0.00    +0.149 HD
ATOM      7  C   LIG    1       23.459 -21.017   6.973  0.00  0.00    +0.245 C 
ATOM      8  C   LIG    1       24.910 -21.284   7.034  0.00  0.00    +0.049 C 
ATOM      9  C   LIG    1       25.857 -20.283   7.237  0.00  0.00    +0.052 C 
ATOM     10  C   LIG    1       27.190 -20.648   7.379  0.00  0.00    +0.126 C 
ATOM     11  F   LIG    1       28.103 -19.690   7.593  0.00  0.00    -0.205 F 
ATOM     12  C   LIG    1       27.618 -21.983   7.329  0.00  0.00    +0.064 C 
ATOM     13  C   LIG    1       26.645 -22.960   7.087  0.00  0.00    +0.051 C 
ATOM     14  O   LIG    1       22.991 -20.129   6.279  0.00  0.00    -0.270 OA
ATOM     15  C   LIG    1       25.308 -22.636   6.912  0.00  0.00    +0.016 C 
ATOM     16  N   LIG    1       26.727 -24.325   6.973  0.00  0.00    -0.354 NA
ATOM     17  H   LIG    1       27.580 -24.857   7.082  0.00  0.00    +0.166 HD
ENDROOT
BRANCH   1  21
ATOM     18  C   LIG    1       25.044 -29.106   6.006  0.00  0.00    -0.034 A 
ATOM     19  C   LIG    1       25.577 -28.622   7.206  0.00  0.00    +0.005 A 
ATOM     20  C   LIG    1       25.730 -27.246   7.413  0.00  0.00    +0.010 A 
ATOM     21  C   LIG    1       25.349 -26.323   6.428  0.00  0.00    -0.001 A 
ATOM     22  C   LIG    1       24.813 -26.810   5.230  0.00  0.00    +0.010 A 
ATOM     23  C   LIG    1       24.672 -28.185   5.017  0.00  0.00    +0.005 A 
BRANCH  18  24
ATOM     24  C   LIG    1       24.904 -30.593   5.767  0.00  0.00    +0.116 C 
BRANCH  24  26
ATOM     25  C   LIG    1       23.393 -32.449   6.009  0.00  0.00    +0.101 C 
ATOM     26  N   LIG    1       23.503 -31.010   5.818  0.00  0.00    -0.315 NA
ATOM     27  H   LIG    1       23.047 -30.529   6.593  0.00  0.00    +0.122 HD
ENDBRANCH  24  26
ENDBRANCH  18  24
ENDBRANCH   1  21
TORSDOF 3
ENDMDL
MODEL 5
REMARK VINA RESULT:      -7.6      7.346      9.831
REMARK  Name = *****
REMARK                            x       y       z     vdW  Elec       q    Type
REMARK                         _______ _______ _______ _____ _____    ______ ____
ROOT
ATOM      1  C   LIG    1       25.261 -28.279   6.544  0.00  0.00    +0.051 C 
ATOM      2  C   LIG    1       25.535 -29.153   7.591  0.00  0.00    -0.012 C 
ATOM      3  C   LIG    1       25.895 -28.866   9.030  0.00  0.00    +0.056 C 
ATOM      4  C   LIG    1       25.135 -29.699  10.085  0.00  0.00    +0.109 C 
ATOM      5  N   LIG    1       24.785 -31.054   9.673  0.00  0.00    -0.311 N 
ATOM      6  H   LIG    1       23.953 -31.021   9.095  0.00  0.00    +0.149 HD
ATOM      7  C   LIG    1       25.794 -31.809   9.087  0.00  0.00    +0.245 C 
ATOM      8  C   LIG    1       25.759 -31.751   7.612  0.00  0.00    +0.049 C 
ATOM      9  C   LIG    1       25.872 -32.882   6.807  0.00  0.00    +0.052 C 
ATOM     10  C   LIG    1       25.726 -32.737   5.433  0.00  0.00    +0.126 C 
ATOM     11  F   LIG    1       25.815 -33.825   4.655  0.00  0.00    -0.205 F 
ATOM     12  C   LIG    1       25.467 -31.498   4.826  0.00  0.00    +0.064 C 
ATOM     13  C   LIG    1       25.396 -30.377   5.663  0.00  0.00    +0.051 C 
ATOM     14  O   LIG    1       26.658 -32.424   9.692  0.00  0.00    -0.270 OA
ATOM     15  C   LIG    1       25.563 -30.475   7.036  0.00  0.00    +0.016 C 
ATOM     16  N   LIG    1       25.170 -29.050   5.396  0.00  0.00    -0.354 NA
ATOM     17  H   LIG    1       24.985 -28.676   4.475  0.00  0.00    +0.166 HD
ENDROOT
BRANCH   1  21
ATOM     18  C   LIG    1       24.807 -24.008   6.433  0.00  0.00    -0.034 A 
ATOM     19  C   LIG    1       23.759 -24.848   6.039  0.00  0.00    +0.005 A 
ATOM     20  C   LIG    1       23.911 -26.239   6.071  0.00  0.00    +0.010 A 
ATOM     21  C   LIG    1       25.112 -26.822   6.501  0.00  0.00    -0.001 A 
ATOM     22  C   LIG    1       26.157 -25.980   6.898  0.00  0.00    +0.010 A 
ATOM     23  C   LIG    1       26.011 -24.590   6.854  0.00  0.00    +0.005 A 
BRANCH  18  24
ATOM     24  C   LIG    1       24.656 -22.505   6.373  0.00  0.00    +0.116 C 
BRANCH  24  26
ATOM     25  C   LIG    1       24.166 -21.133   4.458  0.00  0.00    +0.101 C 
ATOM     26  N   LIG    1       25.164 -21.969   5.110  0.00  0.00    -0.315 NA
ATOM     27  H   LIG    1       25.997 -21.414   5.304  0.00  0.00    +0.122 HD
ENDBRANCH  24  26
ENDBRANCH  18  24
ENDBRANCH   1  21
TORSDOF 3
ENDMDL
MODEL 6
REMARK VINA RESULT:      -7.3      4.434      8.280
REMARK  Name = *****
REMARK                            x       y       z     vdW  Elec       q    Type
REMARK                         _______ _______ _______ _____ _____    ______ ____
ROOT
ATOM      1  C   LIG    1       24.979 -24.451   5.385  0.00  0.00    +0.051 C 
ATOM      2  C   LIG    1       25.214 -23.488   6.360  0.00  0.00    -0.012 C 
ATOM      3  C   LIG    1       25.508 -23.645   7.834  0.00  0.00    +0.056 C 
ATOM      4  C   LIG    1       26.676 -22.791   8.373  0.00  0.00    +0.109 C 
ATOM      5  N   LIG    1       26.852 -21.496   7.725  0.00  0.00    -0.311 N 
ATOM      6  H   LIG    1       27.348 -21.627   6.850  0.00  0.00    +0.149 HD
ATOM      7  C   LIG    1       25.711 -20.719   7.562  0.00  0.00    +0.245 C 
ATOM      8  C   LIG    1       25.099 -20.885   6.229  0.00  0.00    +0.049 C 
ATOM      9  C   LIG    1       24.680 -19.810   5.449  0.00  0.00    +0.052 C 
ATOM     10  C   LIG    1       24.208 -20.064   4.166  0.00  0.00    +0.126 C 
ATOM     11  F   LIG    1       23.822 -19.032   3.404  0.00  0.00    -0.205 F 
ATOM     12  C   LIG    1       24.141 -21.358   3.628  0.00  0.00    +0.064 C 
ATOM     13  C   LIG    1       24.536 -22.418   4.454  0.00  0.00    +0.051 C 
ATOM     14  O   LIG    1       25.216 -20.005   8.420  0.00  0.00    -0.270 OA
ATOM     15  C   LIG    1       24.986 -22.210   5.748  0.00  0.00    +0.016 C 
ATOM     16  N   LIG    1       24.583 -23.773   4.243  0.00  0.00    -0.354 NA
ATOM     17  H   LIG    1       24.338 -24.224   3.372  0.00  0.00    +0.166 HD
ENDROOT
BRANCH   1  21
ATOM     18  C   LIG    1       25.166 -28.743   5.476  0.00  0.00    -0.034 A 
ATOM     19  C   LIG    1       24.214 -28.053   6.235  0.00  0.00    +0.005 A 
ATOM     20  C   LIG    1       24.158 -26.655   6.208  0.00  0.00    +0.010 A 
ATOM     21  C   LIG    1       25.050 -25.915   5.419  0.00  0.00    -0.001 A 
ATOM     22  C   LIG    1       25.999 -26.606   4.658  0.00  0.00    +0.010 A 
ATOM     23  C   LIG    1       26.064 -28.003   4.694  0.00  0.00    +0.005 A 
BRANCH  18  24
ATOM     24  C   LIG    1       25.247 -30.252   5.525  0.00  0.00    +0.116 C 
BRANCH  24  26
ATOM     25  C   LIG    1       24.042 -32.063   6.551  0.00  0.00    +0.101 C 
ATOM     26  N   LIG    1       23.931 -30.849   5.757  0.00  0.00    -0.315 NA
ATOM     27  H   LIG    1       23.350 -30.172   6.250  0.00  0.00    +0.122 HD
ENDBRANCH  24  26
ENDBRANCH  18  24
ENDBRANCH   1  21
TORSDOF 3
ENDMDL
MODEL 7
REMARK VINA RESULT:      -6.5      7.869     10.637
REMARK  Name = *****
REMARK                            x       y       z     vdW  Elec       q    Type
REMARK                         _______ _______ _______ _____ _____    ______ ____
ROOT
ATOM      1  C   LIG    1       25.359 -28.609   7.393  0.00  0.00    +0.051 C 
ATOM      2  C   LIG    1       25.282 -29.850   6.769  0.00  0.00    -0.012 C 
ATOM      3  C   LIG    1       24.925 -30.203   5.344  0.00  0.00    +0.056 C 
ATOM      4  C   LIG    1       25.859 -31.225   4.659  0.00  0.00    +0.109 C 
ATOM      5  N   LIG    1       26.432 -32.234   5.542  0.00  0.00    -0.311 N 
ATOM      6  H   LIG    1       27.224 -31.835   6.033  0.00  0.00    +0.149 HD
ATOM      7  C   LIG    1       25.555 -32.876   6.410  0.00  0.00    +0.245 C 
ATOM      8  C   LIG    1       25.529 -32.254   7.749  0.00  0.00    +0.049 C 
ATOM      9  C   LIG    1       25.593 -32.993   8.927  0.00  0.00    +0.052 C 
ATOM     10  C   LIG    1       25.663 -32.311  10.137  0.00  0.00    +0.126 C 
ATOM     11  F   LIG    1       25.745 -33.016  11.273  0.00  0.00    -0.205 F 
ATOM     12  C   LIG    1       25.675 -30.910  10.215  0.00  0.00    +0.064 C 
ATOM     13  C   LIG    1       25.572 -30.199   9.012  0.00  0.00    +0.051 C 
ATOM     14  O   LIG    1       24.837 -33.818   6.117  0.00  0.00    -0.270 OA
ATOM     15  C   LIG    1       25.472 -30.842   7.787  0.00  0.00    +0.016 C 
ATOM     16  N   LIG    1       25.547 -28.854   8.743  0.00  0.00    -0.354 NA
ATOM     17  H   LIG    1       25.631 -28.130   9.445  0.00  0.00    +0.166 HD
ENDROOT
BRANCH   1  21
ATOM     18  C   LIG    1       24.995 -24.604   5.878  0.00  0.00    -0.034 A 
ATOM     19  C   LIG    1       24.042 -25.578   5.558  0.00  0.00    +0.005 A 
ATOM     20  C   LIG    1       24.166 -26.883   6.048  0.00  0.00    +0.010 A 
ATOM     21  C   LIG    1       25.242 -27.244   6.872  0.00  0.00    -0.001 A 
ATOM     22  C   LIG    1       26.192 -26.268   7.193  0.00  0.00    +0.010 A 
ATOM     23  C   LIG    1       26.076 -24.967   6.693  0.00  0.00    +0.005 A 
BRANCH  18  24
ATOM     24  C   LIG    1       24.880 -23.201   5.327  0.00  0.00    +0.116 C 
BRANCH  24  26
ATOM     25  C   LIG    1       23.511 -22.231   7.050  0.00  0.00    +0.101 C 
ATOM     26  N   LIG    1       23.581 -22.608   5.647  0.00  0.00    -0.315 NA
ATOM     27  H   LIG    1       23.449 -21.782   5.065  0.00  0.00    +0.122 HD
ENDBRANCH  24  26
ENDBRANCH  18  24
ENDBRANCH   1  21
TORSDOF 3
ENDMDL
MODEL 8
REMARK VINA RESULT:      -6.4      6.448      9.282
REMARK  Name = *****
REMARK                            x       y       z     vdW  Elec       q    Type
REMARK                         _______ _______ _______ _____ _____    ______ ____
ROOT
ATOM      1  C   LIG    1       25.555 -26.825   7.037  0.00  0.00    +0.051 C 
ATOM      2  C   LIG    1       25.049 -28.061   6.650  0.00  0.00    -0.012 C 
ATOM      3  C   LIG    1       24.034 -28.408   5.586  0.00  0.00    +0.056 C 
ATOM      4  C   LIG    1       24.414 -29.588   4.664  0.00  0.00    +0.109 C 
ATOM      5  N   LIG    1       25.205 -30.639   5.293  0.00  0.00    -0.311 N 
ATOM      6  H   LIG    1       26.176 -30.350   5.327  0.00  0.00    +0.149 HD
ATOM      7  C   LIG    1       24.759 -31.104   6.525  0.00  0.00    +0.245 C 
ATOM      8  C   LIG    1       25.431 -30.436   7.658  0.00  0.00    +0.049 C 
ATOM      9  C   LIG    1       25.944 -31.131   8.750  0.00  0.00    +0.052 C 
ATOM     10  C   LIG    1       26.647 -30.422   9.717  0.00  0.00    +0.126 C 
ATOM     11  F   LIG    1       27.160 -31.089  10.761  0.00  0.00    -0.205 F 
ATOM     12  C   LIG    1       26.862 -29.038   9.634  0.00  0.00    +0.064 C 
ATOM     13  C   LIG    1       26.300 -28.367   8.541  0.00  0.00    +0.051 C 
ATOM     14  O   LIG    1       23.880 -31.934   6.690  0.00  0.00    -0.270 OA
ATOM     15  C   LIG    1       25.569 -29.031   7.569  0.00  0.00    +0.016 C 
ATOM     16  N   LIG    1       26.316 -27.044   8.174  0.00  0.00    -0.354 NA
ATOM     17  H   LIG    1       26.801 -26.317   8.681  0.00  0.00    +0.166 HD
ENDROOT
BRANCH   1  21
ATOM     18  C   LIG    1       25.003 -22.883   5.418  0.00  0.00    -0.034 A 
ATOM     19  C   LIG    1       24.701 -24.017   4.655  0.00  0.00    +0.005 A 
ATOM     20  C   LIG    1       24.887 -25.299   5.183  0.00  0.00    +0.010 A 
ATOM     21  C   LIG    1       25.375 -25.479   6.486  0.00  0.00    -0.001 A 
ATOM     22  C   LIG    1       25.673 -24.343   7.248  0.00  0.00    +0.010 A 
ATOM     23  C   LIG    1       25.500 -23.061   6.717  0.00  0.00    +0.005 A 
BRANCH  18  24
ATOM     24  C   LIG    1       24.831 -21.496   4.841  0.00  0.00    +0.116 C 
BRANCH  24  26
ATOM     25  C   LIG    1       22.753 -20.368   5.283  0.00  0.00    +0.101 C 
ATOM     26  N   LIG    1       23.457 -21.274   4.389  0.00  0.00    -0.315 NA
ATOM     27  H   LIG    1       23.484 -20.874   3.452  0.00  0.00    +0.122 HD
ENDBRANCH  24  26
ENDBRANCH  18  24
ENDBRANCH   1  21
TORSDOF 3
ENDMDL
MODEL 9
REMARK VINA RESULT:      -6.3     11.228     12.842
REMARK  Name = *****
REMARK                            x       y       z     vdW  Elec       q    Type
REMARK                         _______ _______ _______ _____ _____    ______ ____
ROOT
ATOM      1  C   LIG    1       23.144 -29.139  11.895  0.00  0.00    +0.051 C 
ATOM      2  C   LIG    1       24.527 -29.028  11.998  0.00  0.00    -0.012 C 
ATOM      3  C   LIG    1       25.370 -28.140  12.884  0.00  0.00    +0.056 C 
ATOM      4  C   LIG    1       26.546 -28.838  13.600  0.00  0.00    +0.109 C 
ATOM      5  N   LIG    1       27.164 -29.932  12.859  0.00  0.00    -0.311 N 
ATOM      6  H   LIG    1       26.599 -30.767  12.966  0.00  0.00    +0.149 HD
ATOM      7  C   LIG    1       27.478 -29.687  11.527  0.00  0.00    +0.245 C 
ATOM      8  C   LIG    1       26.423 -30.151  10.603  0.00  0.00    +0.049 C 
ATOM      9  C   LIG    1       26.696 -30.884   9.451  0.00  0.00    +0.052 C 
ATOM     10  C   LIG    1       25.629 -31.362   8.700  0.00  0.00    +0.126 C 
ATOM     11  F   LIG    1       25.885 -32.084   7.600  0.00  0.00    -0.205 F 
ATOM     12  C   LIG    1       24.291 -31.137   9.058  0.00  0.00    +0.064 C 
ATOM     13  C   LIG    1       24.054 -30.366  10.203  0.00  0.00    +0.051 C 
ATOM     14  O   LIG    1       28.479 -29.111  11.133  0.00  0.00    -0.270 OA
ATOM     15  C   LIG    1       25.090 -29.847  10.964  0.00  0.00    +0.016 C 
ATOM     16  N   LIG    1       22.891 -29.962  10.810  0.00  0.00    -0.354 NA
ATOM     17  H   LIG    1       21.965 -30.214  10.492  0.00  0.00    +0.166 HD
ENDROOT
BRANCH   1  21
ATOM     18  C   LIG    1       19.945 -27.361  14.146  0.00  0.00    -0.034 A 
ATOM     19  C   LIG    1       21.045 -26.596  13.742  0.00  0.00    +0.005 A 
ATOM     20  C   LIG    1       22.089 -27.178  13.014  0.00  0.00    +0.010 A 
ATOM     21  C   LIG    1       22.055 -28.538  12.669  0.00  0.00    -0.001 A 
ATOM     22  C   LIG    1       20.952 -29.300  13.071  0.00  0.00    +0.010 A 
ATOM     23  C   LIG    1       19.915 -28.722  13.810  0.00  0.00    +0.005 A 
BRANCH  18  24
ATOM     24  C   LIG    1       18.830 -26.742  14.958  0.00  0.00    +0.116 C 
BRANCH  24  26
ATOM     25  C   LIG    1       16.587 -26.346  14.183  0.00  0.00    +0.101 C 
ATOM     26  N   LIG    1       17.971 -25.899  14.125  0.00  0.00    -0.315 NA
ATOM     27  H   LIG    1       18.032 -24.939  14.462  0.00  0.00    +0.122 HD
ENDBRANCH  24  26
ENDBRANCH  18  24
ENDBRANCH   1  21
TORSDOF 3
ENDMDL
