MODEL 1
REMARK VINA RESULT:      10.4      0.000      0.000
REMARK  Name = *****
REMARK                            x       y       z     vdW  Elec       q    Type
REMARK                         _______ _______ _______ _____ _____    ______ ____
ROOT
ATOM      1  C   LIG    1       22.924 -15.421   4.380  0.00  0.00    +0.169 C 
ATOM      2  C   LIG    1       23.791 -16.560   3.768  0.00  0.00    +0.175 C 
ATOM      3  C   LIG    1       23.128 -17.959   3.851  0.00  0.00    +0.169 C 
ATOM      4  C   LIG    1       21.599 -17.763   3.585  0.00  0.00    +0.084 C 
ATOM      5  C   LIG    1       20.893 -16.944   4.678  0.00  0.00    +0.042 C 
ATOM      6  C   LIG    1       21.798 -15.875   5.331  0.00  0.00    +0.084 C 
ENDROOT
BRANCH   4   7
ATOM      7  N   LIG    1       20.863 -18.978   3.206  0.00  0.00    -0.325 NA
ATOM      8  H   LIG    1       20.436 -19.398   4.034  0.00  0.00    +0.118 HD
ATOM      9  H   LIG    1       21.473 -19.701   2.834  0.00  0.00    +0.118 HD
ENDBRANCH   4   7
BRANCH   6  10
ATOM     10  N   LIG    1       22.325 -16.338   6.614  0.00  0.00    -0.325 NA
ATOM     11  H   LIG    1       21.585 -16.327   7.316  0.00  0.00    +0.118 HD
ATOM     12  H   LIG    1       23.019 -15.657   6.934  0.00  0.00    +0.118 HD
ENDBRANCH   6  10
BRANCH   2  13
ATOM     13  O   LIG    1       23.986 -16.212   2.367  0.00  0.00    -0.387 OA
ATOM     14  H   LIG    1       23.257 -16.546   1.849  0.00  0.00    +0.210 HD
ENDBRANCH   2  13
BRANCH   1  15
ATOM     15  O   LIG    1       23.688 -14.369   5.013  0.00  0.00    -0.342 OA
BRANCH  15  18
ATOM     16  C   LIG    1       26.203 -12.623   3.789  0.00  0.00    +0.138 C 
ATOM     17  O   LIG    1       25.004 -13.308   3.372  0.00  0.00    -0.345 OA
ATOM     18  C   LIG    1       23.857 -13.150   4.265  0.00  0.00    +0.268 C 
ATOM     19  C   LIG    1       24.039 -11.885   5.182  0.00  0.00    +0.107 C 
ATOM     20  C   LIG    1       25.314 -12.042   6.036  0.00  0.00    +0.026 C 
ATOM     21  C   LIG    1       26.404 -12.811   5.289  0.00  0.00    +0.035 C 
BRANCH  19  22
ATOM     22  N   LIG    1       22.931 -11.447   6.046  0.00  0.00    -0.323 NA
ATOM     23  H   LIG    1       23.166 -10.566   6.491  0.00  0.00    +0.119 HD
ATOM     24  H   LIG    1       22.817 -12.136   6.804  0.00  0.00    +0.119 HD
ENDBRANCH  19  22
BRANCH  16  25
ATOM     25  C   LIG    1       27.458 -13.036   2.962  0.00  0.00    +0.079 C 
ATOM     26  C   LIG    1       28.743 -13.043   3.795  0.00  0.00    +0.026 C 
BRANCH  25  28
ATOM     27  C   LIG    1       26.852 -15.396   3.232  0.00  0.00    +0.101 C 
ATOM     28  N   LIG    1       27.335 -14.364   2.323  0.00  0.00    -0.314 NA
ATOM     29  H   LIG    1       28.261 -14.631   1.978  0.00  0.00    +0.122 HD
ENDBRANCH  25  28
ENDBRANCH  16  25
ENDBRANCH  15  18
ENDBRANCH   1  15
BRANCH   3  30
ATOM     30  O   LIG    1       23.517 -18.548   5.096  0.00  0.00    -0.341 OA
BRANCH  30  31
ATOM     31  C   LIG    1       24.005 -19.878   5.095  0.00  0.00    +0.281 C 
ATOM     32  C   LIG    1       25.266 -20.160   4.224  0.00  0.00    +0.190 C 
ATOM     33  C   LIG    1       26.609 -19.657   4.861  0.00  0.00    +0.121 C 
ATOM     34  C   LIG    1       26.667 -20.062   6.374  0.00  0.00    +0.104 C 
ATOM     35  C   LIG    1       26.939 -21.567   6.536  0.00  0.00    +0.045 C 
ATOM     36  C   LIG    1       25.342 -19.678   7.054  0.00  0.00    +0.199 C 
ATOM     37  O   LIG    1       24.234 -20.329   6.441  0.00  0.00    -0.346 OA
BRANCH  33  38
ATOM     38  N   LIG    1       26.774 -18.195   4.566  0.00  0.00    -0.311 NA
ATOM     39  H   LIG    1       26.443 -18.049   3.611  0.00  0.00    +0.122 HD
ATOM     40  C   LIG    1       28.169 -17.749   4.578  0.00  0.00    +0.101 C 
ENDBRANCH  33  38
BRANCH  32  41
ATOM     41  O   LIG    1       25.362 -21.567   3.929  0.00  0.00    -0.385 OA
ATOM     42  H   LIG    1       26.262 -21.861   4.175  0.00  0.00    +0.210 HD
ENDBRANCH  32  41
BRANCH  34  43
ATOM     43  O   LIG    1       27.762 -19.437   7.062  0.00  0.00    -0.385 OA
ATOM     44  H   LIG    1       27.388 -18.945   7.807  0.00  0.00    +0.210 HD
ENDBRANCH  34  43
ENDBRANCH  30  31
ENDBRANCH   3  30
TORSDOF 13
ENDMDL
MODEL 2
REMARK VINA RESULT:      10.6      2.185      6.383
REMARK  Name = *****
REMARK                            x       y       z     vdW  Elec       q    Type
REMARK                         _______ _______ _______ _____ _____    ______ ____
ROOT
ATOM      1  C   LIG    1       22.973 -18.465   5.106  0.00  0.00    +0.169 C 
ATOM      2  C   LIG    1       22.437 -17.026   5.354  0.00  0.00    +0.175 C 
ATOM      3  C   LIG    1       21.727 -16.406   4.123  0.00  0.00    +0.169 C 
ATOM      4  C   LIG    1       20.916 -17.551   3.431  0.00  0.00    +0.084 C 
ATOM      5  C   LIG    1       21.809 -18.654   2.838  0.00  0.00    +0.042 C 
ATOM      6  C   LIG    1       23.119 -18.880   3.627  0.00  0.00    +0.084 C 
ENDROOT
BRANCH   4   7
ATOM      7  N   LIG    1       19.856 -17.110   2.513  0.00  0.00    -0.325 NA
ATOM      8  H   LIG    1       20.171 -17.207   1.546  0.00  0.00    +0.118 HD
ATOM      9  H   LIG    1       19.640 -16.122   2.617  0.00  0.00    +0.118 HD
ENDBRANCH   4   7
BRANCH   6  10
ATOM     10  N   LIG    1       24.248 -18.209   2.984  0.00  0.00    -0.325 NA
ATOM     11  H   LIG    1       24.513 -18.714   2.139  0.00  0.00    +0.118 HD
ATOM     12  H   LIG    1       25.054 -18.279   3.612  0.00  0.00    +0.118 HD
ENDBRANCH   6  10
BRANCH   2  13
ATOM     13  O   LIG    1       21.479 -17.133   6.447  0.00  0.00    -0.387 OA
ATOM     14  H   LIG    1       20.695 -16.629   6.237  0.00  0.00    +0.210 HD
ENDBRANCH   2  13
BRANCH   1  15
ATOM     15  O   LIG    1       24.199 -18.771   5.810  0.00  0.00    -0.342 OA
BRANCH  15  18
ATOM     16  C   LIG    1       26.712 -20.843   6.324  0.00  0.00    +0.138 C 
ATOM     17  O   LIG    1       25.614 -20.216   7.019  0.00  0.00    -0.345 OA
ATOM     18  C   LIG    1       24.368 -20.129   6.259  0.00  0.00    +0.268 C 
ATOM     19  C   LIG    1       24.363 -21.171   5.082  0.00  0.00    +0.107 C 
ATOM     20  C   LIG    1       25.543 -20.887   4.131  0.00  0.00    +0.026 C 
ATOM     21  C   LIG    1       26.759 -20.343   4.884  0.00  0.00    +0.035 C 
BRANCH  19  22
ATOM     22  N   LIG    1       23.140 -21.366   4.286  0.00  0.00    -0.323 NA
ATOM     23  H   LIG    1       23.325 -22.001   3.517  0.00  0.00    +0.119 HD
ATOM     24  H   LIG    1       22.879 -20.462   3.865  0.00  0.00    +0.119 HD
ENDBRANCH  19  22
BRANCH  16  25
ATOM     25  C   LIG    1       28.075 -20.671   7.061  0.00  0.00    +0.079 C 
ATOM     26  C   LIG    1       29.175 -21.570   6.491  0.00  0.00    +0.026 C 
BRANCH  25  28
ATOM     27  C   LIG    1       29.421 -18.989   5.891  0.00  0.00    +0.101 C 
ATOM     28  N   LIG    1       28.584 -19.283   7.047  0.00  0.00    -0.314 NA
ATOM     29  H   LIG    1       29.134 -19.144   7.899  0.00  0.00    +0.122 HD
ENDBRANCH  25  28
ENDBRANCH  16  25
ENDBRANCH  15  18
ENDBRANCH   1  15
BRANCH   3  30
ATOM     30  O   LIG    1       22.720 -15.730   3.346  0.00  0.00    -0.341 OA
BRANCH  30  31
ATOM     31  C   LIG    1       23.265 -14.521   3.843  0.00  0.00    +0.281 C 
ATOM     32  C   LIG    1       24.530 -14.643   4.745  0.00  0.00    +0.190 C 
ATOM     33  C   LIG    1       25.856 -14.927   3.953  0.00  0.00    +0.121 C 
ATOM     34  C   LIG    1       25.943 -13.985   2.703  0.00  0.00    +0.104 C 
ATOM     35  C   LIG    1       26.283 -12.544   3.117  0.00  0.00    +0.045 C 
ATOM     36  C   LIG    1       24.609 -14.027   1.940  0.00  0.00    +0.199 C 
ATOM     37  O   LIG    1       23.525 -13.607   2.764  0.00  0.00    -0.346 OA
BRANCH  33  38
ATOM     38  N   LIG    1       25.954 -16.398   3.675  0.00  0.00    -0.311 NA
ATOM     39  H   LIG    1       25.467 -16.874   4.437  0.00  0.00    +0.122 HD
ATOM     40  C   LIG    1       27.327 -16.908   3.698  0.00  0.00    +0.101 C 
ENDBRANCH  33  38
BRANCH  32  41
ATOM     41  O   LIG    1       24.685 -13.456   5.547  0.00  0.00    -0.385 OA
ATOM     42  H   LIG    1       24.063 -13.522   6.299  0.00  0.00    +0.210 HD
ENDBRANCH  32  41
BRANCH  34  43
ATOM     43  O   LIG    1       27.016 -14.353   1.821  0.00  0.00    -0.385 OA
ATOM     44  H   LIG    1       27.490 -15.088   2.238  0.00  0.00    +0.210 HD
ENDBRANCH  34  43
ENDBRANCH  30  31
ENDBRANCH   3  30
TORSDOF 13
ENDMDL
MODEL 3
REMARK VINA RESULT:      11.5      1.981      2.798
REMARK  Name = *****
REMARK                            x       y       z     vdW  Elec       q    Type
REMARK                         _______ _______ _______ _____ _____    ______ ____
ROOT
ATOM      1  C   LIG    1       24.277 -14.286   3.123  0.00  0.00    +0.169 C 
ATOM      2  C   LIG    1       23.097 -15.237   2.769  0.00  0.00    +0.175 C 
ATOM      3  C   LIG    1       22.634 -16.122   3.955  0.00  0.00    +0.169 C 
ATOM      4  C   LIG    1       22.712 -15.242   5.246  0.00  0.00    +0.084 C 
ATOM      5  C   LIG    1       24.148 -14.834   5.617  0.00  0.00    +0.042 C 
ATOM      6  C   LIG    1       25.073 -14.651   4.392  0.00  0.00    +0.084 C 
ENDROOT
BRANCH   4   7
ATOM      7  N   LIG    1       21.937 -15.735   6.395  0.00  0.00    -0.325 NA
ATOM      8  H   LIG    1       21.246 -16.419   6.080  0.00  0.00    +0.118 HD
ATOM      9  H   LIG    1       21.392 -15.001   6.838  0.00  0.00    +0.118 HD
ENDBRANCH   4   7
BRANCH   6  10
ATOM     10  N   LIG    1       25.916 -15.829   4.184  0.00  0.00    -0.325 NA
ATOM     11  H   LIG    1       26.890 -15.543   4.090  0.00  0.00    +0.118 HD
ATOM     12  H   LIG    1       25.660 -16.242   3.283  0.00  0.00    +0.118 HD
ENDBRANCH   6  10
BRANCH   2  13
ATOM     13  O   LIG    1       21.993 -14.378   2.361  0.00  0.00    -0.387 OA
ATOM     14  H   LIG    1       21.692 -13.866   3.109  0.00  0.00    +0.210 HD
ENDBRANCH   2  13
BRANCH   1  15
ATOM     15  O   LIG    1       25.198 -14.052   2.032  0.00  0.00    -0.342 OA
BRANCH  15  18
ATOM     16  C   LIG    1       27.272 -11.975   3.535  0.00  0.00    +0.138 C 
ATOM     17  O   LIG    1       27.050 -12.614   2.260  0.00  0.00    -0.345 OA
ATOM     18  C   LIG    1       25.651 -12.698   1.845  0.00  0.00    +0.268 C 
ATOM     19  C   LIG    1       24.778 -11.644   2.619  0.00  0.00    +0.107 C 
ATOM     20  C   LIG    1       24.861 -11.915   4.136  0.00  0.00    +0.026 C 
ATOM     21  C   LIG    1       26.232 -12.461   4.538  0.00  0.00    +0.035 C 
BRANCH  19  22
ATOM     22  N   LIG    1       23.369 -11.447   2.242  0.00  0.00    -0.323 NA
ATOM     23  H   LIG    1       22.808 -11.285   3.072  0.00  0.00    +0.119 HD
ATOM     24  H   LIG    1       23.020 -12.319   1.818  0.00  0.00    +0.119 HD
ENDBRANCH  19  22
BRANCH  16  25
ATOM     25  C   LIG    1       28.731 -12.149   4.056  0.00  0.00    +0.079 C 
ATOM     26  C   LIG    1       28.823 -12.123   5.584  0.00  0.00    +0.026 C 
BRANCH  25  28
ATOM     27  C   LIG    1       28.798 -14.597   4.174  0.00  0.00    +0.101 C 
ATOM     28  N   LIG    1       29.381 -13.394   3.593  0.00  0.00    -0.314 NA
ATOM     29  H   LIG    1       30.369 -13.345   3.851  0.00  0.00    +0.122 HD
ENDBRANCH  25  28
ENDBRANCH  16  25
ENDBRANCH  15  18
ENDBRANCH   1  15
BRANCH   3  30
ATOM     30  O   LIG    1       23.406 -17.327   3.923  0.00  0.00    -0.341 OA
BRANCH  30  31
ATOM     31  C   LIG    1       22.726 -18.569   3.933  0.00  0.00    +0.281 C 
ATOM     32  C   LIG    1       23.548 -19.819   3.497  0.00  0.00    +0.190 C 
ATOM     33  C   LIG    1       24.543 -20.344   4.591  0.00  0.00    +0.121 C 
ATOM     34  C   LIG    1       23.827 -20.395   5.984  0.00  0.00    +0.104 C 
ATOM     35  C   LIG    1       22.839 -21.571   6.058  0.00  0.00    +0.045 C 
ATOM     36  C   LIG    1       23.099 -19.064   6.232  0.00  0.00    +0.199 C 
ATOM     37  O   LIG    1       22.131 -18.804   5.220  0.00  0.00    -0.346 OA
BRANCH  33  38
ATOM     38  N   LIG    1       25.806 -19.536   4.531  0.00  0.00    -0.311 NA
ATOM     39  H   LIG    1       26.163 -19.619   3.578  0.00  0.00    +0.122 HD
ATOM     40  C   LIG    1       26.869 -20.045   5.402  0.00  0.00    +0.101 C 
ENDBRANCH  33  38
BRANCH  32  41
ATOM     41  O   LIG    1       22.660 -20.882   3.094  0.00  0.00    -0.385 OA
ATOM     42  H   LIG    1       22.681 -20.931   2.117  0.00  0.00    +0.210 HD
ENDBRANCH  32  41
BRANCH  34  43
ATOM     43  O   LIG    1       24.746 -20.650   7.058  0.00  0.00    -0.385 OA
ATOM     44  H   LIG    1       25.636 -20.666   6.675  0.00  0.00    +0.210 HD
ENDBRANCH  34  43
ENDBRANCH  30  31
ENDBRANCH   3  30
TORSDOF 13
ENDMDL
MODEL 4
REMARK VINA RESULT:      12.4      2.045      6.439
REMARK  Name = *****
REMARK                            x       y       z     vdW  Elec       q    Type
REMARK                         _______ _______ _______ _____ _____    ______ ____
ROOT
ATOM      1  C   LIG    1       23.092 -18.497   5.144  0.00  0.00    +0.169 C 
ATOM      2  C   LIG    1       22.585 -17.042   5.361  0.00  0.00    +0.175 C 
ATOM      3  C   LIG    1       21.838 -16.454   4.135  0.00  0.00    +0.169 C 
ATOM      4  C   LIG    1       20.988 -17.611   3.514  0.00  0.00    +0.084 C 
ATOM      5  C   LIG    1       21.843 -18.746   2.927  0.00  0.00    +0.042 C 
ATOM      6  C   LIG    1       23.178 -18.964   3.676  0.00  0.00    +0.084 C 
ENDROOT
BRANCH   4   7
ATOM      7  N   LIG    1       19.900 -17.186   2.620  0.00  0.00    -0.325 NA
ATOM      8  H   LIG    1       20.217 -17.215   1.649  0.00  0.00    +0.118 HD
ATOM      9  H   LIG    1       19.628 -16.219   2.774  0.00  0.00    +0.118 HD
ENDBRANCH   4   7
BRANCH   6  10
ATOM     10  N   LIG    1       24.292 -18.333   2.969  0.00  0.00    -0.325 NA
ATOM     11  H   LIG    1       24.458 -18.816   2.087  0.00  0.00    +0.118 HD
ATOM     12  H   LIG    1       25.139 -18.475   3.526  0.00  0.00    +0.118 HD
ENDBRANCH   6  10
BRANCH   2  13
ATOM     13  O   LIG    1       21.667 -17.097   6.491  0.00  0.00    -0.387 OA
ATOM     14  H   LIG    1       21.778 -17.925   6.954  0.00  0.00    +0.210 HD
ENDBRANCH   2  13
BRANCH   1  15
ATOM     15  O   LIG    1       24.340 -18.796   5.813  0.00  0.00    -0.342 OA
BRANCH  15  18
ATOM     16  C   LIG    1       26.923 -20.790   6.286  0.00  0.00    +0.138 C 
ATOM     17  O   LIG    1       25.787 -20.239   6.984  0.00  0.00    -0.345 OA
ATOM     18  C   LIG    1       24.554 -20.166   6.202  0.00  0.00    +0.268 C 
ATOM     19  C   LIG    1       24.615 -21.152   4.979  0.00  0.00    +0.107 C 
ATOM     20  C   LIG    1       25.802 -20.777   4.068  0.00  0.00    +0.026 C 
ATOM     21  C   LIG    1       26.978 -20.222   4.872  0.00  0.00    +0.035 C 
BRANCH  19  22
ATOM     22  N   LIG    1       23.417 -21.356   4.148  0.00  0.00    -0.323 NA
ATOM     23  H   LIG    1       22.581 -21.191   4.699  0.00  0.00    +0.119 HD
ATOM     24  H   LIG    1       23.387 -22.345   3.858  0.00  0.00    +0.119 HD
ENDBRANCH  19  22
BRANCH  16  25
ATOM     25  C   LIG    1       28.263 -20.599   7.059  0.00  0.00    +0.079 C 
ATOM     26  C   LIG    1       29.355 -21.571   6.605  0.00  0.00    +0.026 C 
BRANCH  25  28
ATOM     27  C   LIG    1       29.380 -18.936   5.646  0.00  0.00    +0.101 C 
ATOM     28  N   LIG    1       28.816 -19.231   6.957  0.00  0.00    -0.314 NA
ATOM     29  H   LIG    1       29.550 -19.138   7.663  0.00  0.00    +0.122 HD
ENDBRANCH  25  28
ENDBRANCH  16  25
ENDBRANCH  15  18
ENDBRANCH   1  15
BRANCH   3  30
ATOM     30  O   LIG    1       22.812 -15.821   3.299  0.00  0.00    -0.341 OA
BRANCH  30  31
ATOM     31  C   LIG    1       24.159 -15.782   3.734  0.00  0.00    +0.281 C 
ATOM     32  C   LIG    1       25.161 -14.993   2.838  0.00  0.00    +0.190 C 
ATOM     33  C   LIG    1       25.059 -13.434   2.984  0.00  0.00    +0.121 C 
ATOM     34  C   LIG    1       24.977 -13.042   4.499  0.00  0.00    +0.104 C 
ATOM     35  C   LIG    1       26.342 -13.201   5.188  0.00  0.00    +0.045 C 
ATOM     36  C   LIG    1       23.919 -13.916   5.194  0.00  0.00    +0.199 C 
ATOM     37  O   LIG    1       24.235 -15.300   5.087  0.00  0.00    -0.346 OA
BRANCH  33  38
ATOM     38  N   LIG    1       23.942 -12.934   2.115  0.00  0.00    -0.311 NA
ATOM     39  H   LIG    1       24.148 -13.245   1.164  0.00  0.00    +0.122 HD
ATOM     40  C   LIG    1       23.860 -11.473   2.049  0.00  0.00    +0.101 C 
ENDBRANCH  33  38
BRANCH  32  41
ATOM     41  O   LIG    1       26.511 -15.421   3.107  0.00  0.00    -0.385 OA
ATOM     42  H   LIG    1       26.987 -14.667   3.509  0.00  0.00    +0.210 HD
ENDBRANCH  32  41
BRANCH  34  43
ATOM     43  O   LIG    1       24.655 -11.655   4.684  0.00  0.00    -0.385 OA
ATOM     44  H   LIG    1       24.198 -11.358   3.884  0.00  0.00    +0.210 HD
ENDBRANCH  34  43
ENDBRANCH  30  31
ENDBRANCH   3  30
TORSDOF 13
ENDMDL
MODEL 5
REMARK VINA RESULT:      12.4      2.148      7.140
REMARK  Name = *****
REMARK                            x       y       z     vdW  Elec       q    Type
REMARK                         _______ _______ _______ _____ _____    ______ ____
ROOT
ATOM      1  C   LIG    1       26.286 -17.970   4.534  0.00  0.00    +0.169 C 
ATOM      2  C   LIG    1       26.558 -16.438   4.559  0.00  0.00    +0.175 C 
ATOM      3  C   LIG    1       25.430 -15.595   3.909  0.00  0.00    +0.169 C 
ATOM      4  C   LIG    1       24.070 -16.265   4.295  0.00  0.00    +0.084 C 
ATOM      5  C   LIG    1       23.891 -17.668   3.692  0.00  0.00    +0.042 C 
ATOM      6  C   LIG    1       25.218 -18.444   3.527  0.00  0.00    +0.084 C 
ENDROOT
BRANCH   4   7
ATOM      7  N   LIG    1       22.881 -15.414   4.143  0.00  0.00    -0.325 NA
ATOM      8  H   LIG    1       22.897 -14.666   4.840  0.00  0.00    +0.118 HD
ATOM      9  H   LIG    1       22.017 -15.919   4.326  0.00  0.00    +0.118 HD
ENDBRANCH   4   7
BRANCH   6  10
ATOM     10  N   LIG    1       25.704 -18.377   2.149  0.00  0.00    -0.325 NA
ATOM     11  H   LIG    1       25.004 -17.927   1.558  0.00  0.00    +0.118 HD
ATOM     12  H   LIG    1       25.787 -19.335   1.798  0.00  0.00    +0.118 HD
ENDBRANCH   6  10
BRANCH   2  13
ATOM     13  O   LIG    1       26.671 -16.069   5.964  0.00  0.00    -0.387 OA
ATOM     14  H   LIG    1       26.100 -15.327   6.148  0.00  0.00    +0.210 HD
ENDBRANCH   2  13
BRANCH   1  15
ATOM     15  O   LIG    1       27.475 -18.781   4.385  0.00  0.00    -0.342 OA
BRANCH  15  18
ATOM     16  C   LIG    1       25.332 -20.834   5.822  0.00  0.00    +0.138 C 
ATOM     17  O   LIG    1       25.878 -20.508   4.528  0.00  0.00    -0.345 OA
ATOM     18  C   LIG    1       27.308 -20.205   4.516  0.00  0.00    +0.268 C 
ATOM     19  C   LIG    1       28.009 -20.791   5.796  0.00  0.00    +0.107 C 
ATOM     20  C   LIG    1       27.382 -20.171   7.062  0.00  0.00    +0.026 C 
ATOM     21  C   LIG    1       25.893 -19.878   6.870  0.00  0.00    +0.035 C 
BRANCH  19  22
ATOM     22  N   LIG    1       29.475 -20.741   5.912  0.00  0.00    -0.323 NA
ATOM     23  H   LIG    1       29.741 -20.529   6.868  0.00  0.00    +0.119 HD
ATOM     24  H   LIG    1       29.821 -19.963   5.332  0.00  0.00    +0.119 HD
ENDBRANCH  19  22
BRANCH  16  25
ATOM     25  C   LIG    1       23.774 -20.881   5.831  0.00  0.00    +0.079 C 
ATOM     26  C   LIG    1       23.145 -19.629   6.448  0.00  0.00    +0.026 C 
BRANCH  25  28
ATOM     27  C   LIG    1       21.793 -21.508   4.530  0.00  0.00    +0.101 C 
ATOM     28  N   LIG    1       23.180 -21.062   4.489  0.00  0.00    -0.314 NA
ATOM     29  H   LIG    1       23.739 -21.759   3.992  0.00  0.00    +0.122 HD
ENDBRANCH  25  28
ENDBRANCH  16  25
ENDBRANCH  15  18
ENDBRANCH   1  15
BRANCH   3  30
ATOM     30  O   LIG    1       25.736 -15.466   2.516  0.00  0.00    -0.341 OA
BRANCH  30  31
ATOM     31  C   LIG    1       26.337 -14.267   2.062  0.00  0.00    +0.281 C 
ATOM     32  C   LIG    1       25.796 -12.938   2.671  0.00  0.00    +0.190 C 
ATOM     33  C   LIG    1       26.301 -12.651   4.129  0.00  0.00    +0.121 C 
ATOM     34  C   LIG    1       27.842 -12.918   4.224  0.00  0.00    +0.104 C 
ATOM     35  C   LIG    1       28.642 -11.803   3.530  0.00  0.00    +0.045 C 
ATOM     36  C   LIG    1       28.162 -14.283   3.592  0.00  0.00    +0.199 C 
ATOM     37  O   LIG    1       27.765 -14.330   2.225  0.00  0.00    -0.346 OA
BRANCH  33  38
ATOM     38  N   LIG    1       25.442 -13.406   5.101  0.00  0.00    -0.311 NA
ATOM     39  H   LIG    1       25.193 -14.287   4.650  0.00  0.00    +0.122 HD
ATOM     40  C   LIG    1       24.174 -12.738   5.403  0.00  0.00    +0.101 C 
ENDBRANCH  33  38
BRANCH  32  41
ATOM     41  O   LIG    1       26.125 -11.828   1.812  0.00  0.00    -0.385 OA
ATOM     42  H   LIG    1       26.084 -11.013   2.353  0.00  0.00    +0.210 HD
ENDBRANCH  32  41
BRANCH  34  43
ATOM     43  O   LIG    1       28.315 -12.890   5.579  0.00  0.00    -0.385 OA
ATOM     44  H   LIG    1       27.753 -12.270   6.066  0.00  0.00    +0.210 HD
ENDBRANCH  34  43
ENDBRANCH  30  31
ENDBRANCH   3  30
TORSDOF 13
ENDMDL
