MODEL 1
REMARK VINA RESULT:      -7.1      0.000      0.000
REMARK  Name = *****
REMARK                            x       y       z     vdW  Elec       q    Type
REMARK                         _______ _______ _______ _____ _____    ______ ____
ROOT
ATOM      1  C   LIG    1       25.156 -30.617   8.990  0.00  0.00    +0.165 C 
ATOM      2  C   LIG    1       24.800 -30.464  10.520  0.00  0.00    +0.012 C 
ATOM      3  C   LIG    1       23.271 -30.470  10.637  0.00  0.00    +0.015 C 
ATOM      4  C   LIG    1       25.500 -29.128  10.896  0.00  0.00    +0.007 C 
ATOM      5  C   LIG    1       25.953 -28.953  12.370  0.00  0.00    +0.034 C 
ATOM      6  C   LIG    1       25.116 -29.722  13.416  0.00  0.00    +0.153 C 
ATOM      7  F   LIG    1       25.973 -29.725  14.533  0.00  0.00    -0.238 F 
ATOM      8  C   LIG    1       25.102 -31.235  13.006  0.00  0.00    +0.154 C 
ATOM      9  C   LIG    1       23.808 -28.950  13.960  0.00  0.00    +0.044 C 
ATOM     10  C   LIG    1       23.703 -29.157  15.500  0.00  0.00    +0.023 C 
ATOM     11  C   LIG    1       23.988 -27.439  13.715  0.00  0.00    -0.053 C 
ATOM     12  C   LIG    1       23.013 -26.613  13.294  0.00  0.00    +0.051 C 
ATOM     13  C   LIG    1       21.658 -27.110  12.987  0.00  0.00    +0.179 C 
ATOM     14  O   LIG    1       20.756 -26.349  12.664  0.00  0.00    -0.288 OA
ATOM     15  C   LIG    1       21.452 -28.567  13.061  0.00  0.00    +0.047 C 
ATOM     16  C   LIG    1       25.390 -26.924  13.865  0.00  0.00    +0.032 C 
ATOM     17  C   LIG    1       22.431 -29.386  13.480  0.00  0.00    -0.009 C 
ATOM     18  C   LIG    1       26.218 -27.464  12.708  0.00  0.00    +0.011 C 
ATOM     19  C   LIG    1       26.775 -29.077   9.999  0.00  0.00    +0.039 C 
ATOM     20  C   LIG    1       25.334 -31.552  11.490  0.00  0.00    +0.044 C 
ATOM     21  C   LIG    1       26.571 -30.066   8.866  0.00  0.00    +0.162 C 
ATOM     22  O   LIG    1       27.401 -31.223   8.981  0.00  0.00    -0.342 OA
ATOM     23  C   LIG    1       26.631 -32.234   8.328  0.00  0.00    +0.172 C 
ATOM     24  C   LIG    1       26.915 -32.250   6.823  0.00  0.00    +0.065 C 
ATOM     25  C   LIG    1       28.256 -32.967   6.698  0.00  0.00    +0.005 C 
ATOM     26  C   LIG    1       28.390 -33.825   7.958  0.00  0.00    +0.005 C 
ATOM     27  C   LIG    1       27.093 -33.626   8.742  0.00  0.00    +0.065 C 
ATOM     28  O   LIG    1       25.251 -31.989   8.592  0.00  0.00    -0.331 OA
ENDROOT
BRANCH   1  29
ATOM     29  C   LIG    1       24.260 -29.778   8.019  0.00  0.00    +0.205 C 
ATOM     30  O   LIG    1       23.164 -30.210   7.636  0.00  0.00    -0.291 OA
BRANCH  29  31
ATOM     31  C   LIG    1       24.786 -28.427   7.513  0.00  0.00    +0.309 C 
BRANCH  31  32
ATOM     32  O   LIG    1       24.197 -28.108   6.244  0.00  0.00    -0.457 OA
BRANCH  32  34
ATOM     33  C   LIG    1       25.765 -26.760   5.125  0.00  0.00    +0.136 C 
ATOM     34  C   LIG    1       24.422 -26.829   5.809  0.00  0.00    +0.304 C 
ATOM     35  O   LIG    1       23.710 -25.871   6.021  0.00  0.00    -0.251 OA
ENDBRANCH  32  34
ENDBRANCH  31  32
ENDBRANCH  29  31
ENDBRANCH   1  29
BRANCH   8  36
ATOM     36  O   LIG    1       23.981 -31.963  13.499  0.00  0.00    -0.389 OA
ATOM     37  H   LIG    1       23.257 -31.841  12.856  0.00  0.00    +0.210 HD
ENDBRANCH   8  36
TORSDOF 5
ENDMDL
MODEL 2
REMARK VINA RESULT:      -6.3      2.285      3.325
REMARK  Name = *****
REMARK                            x       y       z     vdW  Elec       q    Type
REMARK                         _______ _______ _______ _____ _____    ______ ____
ROOT
ATOM      1  C   LIG    1       24.924 -30.773   8.062  0.00  0.00    +0.165 C 
ATOM      2  C   LIG    1       23.963 -31.135   9.259  0.00  0.00    +0.012 C 
ATOM      3  C   LIG    1       23.154 -29.876   9.594  0.00  0.00    +0.015 C 
ATOM      4  C   LIG    1       24.957 -31.609  10.356  0.00  0.00    +0.007 C 
ATOM      5  C   LIG    1       24.434 -32.635  11.396  0.00  0.00    +0.034 C 
ATOM      6  C   LIG    1       22.918 -32.569  11.687  0.00  0.00    +0.153 C 
ATOM      7  F   LIG    1       22.679 -33.819  12.289  0.00  0.00    -0.238 F 
ATOM      8  C   LIG    1       22.157 -32.709  10.322  0.00  0.00    +0.154 C 
ATOM      9  C   LIG    1       22.478 -31.521  12.831  0.00  0.00    +0.044 C 
ATOM     10  C   LIG    1       21.395 -32.184  13.734  0.00  0.00    +0.023 C 
ATOM     11  C   LIG    1       23.697 -31.224  13.726  0.00  0.00    -0.053 C 
ATOM     12  C   LIG    1       24.013 -30.006  14.204  0.00  0.00    +0.051 C 
ATOM     13  C   LIG    1       23.213 -28.813  13.870  0.00  0.00    +0.179 C 
ATOM     14  O   LIG    1       23.465 -27.718  14.355  0.00  0.00    -0.288 OA
ATOM     15  C   LIG    1       22.116 -28.997  12.904  0.00  0.00    +0.047 C 
ATOM     16  C   LIG    1       24.622 -32.382  13.959  0.00  0.00    +0.032 C 
ATOM     17  C   LIG    1       21.807 -30.215  12.429  0.00  0.00    -0.009 C 
ATOM     18  C   LIG    1       25.340 -32.684  12.651  0.00  0.00    +0.011 C 
ATOM     19  C   LIG    1       26.126 -32.282   9.574  0.00  0.00    +0.039 C 
ATOM     20  C   LIG    1       22.944 -32.284   9.036  0.00  0.00    +0.044 C 
ATOM     21  C   LIG    1       26.039 -31.809   8.134  0.00  0.00    +0.162 C 
ATOM     22  O   LIG    1       25.614 -32.835   7.236  0.00  0.00    -0.342 OA
ATOM     23  C   LIG    1       24.960 -32.101   6.199  0.00  0.00    +0.172 C 
ATOM     24  C   LIG    1       25.962 -31.658   5.129  0.00  0.00    +0.065 C 
ATOM     25  C   LIG    1       26.210 -32.915   4.300  0.00  0.00    +0.005 C 
ATOM     26  C   LIG    1       24.980 -33.801   4.505  0.00  0.00    +0.005 C 
ATOM     27  C   LIG    1       24.030 -33.001   5.396  0.00  0.00    +0.065 C 
ATOM     28  O   LIG    1       24.302 -30.981   6.788  0.00  0.00    -0.331 OA
ENDROOT
BRANCH   1  29
ATOM     29  C   LIG    1       25.607 -29.369   8.167  0.00  0.00    +0.205 C 
ATOM     30  O   LIG    1       26.372 -29.104   9.103  0.00  0.00    -0.291 OA
BRANCH  29  31
ATOM     31  C   LIG    1       25.272 -28.307   7.109  0.00  0.00    +0.309 C 
BRANCH  31  32
ATOM     32  O   LIG    1       26.014 -27.104   7.360  0.00  0.00    -0.457 OA
BRANCH  32  34
ATOM     33  C   LIG    1       25.734 -24.959   6.441  0.00  0.00    +0.136 C 
ATOM     34  C   LIG    1       26.284 -26.350   6.249  0.00  0.00    +0.304 C 
ATOM     35  O   LIG    1       26.794 -26.752   5.225  0.00  0.00    -0.251 OA
ENDBRANCH  32  34
ENDBRANCH  31  32
ENDBRANCH  29  31
ENDBRANCH   1  29
BRANCH   8  36
ATOM     36  O   LIG    1       20.854 -32.135  10.320  0.00  0.00    -0.389 OA
ATOM     37  H   LIG    1       20.307 -32.667  10.927  0.00  0.00    +0.210 HD
ENDBRANCH   8  36
TORSDOF 5
ENDMDL
MODEL 3
REMARK VINA RESULT:      -6.3      3.820      6.813
REMARK  Name = *****
REMARK                            x       y       z     vdW  Elec       q    Type
REMARK                         _______ _______ _______ _____ _____    ______ ____
ROOT
ATOM      1  C   LIG    1       21.277 -29.399  13.628  0.00  0.00    +0.165 C 
ATOM      2  C   LIG    1       22.843 -29.475  13.811  0.00  0.00    +0.012 C 
ATOM      3  C   LIG    1       23.221 -28.490  14.923  0.00  0.00    +0.015 C 
ATOM      4  C   LIG    1       23.365 -29.123  12.390  0.00  0.00    +0.007 C 
ATOM      5  C   LIG    1       24.740 -29.708  11.972  0.00  0.00    +0.034 C 
ATOM      6  C   LIG    1       25.730 -29.967  13.130  0.00  0.00    +0.153 C 
ATOM      7  F   LIG    1       26.653 -30.849  12.536  0.00  0.00    -0.238 F 
ATOM      8  C   LIG    1       25.017 -30.892  14.177  0.00  0.00    +0.154 C 
ATOM      9  C   LIG    1       26.645 -28.708  13.553  0.00  0.00    +0.044 C 
ATOM     10  C   LIG    1       28.100 -29.204  13.804  0.00  0.00    +0.023 C 
ATOM     11  C   LIG    1       26.699 -27.717  12.374  0.00  0.00    -0.053 C 
ATOM     12  C   LIG    1       26.640 -26.379  12.501  0.00  0.00    +0.051 C 
ATOM     13  C   LIG    1       26.477 -25.732  13.817  0.00  0.00    +0.179 C 
ATOM     14  O   LIG    1       26.485 -24.515  13.937  0.00  0.00    -0.288 OA
ATOM     15  C   LIG    1       26.275 -26.623  14.974  0.00  0.00    +0.047 C 
ATOM     16  C   LIG    1       26.706 -28.339  11.009  0.00  0.00    +0.032 C 
ATOM     17  C   LIG    1       26.333 -27.958  14.841  0.00  0.00    -0.009 C 
ATOM     18  C   LIG    1       25.334 -28.949  10.760  0.00  0.00    +0.011 C 
ATOM     19  C   LIG    1       22.291 -29.693  11.415  0.00  0.00    +0.039 C 
ATOM     20  C   LIG    1       23.451 -30.851  14.196  0.00  0.00    +0.044 C 
ATOM     21  C   LIG    1       21.027 -29.930  12.222  0.00  0.00    +0.162 C 
ATOM     22  O   LIG    1       20.747 -31.317  12.423  0.00  0.00    -0.342 OA
ATOM     23  C   LIG    1       20.039 -31.322  13.665  0.00  0.00    +0.172 C 
ATOM     24  C   LIG    1       18.539 -31.110  13.439  0.00  0.00    +0.065 C 
ATOM     25  C   LIG    1       18.032 -32.468  12.963  0.00  0.00    +0.005 C 
ATOM     26  C   LIG    1       19.038 -33.496  13.484  0.00  0.00    +0.005 C 
ATOM     27  C   LIG    1       20.062 -32.706  14.300  0.00  0.00    +0.065 C 
ATOM     28  O   LIG    1       20.587 -30.302  14.499  0.00  0.00    -0.331 OA
ENDROOT
BRANCH   1  29
ATOM     29  C   LIG    1       20.678 -27.954  13.676  0.00  0.00    +0.205 C 
ATOM     30  O   LIG    1       21.000 -27.106  12.833  0.00  0.00    -0.291 OA
BRANCH  29  31
ATOM     31  C   LIG    1       19.720 -27.592  14.820  0.00  0.00    +0.309 C 
BRANCH  31  32
ATOM     32  O   LIG    1       18.358 -27.724  14.387  0.00  0.00    -0.457 OA
BRANCH  32  34
ATOM     33  C   LIG    1       16.327 -26.667  14.923  0.00  0.00    +0.136 C 
ATOM     34  C   LIG    1       17.676 -26.543  14.259  0.00  0.00    +0.304 C 
ATOM     35  O   LIG    1       18.045 -25.575  13.629  0.00  0.00    -0.251 OA
ENDBRANCH  32  34
ENDBRANCH  31  32
ENDBRANCH  29  31
ENDBRANCH   1  29
BRANCH   8  36
ATOM     36  O   LIG    1       25.533 -30.781  15.500  0.00  0.00    -0.389 OA
ATOM     37  H   LIG    1       25.241 -29.918  15.848  0.00  0.00    +0.210 HD
ENDBRANCH   8  36
TORSDOF 5
ENDMDL
MODEL 4
REMARK VINA RESULT:      -6.0      2.564      5.258
REMARK  Name = *****
REMARK                            x       y       z     vdW  Elec       q    Type
REMARK                         _______ _______ _______ _____ _____    ______ ____
ROOT
ATOM      1  C   LIG    1       22.634 -31.757  10.535  0.00  0.00    +0.165 C 
ATOM      2  C   LIG    1       23.250 -30.651  11.477  0.00  0.00    +0.012 C 
ATOM      3  C   LIG    1       24.150 -29.761  10.612  0.00  0.00    +0.015 C 
ATOM      4  C   LIG    1       23.979 -31.499  12.558  0.00  0.00    +0.007 C 
ATOM      5  C   LIG    1       24.137 -30.871  13.968  0.00  0.00    +0.034 C 
ATOM      6  C   LIG    1       24.207 -29.328  14.003  0.00  0.00    +0.153 C 
ATOM      7  F   LIG    1       23.921 -29.051  15.353  0.00  0.00    -0.238 F 
ATOM      8  C   LIG    1       22.934 -28.770  13.275  0.00  0.00    +0.154 C 
ATOM      9  C   LIG    1       25.677 -28.697  13.802  0.00  0.00    +0.044 C 
ATOM     10  C   LIG    1       25.865 -27.524  14.809  0.00  0.00    +0.023 C 
ATOM     11  C   LIG    1       26.728 -29.769  14.153  0.00  0.00    -0.053 C 
ATOM     12  C   LIG    1       27.867 -29.973  13.466  0.00  0.00    +0.051 C 
ATOM     13  C   LIG    1       28.196 -29.187  12.262  0.00  0.00    +0.179 C 
ATOM     14  O   LIG    1       29.260 -29.331  11.675  0.00  0.00    -0.288 OA
ATOM     15  C   LIG    1       27.171 -28.242  11.785  0.00  0.00    +0.047 C 
ATOM     16  C   LIG    1       26.356 -30.693  15.276  0.00  0.00    +0.032 C 
ATOM     17  C   LIG    1       26.035 -28.044  12.474  0.00  0.00    -0.009 C 
ATOM     18  C   LIG    1       25.230 -31.596  14.792  0.00  0.00    +0.011 C 
ATOM     19  C   LIG    1       23.115 -32.788  12.706  0.00  0.00    +0.039 C 
ATOM     20  C   LIG    1       22.261 -29.713  12.220  0.00  0.00    +0.044 C 
ATOM     21  C   LIG    1       22.232 -32.886  11.475  0.00  0.00    +0.162 C 
ATOM     22  O   LIG    1       20.855 -32.625  11.756  0.00  0.00    -0.342 OA
ATOM     23  C   LIG    1       20.373 -32.097  10.519  0.00  0.00    +0.172 C 
ATOM     24  C   LIG    1       19.912 -33.222   9.587  0.00  0.00    +0.065 C 
ATOM     25  C   LIG    1       18.544 -33.627  10.131  0.00  0.00    +0.005 C 
ATOM     26  C   LIG    1       18.024 -32.411  10.901  0.00  0.00    +0.005 C 
ATOM     27  C   LIG    1       19.079 -31.319  10.725  0.00  0.00    +0.065 C 
ATOM     28  O   LIG    1       21.414 -31.325   9.922  0.00  0.00    -0.331 OA
ENDROOT
BRANCH   1  29
ATOM     29  C   LIG    1       23.634 -32.369   9.498  0.00  0.00    +0.205 C 
ATOM     30  O   LIG    1       24.578 -33.079   9.871  0.00  0.00    -0.291 OA
BRANCH  29  31
ATOM     31  C   LIG    1       23.450 -32.034   8.011  0.00  0.00    +0.309 C 
BRANCH  31  32
ATOM     32  O   LIG    1       24.562 -31.263   7.534  0.00  0.00    -0.457 OA
BRANCH  32  34
ATOM     33  C   LIG    1       25.051 -28.987   7.203  0.00  0.00    +0.136 C 
ATOM     34  C   LIG    1       24.226 -30.175   6.773  0.00  0.00    +0.304 C 
ATOM     35  O   LIG    1       23.338 -30.132   5.949  0.00  0.00    -0.251 OA
ENDBRANCH  32  34
ENDBRANCH  31  32
ENDBRANCH  29  31
ENDBRANCH   1  29
BRANCH   8  36
ATOM     36  O   LIG    1       23.097 -27.461  12.738  0.00  0.00    -0.389 OA
ATOM     37  H   LIG    1       24.018 -27.392  12.427  0.00  0.00    +0.210 HD
ENDBRANCH   8  36
TORSDOF 5
ENDMDL
MODEL 5
REMARK VINA RESULT:      -5.9      2.033      4.872
REMARK  Name = *****
REMARK                            x       y       z     vdW  Elec       q    Type
REMARK                         _______ _______ _______ _____ _____    ______ ____
ROOT
ATOM      1  C   LIG    1       25.604 -30.421   9.041  0.00  0.00    +0.165 C 
ATOM      2  C   LIG    1       25.881 -29.782  10.458  0.00  0.00    +0.012 C 
ATOM      3  C   LIG    1       27.170 -30.411  10.999  0.00  0.00    +0.015 C 
ATOM      4  C   LIG    1       24.582 -30.126  11.240  0.00  0.00    +0.007 C 
ATOM      5  C   LIG    1       24.166 -29.164  12.385  0.00  0.00    +0.034 C 
ATOM      6  C   LIG    1       25.328 -28.420  13.081  0.00  0.00    +0.153 C 
ATOM      7  F   LIG    1       24.656 -27.365  13.727  0.00  0.00    -0.238 F 
ATOM      8  C   LIG    1       26.147 -27.664  11.977  0.00  0.00    +0.154 C 
ATOM      9  C   LIG    1       26.026 -29.212  14.300  0.00  0.00    +0.044 C 
ATOM     10  C   LIG    1       26.288 -28.213  15.466  0.00  0.00    +0.023 C 
ATOM     11  C   LIG    1       25.043 -30.277  14.826  0.00  0.00    -0.053 C 
ATOM     12  C   LIG    1       25.395 -31.521  15.197  0.00  0.00    +0.051 C 
ATOM     13  C   LIG    1       26.789 -31.995  15.094  0.00  0.00    +0.179 C 
ATOM     14  O   LIG    1       27.118 -33.105  15.490  0.00  0.00    -0.288 OA
ATOM     15  C   LIG    1       27.757 -31.078  14.466  0.00  0.00    +0.047 C 
ATOM     16  C   LIG    1       23.595 -29.887  14.798  0.00  0.00    +0.032 C 
ATOM     17  C   LIG    1       27.399 -29.838  14.096  0.00  0.00    -0.009 C 
ATOM     18  C   LIG    1       23.148 -29.831  13.344  0.00  0.00    +0.011 C 
ATOM     19  C   LIG    1       23.450 -30.104  10.169  0.00  0.00    +0.039 C 
ATOM     20  C   LIG    1       26.063 -28.242  10.524  0.00  0.00    +0.044 C 
ATOM     21  C   LIG    1       24.113 -30.210   8.807  0.00  0.00    +0.162 C 
ATOM     22  O   LIG    1       24.051 -28.993   8.062  0.00  0.00    -0.342 OA
ATOM     23  C   LIG    1       25.220 -29.060   7.243  0.00  0.00    +0.172 C 
ATOM     24  C   LIG    1       24.931 -29.808   5.938  0.00  0.00    +0.065 C 
ATOM     25  C   LIG    1       24.192 -28.790   5.075  0.00  0.00    +0.005 C 
ATOM     26  C   LIG    1       24.597 -27.416   5.611  0.00  0.00    +0.005 C 
ATOM     27  C   LIG    1       25.607 -27.680   6.727  0.00  0.00    +0.065 C 
ATOM     28  O   LIG    1       26.255 -29.701   7.988  0.00  0.00    -0.331 OA
ENDROOT
BRANCH   1  29
ATOM     29  C   LIG    1       25.860 -31.962   8.953  0.00  0.00    +0.205 C 
ATOM     30  O   LIG    1       25.153 -32.759   9.585  0.00  0.00    -0.291 OA
BRANCH  29  31
ATOM     31  C   LIG    1       27.036 -32.466   8.104  0.00  0.00    +0.309 C 
BRANCH  31  32
ATOM     32  O   LIG    1       26.601 -32.736   6.764  0.00  0.00    -0.457 OA
BRANCH  32  34
ATOM     33  C   LIG    1       27.002 -33.380   4.538  0.00  0.00    +0.136 C 
ATOM     34  C   LIG    1       27.591 -33.135   5.905  0.00  0.00    +0.304 C 
ATOM     35  O   LIG    1       28.745 -33.356   6.205  0.00  0.00    -0.251 OA
ENDBRANCH  32  34
ENDBRANCH  31  32
ENDBRANCH  29  31
ENDBRANCH   1  29
BRANCH   8  36
ATOM     36  O   LIG    1       27.501 -27.405  12.332  0.00  0.00    -0.389 OA
ATOM     37  H   LIG    1       27.490 -26.706  13.012  0.00  0.00    +0.210 HD
ENDBRANCH   8  36
TORSDOF 5
ENDMDL
MODEL 6
REMARK VINA RESULT:      -5.7      2.544      4.307
REMARK  Name = *****
REMARK                            x       y       z     vdW  Elec       q    Type
REMARK                         _______ _______ _______ _____ _____    ______ ____
ROOT
ATOM      1  C   LIG    1       25.160 -31.142   8.608  0.00  0.00    +0.165 C 
ATOM      2  C   LIG    1       23.938 -31.298   9.594  0.00  0.00    +0.012 C 
ATOM      3  C   LIG    1       23.445 -29.888   9.939  0.00  0.00    +0.015 C 
ATOM      4  C   LIG    1       24.558 -32.102  10.772  0.00  0.00    +0.007 C 
ATOM      5  C   LIG    1       23.604 -33.006  11.596  0.00  0.00    +0.034 C 
ATOM      6  C   LIG    1       22.133 -32.538  11.655  0.00  0.00    +0.153 C 
ATOM      7  F   LIG    1       21.469 -33.709  12.068  0.00  0.00    -0.238 F 
ATOM      8  C   LIG    1       21.620 -32.370  10.182  0.00  0.00    +0.154 C 
ATOM      9  C   LIG    1       21.788 -31.486  12.827  0.00  0.00    +0.044 C 
ATOM     10  C   LIG    1       20.425 -31.878  13.472  0.00  0.00    +0.023 C 
ATOM     11  C   LIG    1       22.861 -31.601  13.927  0.00  0.00    -0.053 C 
ATOM     12  C   LIG    1       23.396 -30.554  14.582  0.00  0.00    +0.051 C 
ATOM     13  C   LIG    1       23.013 -29.165  14.265  0.00  0.00    +0.179 C 
ATOM     14  O   LIG    1       23.454 -28.219  14.903  0.00  0.00    -0.288 OA
ATOM     15  C   LIG    1       22.098 -28.972  13.126  0.00  0.00    +0.047 C 
ATOM     16  C   LIG    1       23.390 -32.984  14.169  0.00  0.00    +0.032 C 
ATOM     17  C   LIG    1       21.569 -30.021  12.475  0.00  0.00    -0.009 C 
ATOM     18  C   LIG    1       24.225 -33.388  12.963  0.00  0.00    +0.011 C 
ATOM     19  C   LIG    1       25.629 -33.022  10.109  0.00  0.00    +0.039 C 
ATOM     20  C   LIG    1       22.709 -32.099   9.088  0.00  0.00    +0.044 C 
ATOM     21  C   LIG    1       25.930 -32.450   8.735  0.00  0.00    +0.162 C 
ATOM     22  O   LIG    1       25.417 -33.256   7.673  0.00  0.00    -0.342 OA
ATOM     23  C   LIG    1       25.177 -32.302   6.637  0.00  0.00    +0.172 C 
ATOM     24  C   LIG    1       26.435 -32.087   5.790  0.00  0.00    +0.065 C 
ATOM     25  C   LIG    1       26.488 -33.306   4.874  0.00  0.00    +0.005 C 
ATOM     26  C   LIG    1       25.051 -33.824   4.786  0.00  0.00    +0.005 C 
ATOM     27  C   LIG    1       24.202 -32.851   5.603  0.00  0.00    +0.065 C 
ATOM     28  O   LIG    1       24.744 -31.083   7.239  0.00  0.00    -0.331 OA
ENDROOT
BRANCH   1  29
ATOM     29  C   LIG    1       26.159 -29.994   8.974  0.00  0.00    +0.205 C 
ATOM     30  O   LIG    1       25.970 -28.838   8.573  0.00  0.00    -0.291 OA
BRANCH  29  31
ATOM     31  C   LIG    1       27.404 -30.339   9.803  0.00  0.00    +0.309 C 
BRANCH  31  32
ATOM     32  O   LIG    1       27.626 -29.338  10.807  0.00  0.00    -0.457 OA
BRANCH  32  34
ATOM     33  C   LIG    1       26.047 -28.317  12.219  0.00  0.00    +0.136 C 
ATOM     34  C   LIG    1       26.922 -29.520  11.969  0.00  0.00    +0.304 C 
ATOM     35  O   LIG    1       27.046 -30.450  12.735  0.00  0.00    -0.251 OA
ENDBRANCH  32  34
ENDBRANCH  31  32
ENDBRANCH  29  31
ENDBRANCH   1  29
BRANCH   8  36
ATOM     36  O   LIG    1       20.538 -31.456  10.042  0.00  0.00    -0.389 OA
ATOM     37  H   LIG    1       20.661 -30.762  10.716  0.00  0.00    +0.210 HD
ENDBRANCH   8  36
TORSDOF 5
ENDMDL
MODEL 7
REMARK VINA RESULT:      -5.7      3.258      7.172
REMARK  Name = *****
REMARK                            x       y       z     vdW  Elec       q    Type
REMARK                         _______ _______ _______ _____ _____    ______ ____
ROOT
ATOM      1  C   LIG    1       23.363 -27.747  13.978  0.00  0.00    +0.165 C 
ATOM      2  C   LIG    1       23.485 -28.940  12.951  0.00  0.00    +0.012 C 
ATOM      3  C   LIG    1       22.198 -28.959  12.118  0.00  0.00    +0.015 C 
ATOM      4  C   LIG    1       23.704 -30.164  13.884  0.00  0.00    +0.007 C 
ATOM      5  C   LIG    1       24.500 -31.365  13.307  0.00  0.00    +0.034 C 
ATOM      6  C   LIG    1       24.401 -31.551  11.776  0.00  0.00    +0.153 C 
ATOM      7  F   LIG    1       25.503 -32.387  11.510  0.00  0.00    -0.238 F 
ATOM      8  C   LIG    1       24.835 -30.206  11.096  0.00  0.00    +0.154 C 
ATOM      9  C   LIG    1       23.146 -32.426  11.265  0.00  0.00    +0.044 C 
ATOM     10  C   LIG    1       23.626 -33.386  10.137  0.00  0.00    +0.023 C 
ATOM     11  C   LIG    1       22.649 -33.305  12.429  0.00  0.00    -0.053 C 
ATOM     12  C   LIG    1       21.353 -33.535  12.711  0.00  0.00    +0.051 C 
ATOM     13  C   LIG    1       20.268 -32.916  11.925  0.00  0.00    +0.179 C 
ATOM     14  O   LIG    1       19.093 -33.176  12.142  0.00  0.00    -0.288 OA
ATOM     15  C   LIG    1       20.669 -31.951  10.886  0.00  0.00    +0.047 C 
ATOM     16  C   LIG    1       23.716 -33.825  13.346  0.00  0.00    +0.032 C 
ATOM     17  C   LIG    1       21.963 -31.724  10.611  0.00  0.00    -0.009 C 
ATOM     18  C   LIG    1       24.271 -32.650  14.140  0.00  0.00    +0.011 C 
ATOM     19  C   LIG    1       24.504 -29.605  15.099  0.00  0.00    +0.039 C 
ATOM     20  C   LIG    1       24.673 -28.905  11.953  0.00  0.00    +0.044 C 
ATOM     21  C   LIG    1       24.342 -28.096  15.093  0.00  0.00    +0.162 C 
ATOM     22  O   LIG    1       25.540 -27.409  14.725  0.00  0.00    -0.342 OA
ATOM     23  C   LIG    1       25.049 -26.208  14.128  0.00  0.00    +0.172 C 
ATOM     24  C   LIG    1       24.820 -25.125  15.187  0.00  0.00    +0.065 C 
ATOM     25  C   LIG    1       26.217 -24.591  15.490  0.00  0.00    +0.005 C 
ATOM     26  C   LIG    1       27.062 -24.909  14.254  0.00  0.00    +0.005 C 
ATOM     27  C   LIG    1       26.111 -25.560  13.250  0.00  0.00    +0.065 C 
ATOM     28  O   LIG    1       23.842 -26.513  13.431  0.00  0.00    -0.331 OA
ENDROOT
BRANCH   1  29
ATOM     29  C   LIG    1       21.956 -27.595  14.646  0.00  0.00    +0.205 C 
ATOM     30  O   LIG    1       21.569 -28.403  15.500  0.00  0.00    -0.291 OA
BRANCH  29  31
ATOM     31  C   LIG    1       21.044 -26.448  14.186  0.00  0.00    +0.309 C 
BRANCH  31  32
ATOM     32  O   LIG    1       19.882 -26.372  15.024  0.00  0.00    -0.457 OA
BRANCH  32  34
ATOM     33  C   LIG    1       18.194 -27.955  14.610  0.00  0.00    +0.136 C 
ATOM     34  C   LIG    1       18.689 -26.549  14.374  0.00  0.00    +0.304 C 
ATOM     35  O   LIG    1       18.153 -25.746  13.641  0.00  0.00    -0.251 OA
ENDBRANCH  32  34
ENDBRANCH  31  32
ENDBRANCH  29  31
ENDBRANCH   1  29
BRANCH   8  36
ATOM     36  O   LIG    1       24.296 -30.012   9.792  0.00  0.00    -0.389 OA
ATOM     37  H   LIG    1       23.360 -29.764   9.904  0.00  0.00    +0.210 HD
ENDBRANCH   8  36
TORSDOF 5
ENDMDL
MODEL 8
REMARK VINA RESULT:      -5.4      2.567      4.557
REMARK  Name = *****
REMARK                            x       y       z     vdW  Elec       q    Type
REMARK                         _______ _______ _______ _____ _____    ______ ____
ROOT
ATOM      1  C   LIG    1       26.648 -29.881  12.384  0.00  0.00    +0.165 C 
ATOM      2  C   LIG    1       25.225 -30.056  13.043  0.00  0.00    +0.012 C 
ATOM      3  C   LIG    1       24.586 -31.306  12.426  0.00  0.00    +0.015 C 
ATOM      4  C   LIG    1       24.530 -28.707  12.705  0.00  0.00    +0.007 C 
ATOM      5  C   LIG    1       23.430 -28.210  13.681  0.00  0.00    +0.034 C 
ATOM      6  C   LIG    1       22.665 -29.318  14.438  0.00  0.00    +0.153 C 
ATOM      7  F   LIG    1       22.083 -28.600  15.500  0.00  0.00    -0.238 F 
ATOM      8  C   LIG    1       23.719 -30.210  15.182  0.00  0.00    +0.154 C 
ATOM      9  C   LIG    1       21.390 -29.931  13.666  0.00  0.00    +0.044 C 
ATOM     10  C   LIG    1       20.222 -30.109  14.681  0.00  0.00    +0.023 C 
ATOM     11  C   LIG    1       20.919 -28.917  12.605  0.00  0.00    -0.053 C 
ATOM     12  C   LIG    1       20.507 -29.245  11.367  0.00  0.00    +0.051 C 
ATOM     13  C   LIG    1       20.506 -30.644  10.897  0.00  0.00    +0.179 C 
ATOM     14  O   LIG    1       20.073 -30.947   9.794  0.00  0.00    -0.288 OA
ATOM     15  C   LIG    1       21.077 -31.651  11.808  0.00  0.00    +0.047 C 
ATOM     16  C   LIG    1       21.054 -27.473  12.989  0.00  0.00    +0.032 C 
ATOM     17  C   LIG    1       21.489 -31.316  13.042  0.00  0.00    -0.009 C 
ATOM     18  C   LIG    1       22.536 -27.129  13.023  0.00  0.00    +0.011 C 
ATOM     19  C   LIG    1       25.678 -27.653  12.708  0.00  0.00    +0.039 C 
ATOM     20  C   LIG    1       25.167 -30.230  14.584  0.00  0.00    +0.044 C 
ATOM     21  C   LIG    1       26.988 -28.409  12.586  0.00  0.00    +0.162 C 
ATOM     22  O   LIG    1       27.753 -28.397  13.793  0.00  0.00    -0.342 OA
ATOM     23  C   LIG    1       28.487 -29.620  13.718  0.00  0.00    +0.172 C 
ATOM     24  C   LIG    1       29.799 -29.425  12.951  0.00  0.00    +0.065 C 
ATOM     25  C   LIG    1       30.726 -28.745  13.955  0.00  0.00    +0.005 C 
ATOM     26  C   LIG    1       30.182 -29.108  15.338  0.00  0.00    +0.005 C 
ATOM     27  C   LIG    1       28.994 -30.038  15.092  0.00  0.00    +0.065 C 
ATOM     28  O   LIG    1       27.663 -30.602  13.091  0.00  0.00    -0.331 OA
ENDROOT
BRANCH   1  29
ATOM     29  C   LIG    1       26.696 -30.146  10.842  0.00  0.00    +0.205 C 
ATOM     30  O   LIG    1       27.366 -31.080  10.381  0.00  0.00    -0.291 OA
BRANCH  29  31
ATOM     31  C   LIG    1       25.934 -29.197   9.907  0.00  0.00    +0.309 C 
BRANCH  31  32
ATOM     32  O   LIG    1       25.839 -29.764   8.592  0.00  0.00    -0.457 OA
BRANCH  32  34
ATOM     33  C   LIG    1       24.589 -30.541   6.759  0.00  0.00    +0.136 C 
ATOM     34  C   LIG    1       24.572 -30.114   8.206  0.00  0.00    +0.304 C 
ATOM     35  O   LIG    1       23.570 -30.008   8.878  0.00  0.00    -0.251 OA
ENDBRANCH  32  34
ENDBRANCH  31  32
ENDBRANCH  29  31
ENDBRANCH   1  29
BRANCH   8  36
ATOM     36  O   LIG    1       23.275 -31.536  15.451  0.00  0.00    -0.389 OA
ATOM     37  H   LIG    1       22.423 -31.462  15.919  0.00  0.00    +0.210 HD
ENDBRANCH   8  36
TORSDOF 5
ENDMDL
MODEL 9
REMARK VINA RESULT:      -5.2      2.148      5.251
REMARK  Name = *****
REMARK                            x       y       z     vdW  Elec       q    Type
REMARK                         _______ _______ _______ _____ _____    ______ ____
ROOT
ATOM      1  C   LIG    1       25.815 -30.239   9.095  0.00  0.00    +0.165 C 
ATOM      2  C   LIG    1       26.077 -29.577  10.503  0.00  0.00    +0.012 C 
ATOM      3  C   LIG    1       27.427 -30.100  11.010  0.00  0.00    +0.015 C 
ATOM      4  C   LIG    1       24.832 -30.022  11.321  0.00  0.00    +0.007 C 
ATOM      5  C   LIG    1       24.371 -29.095  12.477  0.00  0.00    +0.034 C 
ATOM      6  C   LIG    1       25.488 -28.259  13.141  0.00  0.00    +0.153 C 
ATOM      7  F   LIG    1       24.751 -27.260  13.805  0.00  0.00    -0.238 F 
ATOM      8  C   LIG    1       26.214 -27.442  12.016  0.00  0.00    +0.154 C 
ATOM      9  C   LIG    1       26.279 -28.990  14.341  0.00  0.00    +0.044 C 
ATOM     10  C   LIG    1       26.492 -27.971  15.500  0.00  0.00    +0.023 C 
ATOM     11  C   LIG    1       25.399 -30.129  14.892  0.00  0.00    -0.053 C 
ATOM     12  C   LIG    1       25.860 -31.341  15.254  0.00  0.00    +0.051 C 
ATOM     13  C   LIG    1       27.283 -31.701  15.113  0.00  0.00    +0.179 C 
ATOM     14  O   LIG    1       27.711 -32.781  15.500  0.00  0.00    -0.288 OA
ATOM     15  C   LIG    1       28.158 -30.712  14.460  0.00  0.00    +0.047 C 
ATOM     16  C   LIG    1       23.924 -29.856  14.903  0.00  0.00    +0.032 C 
ATOM     17  C   LIG    1       27.692 -29.505  14.099  0.00  0.00    -0.009 C 
ATOM     18  C   LIG    1       23.436 -29.839  13.462  0.00  0.00    +0.011 C 
ATOM     19  C   LIG    1       23.674 -30.093  10.280  0.00  0.00    +0.039 C 
ATOM     20  C   LIG    1       26.138 -28.028  10.565  0.00  0.00    +0.044 C 
ATOM     21  C   LIG    1       24.306 -30.148   8.901  0.00  0.00    +0.162 C 
ATOM     22  O   LIG    1       24.127 -28.942   8.158  0.00  0.00    -0.342 OA
ATOM     23  C   LIG    1       25.276 -28.917   7.308  0.00  0.00    +0.172 C 
ATOM     24  C   LIG    1       25.012 -29.688   6.011  0.00  0.00    +0.065 C 
ATOM     25  C   LIG    1       24.171 -28.734   5.168  0.00  0.00    +0.005 C 
ATOM     26  C   LIG    1       24.479 -27.330   5.693  0.00  0.00    +0.005 C 
ATOM     27  C   LIG    1       25.537 -27.511   6.782  0.00  0.00    +0.065 C 
ATOM     28  O   LIG    1       26.378 -29.471   8.025  0.00  0.00    -0.331 OA
ENDROOT
BRANCH   1  29
ATOM     29  C   LIG    1       26.191 -31.755   9.000  0.00  0.00    +0.205 C 
ATOM     30  O   LIG    1       26.652 -32.229   7.953  0.00  0.00    -0.291 OA
BRANCH  29  31
ATOM     31  C   LIG    1       25.933 -32.656  10.216  0.00  0.00    +0.309 C 
BRANCH  31  32
ATOM     32  O   LIG    1       24.624 -33.238  10.135  0.00  0.00    -0.457 OA
BRANCH  32  34
ATOM     33  C   LIG    1       25.075 -33.532  12.424  0.00  0.00    +0.136 C 
ATOM     34  C   LIG    1       24.024 -33.480  11.343  0.00  0.00    +0.304 C 
ATOM     35  O   LIG    1       22.848 -33.717  11.516  0.00  0.00    -0.251 OA
ENDBRANCH  32  34
ENDBRANCH  31  32
ENDBRANCH  29  31
ENDBRANCH   1  29
BRANCH   8  36
ATOM     36  O   LIG    1       27.552 -27.074  12.334  0.00  0.00    -0.389 OA
ATOM     37  H   LIG    1       27.583 -26.913  13.295  0.00  0.00    +0.210 HD
ENDBRANCH   8  36
TORSDOF 5
ENDMDL
