MODEL 1
REMARK VINA RESULT:      -3.0      0.000      0.000
REMARK  Name = *****
REMARK                            x       y       z     vdW  Elec       q    Type
REMARK                         _______ _______ _______ _____ _____    ______ ____
ROOT
ATOM      1  C   LIG    1       27.244 -19.312   4.677  0.00  0.00    +0.134 A 
ATOM      2  C   LIG    1       27.236 -17.939   4.372  0.00  0.00    +0.044 A 
ATOM      3  C   LIG    1       28.386 -17.262   4.766  0.00  0.00    +0.080 A 
ATOM      4  C   LIG    1       28.553 -15.960   4.343  0.00  0.00    +0.077 A 
ATOM      5  C   LIG    1       27.561 -15.269   3.630  0.00  0.00    +0.164 A 
ATOM      6  C   LIG    1       26.357 -15.910   3.302  0.00  0.00    +0.163 A 
ATOM      7  N   LIG    1       29.354 -17.816   5.499  0.00  0.00    -0.235 NA
ATOM      8  C   LIG    1       29.192 -19.100   5.833  0.00  0.00    +0.224 A 
ATOM      9  C   LIG    1       26.206 -17.244   3.674  0.00  0.00    +0.062 A 
ATOM     10  N   LIG    1       28.191 -19.892   5.439  0.00  0.00    -0.220 NA
ENDROOT
BRANCH   1  11
ATOM     11  N   LIG    1       26.287 -20.190   4.112  0.00  0.00    -0.299 N 
ATOM     12  H   LIG    1       26.216 -19.892   3.138  0.00  0.00    +0.154 HD
BRANCH  11  15
ATOM     13  C   LIG    1       22.631 -19.703   4.587  0.00  0.00    +0.026 A 
ATOM     14  C   LIG    1       23.926 -19.615   4.064  0.00  0.00    +0.040 A 
ATOM     15  C   LIG    1       24.973 -20.348   4.634  0.00  0.00    +0.034 A 
ATOM     16  C   LIG    1       24.705 -21.146   5.758  0.00  0.00    +0.023 A 
ATOM     17  C   LIG    1       23.411 -21.251   6.269  0.00  0.00    +0.003 A 
ATOM     18  C   LIG    1       22.374 -20.526   5.686  0.00  0.00    +0.017 A 
BRANCH  13  20
ATOM     19  C   LIG    1       20.674 -18.302   3.521  0.00  0.00    +0.009 C 
ATOM     20  C   LIG    1       21.581 -18.928   4.014  0.00  0.00    -0.070 C 
ENDBRANCH  13  20
ENDBRANCH  11  15
ENDBRANCH   1  11
BRANCH   6  21
ATOM     21  O   LIG    1       25.422 -15.210   2.581  0.00  0.00    -0.486 OA
BRANCH  21  22
ATOM     22  C   LIG    1       24.635 -14.236   3.285  0.00  0.00    +0.257 C 
BRANCH  22  23
ATOM     23  C   LIG    1       24.552 -12.960   2.436  0.00  0.00    +0.200 C 
BRANCH  23  24
ATOM     24  O   LIG    1       23.780 -11.955   3.100  0.00  0.00    -0.380 OA
ATOM     25  C   LIG    1       23.870 -12.078   4.517  0.00  0.00    +0.194 C 
ENDBRANCH  23  24
ENDBRANCH  22  23
ENDBRANCH  21  22
ENDBRANCH   6  21
BRANCH   5  26
ATOM     26  O   LIG    1       27.733 -13.969   3.228  0.00  0.00    -0.486 OA
BRANCH  26  27
ATOM     27  C   LIG    1       28.895 -13.309   3.748  0.00  0.00    +0.257 C 
BRANCH  27  28
ATOM     28  C   LIG    1       28.468 -12.429   4.908  0.00  0.00    +0.200 C 
BRANCH  28  29
ATOM     29  O   LIG    1       27.084 -12.638   5.188  0.00  0.00    -0.380 OA
ATOM     30  C   LIG    1       26.922 -13.421   6.364  0.00  0.00    +0.194 C 
ENDBRANCH  28  29
ENDBRANCH  27  28
ENDBRANCH  26  27
ENDBRANCH   5  26
TORSDOF 11
ENDMDL
MODEL 2
REMARK VINA RESULT:      -0.3      3.245      5.536
REMARK  Name = *****
REMARK                            x       y       z     vdW  Elec       q    Type
REMARK                         _______ _______ _______ _____ _____    ______ ____
ROOT
ATOM      1  C   LIG    1       25.741 -14.408   3.360  0.00  0.00    +0.134 A 
ATOM      2  C   LIG    1       26.457 -15.585   3.637  0.00  0.00    +0.044 A 
ATOM      3  C   LIG    1       27.768 -15.368   4.049  0.00  0.00    +0.080 A 
ATOM      4  C   LIG    1       28.488 -16.444   4.524  0.00  0.00    +0.077 A 
ATOM      5  C   LIG    1       27.984 -17.753   4.505  0.00  0.00    +0.164 A 
ATOM      6  C   LIG    1       26.694 -18.001   4.010  0.00  0.00    +0.163 A 
ATOM      7  N   LIG    1       28.356 -14.169   4.042  0.00  0.00    -0.235 NA
ATOM      8  C   LIG    1       27.607 -13.138   3.640  0.00  0.00    +0.224 A 
ATOM      9  C   LIG    1       25.939 -16.912   3.583  0.00  0.00    +0.062 A 
ATOM     10  N   LIG    1       26.312 -13.189   3.316  0.00  0.00    -0.220 NA
ENDROOT
BRANCH   1  11
ATOM     11  N   LIG    1       24.333 -14.433   3.195  0.00  0.00    -0.299 N 
ATOM     12  H   LIG    1       24.068 -13.447   3.153  0.00  0.00    +0.154 HD
BRANCH  11  15
ATOM     13  C   LIG    1       22.053 -17.023   4.579  0.00  0.00    +0.026 A 
ATOM     14  C   LIG    1       22.961 -16.361   3.745  0.00  0.00    +0.040 A 
ATOM     15  C   LIG    1       23.457 -15.101   4.095  0.00  0.00    +0.034 A 
ATOM     16  C   LIG    1       23.003 -14.502   5.282  0.00  0.00    +0.023 A 
ATOM     17  C   LIG    1       22.114 -15.169   6.124  0.00  0.00    +0.003 A 
ATOM     18  C   LIG    1       21.635 -16.429   5.771  0.00  0.00    +0.017 A 
BRANCH  13  20
ATOM     19  C   LIG    1       21.080 -19.373   3.900  0.00  0.00    +0.009 C 
ATOM     20  C   LIG    1       21.534 -18.294   4.193  0.00  0.00    -0.070 C 
ENDBRANCH  13  20
ENDBRANCH  11  15
ENDBRANCH   1  11
BRANCH   6  21
ATOM     21  O   LIG    1       26.226 -19.291   4.032  0.00  0.00    -0.486 OA
BRANCH  21  22
ATOM     22  C   LIG    1       24.813 -19.480   4.213  0.00  0.00    +0.257 C 
BRANCH  22  23
ATOM     23  C   LIG    1       24.498 -20.979   4.117  0.00  0.00    +0.200 C 
BRANCH  23  24
ATOM     24  O   LIG    1       23.590 -21.377   5.149  0.00  0.00    -0.380 OA
ATOM     25  C   LIG    1       23.624 -20.474   6.251  0.00  0.00    +0.194 C 
ENDBRANCH  23  24
ENDBRANCH  22  23
ENDBRANCH  21  22
ENDBRANCH   6  21
BRANCH   5  26
ATOM     26  O   LIG    1       28.716 -18.817   4.968  0.00  0.00    -0.486 OA
BRANCH  26  27
ATOM     27  C   LIG    1       29.475 -18.575   6.159  0.00  0.00    +0.257 C 
BRANCH  27  28
ATOM     28  C   LIG    1       29.474 -19.841   6.995  0.00  0.00    +0.200 C 
BRANCH  28  29
ATOM     29  O   LIG    1       28.715 -20.854   6.334  0.00  0.00    -0.380 OA
ATOM     30  C   LIG    1       27.426 -20.980   6.923  0.00  0.00    +0.194 C 
ENDBRANCH  28  29
ENDBRANCH  27  28
ENDBRANCH  26  27
ENDBRANCH   5  26
TORSDOF 11
ENDMDL
