MODEL 1
REMARK VINA RESULT:     -10.5      0.000      0.000
REMARK  8 active torsions:
REMARK  status: ('A' for Active; 'I' for Inactive)
REMARK    1  A    between atoms: O1_1  and  C20_22 
REMARK    2  A    between atoms: C1_2  and  C2_3 
REMARK    3  A    between atoms: C1_2  and  C8_10 
REMARK    4  A    between atoms: C1_2  and  C20_22 
REMARK    5  A    between atoms: C2_3  and  C21_23 
REMARK    6  A    between atoms: C3_4  and  C21_23 
REMARK    7  A    between atoms: C5_6  and  O3_25 
REMARK    8  A    between atoms: C12_14  and  C13_15 
ROOT
ATOM      1  C1  MOL d   1      30.200 -20.257   8.903  0.00  0.00    -0.299 C 
ATOM      2  H2  MOL d   1      29.679 -20.319   9.838  0.00  0.00     0.087 H 
ENDROOT
BRANCH   1   3
ATOM      3  C2  MOL d   1      31.111 -19.014   8.901  0.00  0.00     0.557 C 
ATOM      4  O2  MOL d   1      32.120 -18.969   8.149  0.00  0.00    -0.316 OA
BRANCH   3   5
ATOM      5  C21 MOL d   1      30.782 -17.824   9.825  0.00  0.00    -0.487 C 
BRANCH   5   6
ATOM      6  C3  MOL d   1      31.913 -17.077  10.552  0.00  0.00     0.494 C 
ATOM      7  C4  MOL d   1      31.450 -16.323  11.756  0.00  0.00    -0.233 C 
ATOM      8  C5  MOL d   1      32.760 -15.912  12.491  0.00  0.00     0.177 C 
ATOM      9  H4  MOL d   1      30.835 -16.892  12.427  0.00  0.00     0.079 H 
ATOM     10  H5  MOL d   1      30.891 -15.475  11.403  0.00  0.00     0.079 H 
ATOM     11  C6  MOL d   1      33.885 -15.605  11.443  0.00  0.00    -0.066 C 
ATOM     12  H6  MOL d   1      32.515 -15.059  13.097  0.00  0.00     0.042 H 
ATOM     13  N1  MOL d   1      33.262 -14.945  10.336  0.00  0.00    -0.620 N 
ATOM     14  H7  MOL d   1      34.319 -16.507  11.065  0.00  0.00     0.092 H 
ATOM     15  H8  MOL d   1      34.648 -15.017  11.911  0.00  0.00     0.092 H 
ATOM     16  C7  MOL d   1      32.511 -15.996   9.577  0.00  0.00    -0.062 C 
ATOM     17  H9  MOL d   1      32.652 -14.242  10.716  0.00  0.00     0.320 HD
ATOM     18  H10 MOL d   1      33.153 -16.514   8.887  0.00  0.00     0.095 H 
ATOM     19  H11 MOL d   1      31.732 -15.489   9.040  0.00  0.00     0.095 H 
ATOM     20  H3  MOL d   1      32.654 -17.783  10.880  0.00  0.00    -0.049 H 
BRANCH   8  21
ATOM     21  O3  MOL d   1      33.269 -16.970  13.325  0.00  0.00    -0.476 OA
ATOM     22  H23 MOL d   1      32.569 -17.586  13.542  0.00  0.00     0.292 HD
ENDBRANCH   8  21
ENDBRANCH   5   6
ENDBRANCH   3   5
ENDBRANCH   1   3
BRANCH   1  23
ATOM     23  C8  MOL d   1      29.184 -20.143   7.750  0.00  0.00     0.279 A 
ATOM     24  C9  MOL d   1      29.479 -19.348   6.632  0.00  0.00    -0.230 A 
ATOM     25  C10 MOL d   1      28.554 -19.245   5.584  0.00  0.00    -0.060 A 
ATOM     26  H12 MOL d   1      30.407 -18.821   6.578  0.00  0.00     0.112 H 
ATOM     27  C11 MOL d   1      27.338 -19.938   5.652  0.00  0.00    -0.142 A 
ATOM     28  H13 MOL d   1      28.776 -18.639   4.730  0.00  0.00     0.080 H 
ATOM     29  C12 MOL d   1      27.045 -20.734   6.767  0.00  0.00     0.059 A 
ATOM     30  H14 MOL d   1      26.633 -19.858   4.851  0.00  0.00     0.100 H 
ATOM     31  C19 MOL d   1      27.965 -20.836   7.821  0.00  0.00    -0.244 A 
ATOM     32  H20 MOL d   1      27.736 -21.440   8.677  0.00  0.00     0.120 H 
BRANCH  29  33
ATOM     33  C13 MOL d   1      25.710 -21.502   6.836  0.00  0.00     0.067 A 
ATOM     34  C14 MOL d   1      24.498 -20.804   6.953  0.00  0.00    -0.118 A 
ATOM     35  C15 MOL d   1      23.284 -21.507   7.006  0.00  0.00    -0.057 A 
ATOM     36  H15 MOL d   1      24.496 -19.735   7.000  0.00  0.00     0.074 H 
ATOM     37  C16 MOL d   1      23.282 -22.908   6.947  0.00  0.00    -0.095 A 
ATOM     38  H16 MOL d   1      22.357 -20.974   7.093  0.00  0.00     0.074 H 
ATOM     39  C17 MOL d   1      24.495 -23.606   6.837  0.00  0.00    -0.057 A 
ATOM     40  H17 MOL d   1      22.356 -23.442   6.986  0.00  0.00     0.076 H 
ATOM     41  C18 MOL d   1      25.710 -22.903   6.783  0.00  0.00    -0.118 A 
ATOM     42  H18 MOL d   1      24.494 -24.677   6.797  0.00  0.00     0.074 H 
ATOM     43  H19 MOL d   1      26.638 -23.433   6.699  0.00  0.00     0.074 H 
ENDBRANCH  29  33
ENDBRANCH   1  23
BRANCH   1  44
ATOM     44  C20 MOL d   1      31.048 -21.533   8.712  0.00  0.00     0.122 C 
ATOM     45  H21 MOL d   1      30.476 -22.388   9.008  0.00  0.00     0.038 H 
ATOM     46  H22 MOL d   1      31.325 -21.626   7.686  0.00  0.00     0.038 H 
BRANCH  44  47
ATOM     47  O1  MOL d   1      32.226 -21.446   9.519  0.00  0.00    -0.464 OA
ATOM     48  H1  MOL d   1      31.981 -21.254  10.428  0.00  0.00     0.309 HD
ENDBRANCH  44  47
ENDBRANCH   1  44
TORSDOF 8
ENDMDL
MODEL 2
REMARK VINA RESULT:     -10.2      1.823      2.815
REMARK  8 active torsions:
REMARK  status: ('A' for Active; 'I' for Inactive)
REMARK    1  A    between atoms: O1_1  and  C20_22 
REMARK    2  A    between atoms: C1_2  and  C2_3 
REMARK    3  A    between atoms: C1_2  and  C8_10 
REMARK    4  A    between atoms: C1_2  and  C20_22 
REMARK    5  A    between atoms: C2_3  and  C21_23 
REMARK    6  A    between atoms: C3_4  and  C21_23 
REMARK    7  A    between atoms: C5_6  and  O3_25 
REMARK    8  A    between atoms: C12_14  and  C13_15 
ROOT
ATOM      1  C1  MOL d   1      29.819 -19.826   6.804  0.00  0.00    -0.299 C 
ATOM      2  H2  MOL d   1      30.416 -20.377   6.105  0.00  0.00     0.087 H 
ENDROOT
BRANCH   1   3
ATOM      3  C2  MOL d   1      30.530 -19.787   8.171  0.00  0.00     0.557 C 
ATOM      4  O2  MOL d   1      31.439 -20.617   8.437  0.00  0.00    -0.316 OA
BRANCH   3   5
ATOM      5  C21 MOL d   1      30.123 -18.725   9.213  0.00  0.00    -0.487 C 
BRANCH   5   6
ATOM      6  C3  MOL d   1      31.202 -17.898   9.934  0.00  0.00     0.494 C 
ATOM      7  C4  MOL d   1      30.647 -16.768  10.738  0.00  0.00    -0.233 C 
ATOM      8  C5  MOL d   1      31.845 -16.274  11.601  0.00  0.00     0.177 C 
ATOM      9  H4  MOL d   1      29.836 -17.039  11.386  0.00  0.00     0.079 H 
ATOM     10  H5  MOL d   1      30.305 -16.022  10.041  0.00  0.00     0.079 H 
ATOM     11  C6  MOL d   1      33.180 -16.414  10.791  0.00  0.00    -0.066 C 
ATOM     12  H6  MOL d   1      31.628 -15.255  11.869  0.00  0.00     0.042 H 
ATOM     13  N1  MOL d   1      32.887 -16.075   9.431  0.00  0.00    -0.620 N 
ATOM     14  H7  MOL d   1      33.530 -17.426  10.793  0.00  0.00     0.092 H 
ATOM     15  H8  MOL d   1      33.925 -15.784  11.232  0.00  0.00     0.092 H 
ATOM     16  C7  MOL d   1      32.134 -17.235   8.853  0.00  0.00    -0.062 C 
ATOM     17  H9  MOL d   1      32.335 -15.235   9.448  0.00  0.00     0.320 HD
ATOM     18  H10 MOL d   1      32.804 -18.000   8.502  0.00  0.00     0.095 H 
ATOM     19  H11 MOL d   1      31.559 -16.849   8.032  0.00  0.00     0.095 H 
ATOM     20  H3  MOL d   1      31.748 -18.534  10.606  0.00  0.00    -0.049 H 
BRANCH   8  21
ATOM     21  O3  MOL d   1      32.016 -17.063  12.793  0.00  0.00    -0.476 OA
ATOM     22  H23 MOL d   1      32.164 -16.493  13.549  0.00  0.00     0.292 HD
ENDBRANCH   8  21
ENDBRANCH   5   6
ENDBRANCH   3   5
ENDBRANCH   1   3
BRANCH   1  23
ATOM     23  C8  MOL d   1      28.448 -20.510   6.967  0.00  0.00     0.279 A 
ATOM     24  C9  MOL d   1      28.295 -21.566   7.879  0.00  0.00    -0.230 A 
ATOM     25  C10 MOL d   1      27.046 -22.187   8.026  0.00  0.00    -0.060 A 
ATOM     26  H12 MOL d   1      29.127 -21.898   8.461  0.00  0.00     0.112 H 
ATOM     27  C11 MOL d   1      25.953 -21.751   7.266  0.00  0.00    -0.142 A 
ATOM     28  H13 MOL d   1      26.927 -22.993   8.720  0.00  0.00     0.080 H 
ATOM     29  C12 MOL d   1      26.105 -20.695   6.358  0.00  0.00     0.059 A 
ATOM     30  H14 MOL d   1      25.001 -22.226   7.380  0.00  0.00     0.100 H 
ATOM     31  C19 MOL d   1      27.353 -20.073   6.204  0.00  0.00    -0.244 A 
ATOM     32  H20 MOL d   1      27.469 -19.270   5.504  0.00  0.00     0.120 H 
BRANCH  29  33
ATOM     33  C13 MOL d   1      24.898 -20.212   5.530  0.00  0.00     0.067 A 
ATOM     34  C14 MOL d   1      23.594 -20.358   6.027  0.00  0.00    -0.118 A 
ATOM     35  C15 MOL d   1      22.500 -19.908   5.273  0.00  0.00    -0.057 A 
ATOM     36  H15 MOL d   1      23.432 -20.811   6.983  0.00  0.00     0.074 H 
ATOM     37  C16 MOL d   1      22.708 -19.317   4.018  0.00  0.00    -0.095 A 
ATOM     38  H16 MOL d   1      21.503 -20.018   5.653  0.00  0.00     0.074 H 
ATOM     39  C17 MOL d   1      24.012 -19.177   3.518  0.00  0.00    -0.057 A 
ATOM     40  H17 MOL d   1      21.872 -18.973   3.446  0.00  0.00     0.076 H 
ATOM     41  C18 MOL d   1      25.108 -19.626   4.274  0.00  0.00    -0.118 A 
ATOM     42  H18 MOL d   1      24.171 -18.729   2.557  0.00  0.00     0.074 H 
ATOM     43  H19 MOL d   1      26.105 -19.520   3.894  0.00  0.00     0.074 H 
ENDBRANCH  29  33
ENDBRANCH   1  23
BRANCH   1  44
ATOM     44  C20 MOL d   1      29.614 -18.391   6.275  0.00  0.00     0.122 C 
ATOM     45  H21 MOL d   1      28.571 -18.152   6.288  0.00  0.00     0.038 H 
ATOM     46  H22 MOL d   1      30.148 -17.704   6.892  0.00  0.00     0.038 H 
BRANCH  44  47
ATOM     47  O1  MOL d   1      30.104 -18.306   4.932  0.00  0.00    -0.464 OA
ATOM     48  H1  MOL d   1      30.325 -19.185   4.614  0.00  0.00     0.309 HD
ENDBRANCH  44  47
ENDBRANCH   1  44
TORSDOF 8
ENDMDL
MODEL 3
REMARK VINA RESULT:      -9.7      2.888      5.373
REMARK  8 active torsions:
REMARK  status: ('A' for Active; 'I' for Inactive)
REMARK    1  A    between atoms: O1_1  and  C20_22 
REMARK    2  A    between atoms: C1_2  and  C2_3 
REMARK    3  A    between atoms: C1_2  and  C8_10 
REMARK    4  A    between atoms: C1_2  and  C20_22 
REMARK    5  A    between atoms: C2_3  and  C21_23 
REMARK    6  A    between atoms: C3_4  and  C21_23 
REMARK    7  A    between atoms: C5_6  and  O3_25 
REMARK    8  A    between atoms: C12_14  and  C13_15 
ROOT
ATOM      1  C1  MOL d   1      25.841 -20.398   7.404  0.00  0.00    -0.299 C 
ATOM      2  H2  MOL d   1      25.388 -19.458   7.161  0.00  0.00     0.087 H 
ENDROOT
BRANCH   1   3
ATOM      3  C2  MOL d   1      27.092 -20.610   6.529  0.00  0.00     0.557 C 
ATOM      4  O2  MOL d   1      27.106 -20.211   5.335  0.00  0.00    -0.316 OA
BRANCH   3   5
ATOM      5  C21 MOL d   1      28.329 -21.315   7.124  0.00  0.00    -0.487 C 
BRANCH   5   6
ATOM      6  C3  MOL d   1      29.434 -20.489   7.805  0.00  0.00     0.494 C 
ATOM      7  C4  MOL d   1      30.331 -19.786   6.839  0.00  0.00    -0.233 C 
ATOM      8  C5  MOL d   1      31.154 -18.795   7.716  0.00  0.00     0.177 C 
ATOM      9  H4  MOL d   1      29.818 -19.234   6.076  0.00  0.00     0.079 H 
ATOM     10  H5  MOL d   1      30.947 -20.536   6.376  0.00  0.00     0.079 H 
ATOM     11  C6  MOL d   1      31.436 -19.435   9.119  0.00  0.00    -0.066 C 
ATOM     12  H6  MOL d   1      32.054 -18.581   7.170  0.00  0.00     0.042 H 
ATOM     13  N1  MOL d   1      31.689 -20.828   8.907  0.00  0.00    -0.620 N 
ATOM     14  H7  MOL d   1      30.578 -19.366   9.756  0.00  0.00     0.092 H 
ATOM     15  H8  MOL d   1      32.257 -18.921   9.578  0.00  0.00     0.092 H 
ATOM     16  C7  MOL d   1      30.363 -21.465   8.617  0.00  0.00    -0.062 C 
ATOM     17  H9  MOL d   1      32.322 -20.898   8.128  0.00  0.00     0.320 HD
ATOM     18  H10 MOL d   1      29.844 -21.713   9.525  0.00  0.00     0.095 H 
ATOM     19  H11 MOL d   1      30.568 -22.358   8.058  0.00  0.00     0.095 H 
ATOM     20  H3  MOL d   1      28.985 -19.740   8.431  0.00  0.00    -0.049 H 
BRANCH   8  21
ATOM     21  O3  MOL d   1      30.437 -17.573   7.970  0.00  0.00    -0.476 OA
ATOM     22  H23 MOL d   1      30.832 -17.106   8.708  0.00  0.00     0.292 HD
ENDBRANCH   8  21
ENDBRANCH   5   6
ENDBRANCH   3   5
ENDBRANCH   1   3
BRANCH   1  23
ATOM     23  C8  MOL d   1      24.840 -21.540   7.140  0.00  0.00     0.279 A 
ATOM     24  C9  MOL d   1      23.461 -21.297   7.230  0.00  0.00    -0.230 A 
ATOM     25  C10 MOL d   1      22.551 -22.336   6.989  0.00  0.00    -0.060 A 
ATOM     26  H12 MOL d   1      23.103 -20.323   7.482  0.00  0.00     0.112 H 
ATOM     27  C11 MOL d   1      23.020 -23.614   6.655  0.00  0.00    -0.142 A 
ATOM     28  H13 MOL d   1      21.498 -22.155   7.058  0.00  0.00     0.080 H 
ATOM     29  C12 MOL d   1      24.397 -23.855   6.562  0.00  0.00     0.059 A 
ATOM     30  H14 MOL d   1      22.323 -24.406   6.472  0.00  0.00     0.100 H 
ATOM     31  C19 MOL d   1      25.311 -22.820   6.807  0.00  0.00    -0.244 A 
ATOM     32  H20 MOL d   1      26.364 -23.008   6.742  0.00  0.00     0.120 H 
BRANCH  29  33
ATOM     33  C13 MOL d   1      24.909 -25.260   6.187  0.00  0.00     0.067 A 
ATOM     34  C14 MOL d   1      24.004 -26.269   5.822  0.00  0.00    -0.118 A 
ATOM     35  C15 MOL d   1      24.476 -27.543   5.473  0.00  0.00    -0.057 A 
ATOM     36  H15 MOL d   1      22.953 -26.068   5.809  0.00  0.00     0.074 H 
ATOM     37  C16 MOL d   1      25.852 -27.811   5.492  0.00  0.00    -0.095 A 
ATOM     38  H16 MOL d   1      23.785 -28.314   5.192  0.00  0.00     0.074 H 
ATOM     39  C17 MOL d   1      26.757 -26.804   5.863  0.00  0.00    -0.057 A 
ATOM     40  H17 MOL d   1      26.210 -28.783   5.223  0.00  0.00     0.076 H 
ATOM     41  C18 MOL d   1      26.285 -25.527   6.212  0.00  0.00    -0.118 A 
ATOM     42  H18 MOL d   1      27.808 -27.010   5.882  0.00  0.00     0.074 H 
ATOM     43  H19 MOL d   1      26.973 -24.756   6.496  0.00  0.00     0.074 H 
ENDBRANCH  29  33
ENDBRANCH   1  23
BRANCH   1  44
ATOM     44  C20 MOL d   1      26.235 -20.399   8.897  0.00  0.00     0.122 C 
ATOM     45  H21 MOL d   1      27.301 -20.439   8.984  0.00  0.00     0.038 H 
ATOM     46  H22 MOL d   1      25.870 -19.511   9.362  0.00  0.00     0.038 H 
BRANCH  44  47
ATOM     47  O1  MOL d   1      25.662 -21.544   9.538  0.00  0.00    -0.464 OA
ATOM     48  H1  MOL d   1      26.050 -22.344   9.174  0.00  0.00     0.309 HD
ENDBRANCH  44  47
ENDBRANCH   1  44
TORSDOF 8
ENDMDL
MODEL 4
REMARK VINA RESULT:      -9.4      3.185      5.829
REMARK  8 active torsions:
REMARK  status: ('A' for Active; 'I' for Inactive)
REMARK    1  A    between atoms: O1_1  and  C20_22 
REMARK    2  A    between atoms: C1_2  and  C2_3 
REMARK    3  A    between atoms: C1_2  and  C8_10 
REMARK    4  A    between atoms: C1_2  and  C20_22 
REMARK    5  A    between atoms: C2_3  and  C21_23 
REMARK    6  A    between atoms: C3_4  and  C21_23 
REMARK    7  A    between atoms: C5_6  and  O3_25 
REMARK    8  A    between atoms: C12_14  and  C13_15 
ROOT
ATOM      1  C1  MOL d   1      25.845 -20.752   5.096  0.00  0.00    -0.299 C 
ATOM      2  H2  MOL d   1      26.427 -21.209   4.321  0.00  0.00     0.087 H 
ENDROOT
BRANCH   1   3
ATOM      3  C2  MOL d   1      26.778 -20.252   6.216  0.00  0.00     0.557 C 
ATOM      4  O2  MOL d   1      26.371 -20.202   7.406  0.00  0.00    -0.316 OA
BRANCH   3   5
ATOM      5  C21 MOL d   1      28.216 -19.811   5.872  0.00  0.00    -0.487 C 
BRANCH   5   6
ATOM      6  C3  MOL d   1      29.279 -19.714   6.980  0.00  0.00     0.494 C 
ATOM      7  C4  MOL d   1      30.613 -19.260   6.486  0.00  0.00    -0.233 C 
ATOM      8  C5  MOL d   1      31.424 -18.943   7.777  0.00  0.00     0.177 C 
ATOM      9  H4  MOL d   1      30.584 -18.384   5.867  0.00  0.00     0.079 H 
ATOM     10  H5  MOL d   1      31.036 -20.074   5.923  0.00  0.00     0.079 H 
ATOM     11  C6  MOL d   1      31.024 -19.943   8.916  0.00  0.00    -0.066 C 
ATOM     12  H6  MOL d   1      32.463 -19.014   7.510  0.00  0.00     0.042 H 
ATOM     13  N1  MOL d   1      30.823 -21.222   8.305  0.00  0.00    -0.620 N 
ATOM     14  H7  MOL d   1      30.095 -19.663   9.369  0.00  0.00     0.092 H 
ATOM     15  H8  MOL d   1      31.792 -19.948   9.663  0.00  0.00     0.092 H 
ATOM     16  C7  MOL d   1      29.512 -21.149   7.581  0.00  0.00    -0.062 C 
ATOM     17  H9  MOL d   1      31.595 -21.375   7.679  0.00  0.00     0.320 HD
ATOM     18  H10 MOL d   1      28.689 -21.353   8.242  0.00  0.00     0.095 H 
ATOM     19  H11 MOL d   1      29.550 -21.891   6.806  0.00  0.00     0.095 H 
ATOM     20  H3  MOL d   1      28.954 -19.010   7.724  0.00  0.00    -0.049 H 
BRANCH   8  21
ATOM     21  O3  MOL d   1      31.142 -17.626   8.285  0.00  0.00    -0.476 OA
ATOM     22  H23 MOL d   1      31.952 -17.199   8.567  0.00  0.00     0.292 HD
ENDBRANCH   8  21
ENDBRANCH   5   6
ENDBRANCH   3   5
ENDBRANCH   1   3
BRANCH   1  23
ATOM     23  C8  MOL d   1      24.860 -21.783   5.681  0.00  0.00     0.279 A 
ATOM     24  C9  MOL d   1      23.602 -21.366   6.142  0.00  0.00    -0.230 A 
ATOM     25  C10 MOL d   1      22.706 -22.305   6.674  0.00  0.00    -0.060 A 
ATOM     26  H12 MOL d   1      23.325 -20.336   6.091  0.00  0.00     0.112 H 
ATOM     27  C11 MOL d   1      23.067 -23.658   6.739  0.00  0.00    -0.142 A 
ATOM     28  H13 MOL d   1      21.746 -21.990   7.028  0.00  0.00     0.080 H 
ATOM     29  C12 MOL d   1      24.321 -24.074   6.275  0.00  0.00     0.059 A 
ATOM     30  H14 MOL d   1      22.381 -24.373   7.145  0.00  0.00     0.100 H 
ATOM     31  C19 MOL d   1      25.223 -23.137   5.747  0.00  0.00    -0.244 A 
ATOM     32  H20 MOL d   1      26.185 -23.457   5.399  0.00  0.00     0.120 H 
BRANCH  29  33
ATOM     33  C13 MOL d   1      24.712 -25.563   6.341  0.00  0.00     0.067 A 
ATOM     34  C14 MOL d   1      24.024 -26.510   5.566  0.00  0.00    -0.118 A 
ATOM     35  C15 MOL d   1      24.389 -27.864   5.623  0.00  0.00    -0.057 A 
ATOM     36  H15 MOL d   1      23.221 -26.201   4.929  0.00  0.00     0.074 H 
ATOM     37  C16 MOL d   1      25.439 -28.273   6.458  0.00  0.00    -0.095 A 
ATOM     38  H16 MOL d   1      23.865 -28.588   5.030  0.00  0.00     0.074 H 
ATOM     39  C17 MOL d   1      26.122 -27.327   7.239  0.00  0.00    -0.057 A 
ATOM     40  H17 MOL d   1      25.717 -29.305   6.499  0.00  0.00     0.076 H 
ATOM     41  C18 MOL d   1      25.758 -25.971   7.181  0.00  0.00    -0.118 A 
ATOM     42  H18 MOL d   1      26.922 -27.639   7.880  0.00  0.00     0.074 H 
ATOM     43  H19 MOL d   1      26.278 -25.246   7.775  0.00  0.00     0.074 H 
ENDBRANCH  29  33
ENDBRANCH   1  23
BRANCH   1  44
ATOM     44  C20 MOL d   1      25.053 -19.568   4.502  0.00  0.00     0.122 C 
ATOM     45  H21 MOL d   1      24.087 -19.907   4.189  0.00  0.00     0.038 H 
ATOM     46  H22 MOL d   1      24.943 -18.806   5.241  0.00  0.00     0.038 H 
BRANCH  44  47
ATOM     47  O1  MOL d   1      25.760 -19.041   3.375  0.00  0.00    -0.464 OA
ATOM     48  H1  MOL d   1      26.602 -19.495   3.282  0.00  0.00     0.309 HD
ENDBRANCH  44  47
ENDBRANCH   1  44
TORSDOF 8
ENDMDL
MODEL 5
REMARK VINA RESULT:      -9.4      5.675      9.969
REMARK  8 active torsions:
REMARK  status: ('A' for Active; 'I' for Inactive)
REMARK    1  A    between atoms: O1_1  and  C20_22 
REMARK    2  A    between atoms: C1_2  and  C2_3 
REMARK    3  A    between atoms: C1_2  and  C8_10 
REMARK    4  A    between atoms: C1_2  and  C20_22 
REMARK    5  A    between atoms: C2_3  and  C21_23 
REMARK    6  A    between atoms: C3_4  and  C21_23 
REMARK    7  A    between atoms: C5_6  and  O3_25 
REMARK    8  A    between atoms: C12_14  and  C13_15 
ROOT
ATOM      1  C1  MOL d   1      24.776 -23.375   6.983  0.00  0.00    -0.299 C 
ATOM      2  H2  MOL d   1      25.018 -23.514   8.018  0.00  0.00     0.087 H 
ENDROOT
BRANCH   1   3
ATOM      3  C2  MOL d   1      25.198 -24.623   6.183  0.00  0.00     0.557 C 
ATOM      4  O2  MOL d   1      25.006 -24.674   4.940  0.00  0.00    -0.316 OA
BRANCH   3   5
ATOM      5  C21 MOL d   1      25.857 -25.812   6.914  0.00  0.00    -0.487 C 
BRANCH   5   6
ATOM      6  C3  MOL d   1      25.345 -27.243   6.675  0.00  0.00     0.494 C 
ATOM      7  C4  MOL d   1      25.841 -28.228   7.682  0.00  0.00    -0.233 C 
ATOM      8  C5  MOL d   1      24.981 -29.504   7.442  0.00  0.00     0.177 C 
ATOM      9  H4  MOL d   1      25.728 -27.916   8.702  0.00  0.00     0.079 H 
ATOM     10  H5  MOL d   1      26.885 -28.390   7.479  0.00  0.00     0.079 H 
ATOM     11  C6  MOL d   1      24.663 -29.652   5.914  0.00  0.00    -0.066 C 
ATOM     12  H6  MOL d   1      25.548 -30.331   7.829  0.00  0.00     0.042 H 
ATOM     13  N1  MOL d   1      25.832 -29.241   5.197  0.00  0.00    -0.620 N 
ATOM     14  H7  MOL d   1      23.868 -28.998   5.619  0.00  0.00     0.092 H 
ATOM     15  H8  MOL d   1      24.378 -30.665   5.713  0.00  0.00     0.092 H 
ATOM     16  C7  MOL d   1      25.884 -27.745   5.285  0.00  0.00    -0.062 C 
ATOM     17  H9  MOL d   1      26.621 -29.676   5.644  0.00  0.00     0.320 HD
ATOM     18  H10 MOL d   1      25.276 -27.288   4.525  0.00  0.00     0.095 H 
ATOM     19  H11 MOL d   1      26.912 -27.467   5.147  0.00  0.00     0.095 H 
ATOM     20  H3  MOL d   1      24.271 -27.249   6.720  0.00  0.00    -0.049 H 
BRANCH   8  21
ATOM     21  O3  MOL d   1      23.708 -29.433   8.110  0.00  0.00    -0.476 OA
ATOM     22  H23 MOL d   1      23.427 -28.520   8.192  0.00  0.00     0.292 HD
ENDBRANCH   8  21
ENDBRANCH   5   6
ENDBRANCH   3   5
ENDBRANCH   1   3
BRANCH   1  23
ATOM     23  C8  MOL d   1      25.526 -22.145   6.436  0.00  0.00     0.279 A 
ATOM     24  C9  MOL d   1      24.946 -21.363   5.426  0.00  0.00    -0.230 A 
ATOM     25  C10 MOL d   1      25.629 -20.243   4.929  0.00  0.00    -0.060 A 
ATOM     26  H12 MOL d   1      23.985 -21.617   5.035  0.00  0.00     0.112 H 
ATOM     27  C11 MOL d   1      26.888 -19.906   5.444  0.00  0.00    -0.142 A 
ATOM     28  H13 MOL d   1      25.190 -19.645   4.158  0.00  0.00     0.080 H 
ATOM     29  C12 MOL d   1      27.466 -20.686   6.454  0.00  0.00     0.059 A 
ATOM     30  H14 MOL d   1      27.408 -19.052   5.063  0.00  0.00     0.100 H 
ATOM     31  C19 MOL d   1      26.789 -21.810   6.951  0.00  0.00    -0.244 A 
ATOM     32  H20 MOL d   1      27.236 -22.409   7.719  0.00  0.00     0.120 H 
BRANCH  29  33
ATOM     33  C13 MOL d   1      28.848 -20.308   7.024  0.00  0.00     0.067 A 
ATOM     34  C14 MOL d   1      29.476 -19.119   6.623  0.00  0.00    -0.118 A 
ATOM     35  C15 MOL d   1      30.730 -18.775   7.151  0.00  0.00    -0.057 A 
ATOM     36  H15 MOL d   1      29.001 -18.472   5.916  0.00  0.00     0.074 H 
ATOM     37  C16 MOL d   1      31.358 -19.622   8.076  0.00  0.00    -0.095 A 
ATOM     38  H16 MOL d   1      31.211 -17.865   6.847  0.00  0.00     0.074 H 
ATOM     39  C17 MOL d   1      30.732 -20.814   8.472  0.00  0.00    -0.057 A 
ATOM     40  H17 MOL d   1      32.313 -19.356   8.480  0.00  0.00     0.076 H 
ATOM     41  C18 MOL d   1      29.476 -21.158   7.944  0.00  0.00    -0.118 A 
ATOM     42  H18 MOL d   1      31.213 -21.463   9.175  0.00  0.00     0.074 H 
ATOM     43  H19 MOL d   1      28.995 -22.069   8.244  0.00  0.00     0.074 H 
ENDBRANCH  29  33
ENDBRANCH   1  23
BRANCH   1  44
ATOM     44  C20 MOL d   1      23.255 -23.149   6.845  0.00  0.00     0.122 C 
ATOM     45  H21 MOL d   1      22.871 -22.744   7.758  0.00  0.00     0.038 H 
ATOM     46  H22 MOL d   1      23.068 -22.470   6.044  0.00  0.00     0.038 H 
BRANCH  44  47
ATOM     47  O1  MOL d   1      22.613 -24.399   6.572  0.00  0.00    -0.464 OA
ATOM     48  H1  MOL d   1      22.010 -24.614   7.288  0.00  0.00     0.309 HD
ENDBRANCH  44  47
ENDBRANCH   1  44
TORSDOF 8
ENDMDL
MODEL 6
REMARK VINA RESULT:      -9.4      7.580     10.499
REMARK  8 active torsions:
REMARK  status: ('A' for Active; 'I' for Inactive)
REMARK    1  A    between atoms: O1_1  and  C20_22 
REMARK    2  A    between atoms: C1_2  and  C2_3 
REMARK    3  A    between atoms: C1_2  and  C8_10 
REMARK    4  A    between atoms: C1_2  and  C20_22 
REMARK    5  A    between atoms: C2_3  and  C21_23 
REMARK    6  A    between atoms: C3_4  and  C21_23 
REMARK    7  A    between atoms: C5_6  and  O3_25 
REMARK    8  A    between atoms: C12_14  and  C13_15 
ROOT
ATOM      1  C1  MOL d   1      25.607 -25.573   5.419  0.00  0.00    -0.299 C 
ATOM      2  H2  MOL d   1      25.725 -25.447   4.361  0.00  0.00     0.087 H 
ENDROOT
BRANCH   1   3
ATOM      3  C2  MOL d   1      24.326 -26.381   5.704  0.00  0.00     0.557 C 
ATOM      4  O2  MOL d   1      23.404 -25.883   6.401  0.00  0.00    -0.316 OA
BRANCH   3   5
ATOM      5  C21 MOL d   1      24.179 -27.806   5.131  0.00  0.00    -0.487 C 
BRANCH   5   6
ATOM      6  C3  MOL d   1      24.333 -29.027   6.054  0.00  0.00     0.494 C 
ATOM      7  C4  MOL d   1      24.880 -28.688   7.402  0.00  0.00    -0.233 C 
ATOM      8  C5  MOL d   1      24.667 -29.978   8.248  0.00  0.00     0.177 C 
ATOM      9  H4  MOL d   1      24.390 -27.866   7.887  0.00  0.00     0.079 H 
ATOM     10  H5  MOL d   1      25.921 -28.449   7.270  0.00  0.00     0.079 H 
ATOM     11  C6  MOL d   1      24.848 -31.245   7.343  0.00  0.00    -0.066 C 
ATOM     12  H6  MOL d   1      25.381 -29.938   9.051  0.00  0.00     0.042 H 
ATOM     13  N1  MOL d   1      25.918 -30.966   6.433  0.00  0.00    -0.620 N 
ATOM     14  H7  MOL d   1      23.974 -31.427   6.752  0.00  0.00     0.092 H 
ATOM     15  H8  MOL d   1      25.035 -32.097   7.966  0.00  0.00     0.092 H 
ATOM     16  C7  MOL d   1      25.372 -30.017   5.409  0.00  0.00    -0.062 C 
ATOM     17  H9  MOL d   1      26.663 -30.558   6.970  0.00  0.00     0.320 HD
ATOM     18  H10 MOL d   1      24.861 -30.544   4.622  0.00  0.00     0.095 H 
ATOM     19  H11 MOL d   1      26.213 -29.486   5.005  0.00  0.00     0.095 H 
ATOM     20  H3  MOL d   1      23.373 -29.485   6.201  0.00  0.00    -0.049 H 
BRANCH   8  21
ATOM     21  O3  MOL d   1      23.335 -30.060   8.787  0.00  0.00    -0.476 OA
ATOM     22  H23 MOL d   1      23.267 -30.800   9.391  0.00  0.00     0.292 HD
ENDBRANCH   8  21
ENDBRANCH   5   6
ENDBRANCH   3   5
ENDBRANCH   1   3
BRANCH   1  23
ATOM     23  C8  MOL d   1      25.495 -24.192   6.095  0.00  0.00     0.279 A 
ATOM     24  C9  MOL d   1      25.995 -24.005   7.393  0.00  0.00    -0.230 A 
ATOM     25  C10 MOL d   1      25.894 -22.749   8.007  0.00  0.00    -0.060 A 
ATOM     26  H12 MOL d   1      26.453 -24.818   7.914  0.00  0.00     0.112 H 
ATOM     27  C11 MOL d   1      25.297 -21.681   7.323  0.00  0.00    -0.142 A 
ATOM     28  H13 MOL d   1      26.273 -22.603   8.997  0.00  0.00     0.080 H 
ATOM     29  C12 MOL d   1      24.801 -21.867   6.026  0.00  0.00     0.059 A 
ATOM     30  H14 MOL d   1      25.220 -20.723   7.794  0.00  0.00     0.100 H 
ATOM     31  C19 MOL d   1      24.895 -23.124   5.409  0.00  0.00    -0.244 A 
ATOM     32  H20 MOL d   1      24.509 -23.266   4.419  0.00  0.00     0.120 H 
BRANCH  29  33
ATOM     33  C13 MOL d   1      24.152 -20.689   5.273  0.00  0.00     0.067 A 
ATOM     34  C14 MOL d   1      22.884 -20.221   5.651  0.00  0.00    -0.118 A 
ATOM     35  C15 MOL d   1      22.302 -19.142   4.968  0.00  0.00    -0.057 A 
ATOM     36  H15 MOL d   1      22.360 -20.684   6.461  0.00  0.00     0.074 H 
ATOM     37  C16 MOL d   1      22.984 -18.534   3.905  0.00  0.00    -0.095 A 
ATOM     38  H16 MOL d   1      21.333 -18.782   5.257  0.00  0.00     0.074 H 
ATOM     39  C17 MOL d   1      24.250 -19.007   3.523  0.00  0.00    -0.057 A 
ATOM     40  H17 MOL d   1      22.539 -17.710   3.387  0.00  0.00     0.076 H 
ATOM     41  C18 MOL d   1      24.834 -20.086   4.207  0.00  0.00    -0.118 A 
ATOM     42  H18 MOL d   1      24.770 -18.545   2.707  0.00  0.00     0.074 H 
ATOM     43  H19 MOL d   1      25.800 -20.449   3.918  0.00  0.00     0.074 H 
ENDBRANCH  29  33
ENDBRANCH   1  23
BRANCH   1  44
ATOM     44  C20 MOL d   1      26.837 -26.318   5.979  0.00  0.00     0.122 C 
ATOM     45  H21 MOL d   1      27.545 -25.607   6.352  0.00  0.00     0.038 H 
ATOM     46  H22 MOL d   1      26.531 -26.967   6.769  0.00  0.00     0.038 H 
BRANCH  44  47
ATOM     47  O1  MOL d   1      27.441 -27.089   4.936  0.00  0.00    -0.464 OA
ATOM     48  H1  MOL d   1      27.463 -28.015   5.191  0.00  0.00     0.309 HD
ENDBRANCH  44  47
ENDBRANCH   1  44
TORSDOF 8
ENDMDL
MODEL 7
REMARK VINA RESULT:      -8.6      7.305     10.518
REMARK  8 active torsions:
REMARK  status: ('A' for Active; 'I' for Inactive)
REMARK    1  A    between atoms: O1_1  and  C20_22 
REMARK    2  A    between atoms: C1_2  and  C2_3 
REMARK    3  A    between atoms: C1_2  and  C8_10 
REMARK    4  A    between atoms: C1_2  and  C20_22 
REMARK    5  A    between atoms: C2_3  and  C21_23 
REMARK    6  A    between atoms: C3_4  and  C21_23 
REMARK    7  A    between atoms: C5_6  and  O3_25 
REMARK    8  A    between atoms: C12_14  and  C13_15 
ROOT
ATOM      1  C1  MOL d   1      24.995 -25.557   5.930  0.00  0.00    -0.299 C 
ATOM      2  H2  MOL d   1      24.065 -25.945   6.292  0.00  0.00     0.087 H 
ENDROOT
BRANCH   1   3
ATOM      3  C2  MOL d   1      26.157 -26.417   6.464  0.00  0.00     0.557 C 
ATOM      4  O2  MOL d   1      27.303 -26.326   5.950  0.00  0.00    -0.316 OA
BRANCH   3   5
ATOM      5  C21 MOL d   1      25.910 -27.392   7.633  0.00  0.00    -0.487 C 
BRANCH   5   6
ATOM      6  C3  MOL d   1      25.506 -28.850   7.349  0.00  0.00     0.494 C 
ATOM      7  C4  MOL d   1      24.248 -28.974   6.553  0.00  0.00    -0.233 C 
ATOM      8  C5  MOL d   1      24.197 -30.472   6.130  0.00  0.00     0.177 C 
ATOM      9  H4  MOL d   1      24.216 -28.360   5.674  0.00  0.00     0.079 H 
ATOM     10  H5  MOL d   1      23.435 -28.701   7.202  0.00  0.00     0.079 H 
ATOM     11  C6  MOL d   1      24.800 -31.368   7.267  0.00  0.00    -0.066 C 
ATOM     12  H6  MOL d   1      23.166 -30.697   5.928  0.00  0.00     0.042 H 
ATOM     13  N1  MOL d   1      24.388 -30.800   8.515  0.00  0.00    -0.620 N 
ATOM     14  H7  MOL d   1      25.870 -31.347   7.251  0.00  0.00     0.092 H 
ATOM     15  H8  MOL d   1      24.466 -32.377   7.131  0.00  0.00     0.092 H 
ATOM     16  C7  MOL d   1      25.217 -29.568   8.719  0.00  0.00    -0.062 C 
ATOM     17  H9  MOL d   1      23.408 -30.590   8.435  0.00  0.00     0.320 HD
ATOM     18  H10 MOL d   1      26.169 -29.806   9.159  0.00  0.00     0.095 H 
ATOM     19  H11 MOL d   1      24.659 -28.930   9.379  0.00  0.00     0.095 H 
ATOM     20  H3  MOL d   1      26.288 -29.334   6.794  0.00  0.00    -0.049 H 
BRANCH   8  21
ATOM     21  O3  MOL d   1      24.989 -30.731   4.956  0.00  0.00    -0.476 OA
ATOM     22  H23 MOL d   1      25.816 -31.149   5.200  0.00  0.00     0.292 HD
ENDBRANCH   8  21
ENDBRANCH   5   6
ENDBRANCH   3   5
ENDBRANCH   1   3
BRANCH   1  23
ATOM     23  C8  MOL d   1      25.175 -24.105   6.415  0.00  0.00     0.279 A 
ATOM     24  C9  MOL d   1      25.902 -23.843   7.586  0.00  0.00    -0.230 A 
ATOM     25  C10 MOL d   1      26.065 -22.521   8.027  0.00  0.00    -0.060 A 
ATOM     26  H12 MOL d   1      26.330 -24.647   8.144  0.00  0.00     0.112 H 
ATOM     27  C11 MOL d   1      25.506 -21.465   7.294  0.00  0.00    -0.142 A 
ATOM     28  H13 MOL d   1      26.618 -22.318   8.921  0.00  0.00     0.080 H 
ATOM     29  C12 MOL d   1      24.783 -21.727   6.123  0.00  0.00     0.059 A 
ATOM     30  H14 MOL d   1      25.632 -20.457   7.632  0.00  0.00     0.100 H 
ATOM     31  C19 MOL d   1      24.613 -23.048   5.681  0.00  0.00    -0.244 A 
ATOM     32  H20 MOL d   1      24.054 -23.247   4.789  0.00  0.00     0.120 H 
BRANCH  29  33
ATOM     33  C13 MOL d   1      24.177 -20.563   5.316  0.00  0.00     0.067 A 
ATOM     34  C14 MOL d   1      24.904 -19.971   4.272  0.00  0.00    -0.118 A 
ATOM     35  C15 MOL d   1      24.344 -18.917   3.534  0.00  0.00    -0.057 A 
ATOM     36  H15 MOL d   1      25.887 -20.323   4.036  0.00  0.00     0.074 H 
ATOM     37  C16 MOL d   1      23.058 -18.451   3.842  0.00  0.00    -0.095 A 
ATOM     38  H16 MOL d   1      24.899 -18.465   2.735  0.00  0.00     0.074 H 
ATOM     39  C17 MOL d   1      22.332 -19.039   4.891  0.00  0.00    -0.057 A 
ATOM     40  H17 MOL d   1      22.631 -17.649   3.277  0.00  0.00     0.076 H 
ATOM     41  C18 MOL d   1      22.893 -20.095   5.629  0.00  0.00    -0.118 A 
ATOM     42  H18 MOL d   1      21.351 -18.680   5.130  0.00  0.00     0.074 H 
ATOM     43  H19 MOL d   1      22.341 -20.546   6.430  0.00  0.00     0.074 H 
ENDBRANCH  29  33
ENDBRANCH   1  23
BRANCH   1  44
ATOM     44  C20 MOL d   1      24.987 -25.582   4.386  0.00  0.00     0.122 C 
ATOM     45  H21 MOL d   1      23.978 -25.521   4.034  0.00  0.00     0.038 H 
ATOM     46  H22 MOL d   1      25.548 -24.754   4.013  0.00  0.00     0.038 H 
BRANCH  44  47
ATOM     47  O1  MOL d   1      25.577 -26.803   3.928  0.00  0.00    -0.464 OA
ATOM     48  H1  MOL d   1      24.973 -27.247   3.329  0.00  0.00     0.309 HD
ENDBRANCH  44  47
ENDBRANCH   1  44
TORSDOF 8
ENDMDL
MODEL 8
REMARK VINA RESULT:      -8.4      6.358     10.978
REMARK  8 active torsions:
REMARK  status: ('A' for Active; 'I' for Inactive)
REMARK    1  A    between atoms: O1_1  and  C20_22 
REMARK    2  A    between atoms: C1_2  and  C2_3 
REMARK    3  A    between atoms: C1_2  and  C8_10 
REMARK    4  A    between atoms: C1_2  and  C20_22 
REMARK    5  A    between atoms: C2_3  and  C21_23 
REMARK    6  A    between atoms: C3_4  and  C21_23 
REMARK    7  A    between atoms: C5_6  and  O3_25 
REMARK    8  A    between atoms: C12_14  and  C13_15 
ROOT
ATOM      1  C1  MOL d   1      24.679 -26.345   5.528  0.00  0.00    -0.299 C 
ATOM      2  H2  MOL d   1      23.779 -26.704   5.071  0.00  0.00     0.087 H 
ENDROOT
BRANCH   1   3
ATOM      3  C2  MOL d   1      25.078 -27.280   6.687  0.00  0.00     0.557 C 
ATOM      4  O2  MOL d   1      26.008 -26.956   7.471  0.00  0.00    -0.316 OA
BRANCH   3   5
ATOM      5  C21 MOL d   1      24.331 -28.615   6.882  0.00  0.00    -0.487 C 
BRANCH   5   6
ATOM      6  C3  MOL d   1      25.067 -29.831   7.473  0.00  0.00     0.494 C 
ATOM      7  C4  MOL d   1      24.797 -31.104   6.739  0.00  0.00    -0.233 C 
ATOM      8  C5  MOL d   1      25.849 -32.109   7.294  0.00  0.00     0.177 C 
ATOM      9  H4  MOL d   1      24.907 -31.034   5.674  0.00  0.00     0.079 H 
ATOM     10  H5  MOL d   1      23.787 -31.394   6.969  0.00  0.00     0.079 H 
ATOM     11  C6  MOL d   1      26.109 -31.821   8.814  0.00  0.00    -0.066 C 
ATOM     12  H6  MOL d   1      25.452 -33.092   7.121  0.00  0.00     0.042 H 
ATOM     13  N1  MOL d   1      24.852 -31.462   9.398  0.00  0.00    -0.620 N 
ATOM     14  H7  MOL d   1      26.765 -30.985   8.943  0.00  0.00     0.092 H 
ATOM     15  H8  MOL d   1      26.552 -32.688   9.262  0.00  0.00     0.092 H 
ATOM     16  C7  MOL d   1      24.550 -30.067   8.940  0.00  0.00    -0.062 C 
ATOM     17  H9  MOL d   1      24.173 -32.126   9.068  0.00  0.00     0.320 HD
ATOM     18  H10 MOL d   1      25.032 -29.338   9.566  0.00  0.00     0.095 H 
ATOM     19  H11 MOL d   1      23.484 -29.951   8.998  0.00  0.00     0.095 H 
ATOM     20  H3  MOL d   1      26.126 -29.657   7.438  0.00  0.00    -0.049 H 
BRANCH   8  21
ATOM     21  O3  MOL d   1      27.124 -31.978   6.639  0.00  0.00    -0.476 OA
ATOM     22  H23 MOL d   1      27.781 -31.655   7.256  0.00  0.00     0.292 HD
ENDBRANCH   8  21
ENDBRANCH   5   6
ENDBRANCH   3   5
ENDBRANCH   1   3
BRANCH   1  23
ATOM     23  C8  MOL d   1      24.450 -24.924   6.080  0.00  0.00     0.279 A 
ATOM     24  C9  MOL d   1      23.179 -24.547   6.537  0.00  0.00    -0.230 A 
ATOM     25  C10 MOL d   1      22.972 -23.253   7.039  0.00  0.00    -0.060 A 
ATOM     26  H12 MOL d   1      22.368 -25.241   6.504  0.00  0.00     0.112 H 
ATOM     27  C11 MOL d   1      24.035 -22.342   7.086  0.00  0.00    -0.142 A 
ATOM     28  H13 MOL d   1      22.002 -22.962   7.387  0.00  0.00     0.080 H 
ATOM     29  C12 MOL d   1      25.306 -22.721   6.632  0.00  0.00     0.059 A 
ATOM     30  H14 MOL d   1      23.875 -21.356   7.469  0.00  0.00     0.100 H 
ATOM     31  C19 MOL d   1      25.516 -24.012   6.125  0.00  0.00    -0.244 A 
ATOM     32  H20 MOL d   1      26.487 -24.297   5.772  0.00  0.00     0.120 H 
BRANCH  29  33
ATOM     33  C13 MOL d   1      26.475 -21.719   6.693  0.00  0.00     0.067 A 
ATOM     34  C14 MOL d   1      27.467 -21.849   7.677  0.00  0.00    -0.118 A 
ATOM     35  C15 MOL d   1      28.535 -20.939   7.722  0.00  0.00    -0.057 A 
ATOM     36  H15 MOL d   1      27.413 -22.642   8.393  0.00  0.00     0.074 H 
ATOM     37  C16 MOL d   1      28.609 -19.897   6.788  0.00  0.00    -0.095 A 
ATOM     38  H16 MOL d   1      29.295 -21.039   8.473  0.00  0.00     0.074 H 
ATOM     39  C17 MOL d   1      27.612 -19.763   5.808  0.00  0.00    -0.057 A 
ATOM     40  H17 MOL d   1      29.425 -19.205   6.823  0.00  0.00     0.076 H 
ATOM     41  C18 MOL d   1      26.544 -20.674   5.761  0.00  0.00    -0.118 A 
ATOM     42  H18 MOL d   1      27.666 -18.963   5.096  0.00  0.00     0.074 H 
ATOM     43  H19 MOL d   1      25.782 -20.575   5.014  0.00  0.00     0.074 H 
ENDBRANCH  29  33
ENDBRANCH   1  23
BRANCH   1  44
ATOM     44  C20 MOL d   1      25.803 -26.307   4.471  0.00  0.00     0.122 C 
ATOM     45  H21 MOL d   1      25.432 -26.693   3.543  0.00  0.00     0.038 H 
ATOM     46  H22 MOL d   1      26.130 -25.301   4.335  0.00  0.00     0.038 H 
BRANCH  44  47
ATOM     47  O1  MOL d   1      26.901 -27.111   4.916  0.00  0.00    -0.464 OA
ATOM     48  H1  MOL d   1      26.852 -27.978   4.506  0.00  0.00     0.309 HD
ENDBRANCH  44  47
ENDBRANCH   1  44
TORSDOF 8
ENDMDL
MODEL 9
REMARK VINA RESULT:      -8.4      4.272      9.070
REMARK  8 active torsions:
REMARK  status: ('A' for Active; 'I' for Inactive)
REMARK    1  A    between atoms: O1_1  and  C20_22 
REMARK    2  A    between atoms: C1_2  and  C2_3 
REMARK    3  A    between atoms: C1_2  and  C8_10 
REMARK    4  A    between atoms: C1_2  and  C20_22 
REMARK    5  A    between atoms: C2_3  and  C21_23 
REMARK    6  A    between atoms: C3_4  and  C21_23 
REMARK    7  A    between atoms: C5_6  and  O3_25 
REMARK    8  A    between atoms: C12_14  and  C13_15 
ROOT
ATOM      1  C1  MOL d   1      26.806 -21.828   7.234  0.00  0.00    -0.299 C 
ATOM      2  H2  MOL d   1      27.282 -22.747   6.952  0.00  0.00     0.087 H 
ENDROOT
BRANCH   1   3
ATOM      3  C2  MOL d   1      25.477 -21.679   6.468  0.00  0.00     0.557 C 
ATOM      4  O2  MOL d   1      24.725 -20.694   6.691  0.00  0.00    -0.316 OA
BRANCH   3   5
ATOM      5  C21 MOL d   1      25.071 -22.743   5.428  0.00  0.00    -0.487 C 
BRANCH   5   6
ATOM      6  C3  MOL d   1      25.191 -24.239   5.769  0.00  0.00     0.494 C 
ATOM      7  C4  MOL d   1      25.308 -25.116   4.565  0.00  0.00    -0.233 C 
ATOM      8  C5  MOL d   1      25.718 -26.508   5.130  0.00  0.00     0.177 C 
ATOM      9  H4  MOL d   1      26.043 -24.796   3.852  0.00  0.00     0.079 H 
ATOM     10  H5  MOL d   1      24.343 -25.131   4.091  0.00  0.00     0.079 H 
ATOM     11  C6  MOL d   1      25.034 -26.740   6.522  0.00  0.00    -0.066 C 
ATOM     12  H6  MOL d   1      25.421 -27.234   4.396  0.00  0.00     0.042 H 
ATOM     13  N1  MOL d   1      23.717 -26.185   6.444  0.00  0.00    -0.620 N 
ATOM     14  H7  MOL d   1      25.550 -26.216   7.300  0.00  0.00     0.092 H 
ATOM     15  H8  MOL d   1      25.038 -27.789   6.743  0.00  0.00     0.092 H 
ATOM     16  C7  MOL d   1      23.877 -24.695   6.503  0.00  0.00    -0.062 C 
ATOM     17  H9  MOL d   1      23.319 -26.490   5.573  0.00  0.00     0.320 HD
ATOM     18  H10 MOL d   1      23.946 -24.350   7.519  0.00  0.00     0.095 H 
ATOM     19  H11 MOL d   1      23.007 -24.276   6.033  0.00  0.00     0.095 H 
ATOM     20  H3  MOL d   1      26.068 -24.398   6.370  0.00  0.00    -0.049 H 
BRANCH   8  21
ATOM     21  O3  MOL d   1      27.136 -26.603   5.361  0.00  0.00    -0.476 OA
ATOM     22  H23 MOL d   1      27.310 -27.144   6.133  0.00  0.00     0.292 HD
ENDBRANCH   8  21
ENDBRANCH   5   6
ENDBRANCH   3   5
ENDBRANCH   1   3
BRANCH   1  23
ATOM     23  C8  MOL d   1      27.726 -20.641   6.887  0.00  0.00     0.279 A 
ATOM     24  C9  MOL d   1      27.748 -20.129   5.581  0.00  0.00    -0.230 A 
ATOM     25  C10 MOL d   1      28.585 -19.049   5.267  0.00  0.00    -0.060 A 
ATOM     26  H12 MOL d   1      27.129 -20.561   4.825  0.00  0.00     0.112 H 
ATOM     27  C11 MOL d   1      29.395 -18.480   6.259  0.00  0.00    -0.142 A 
ATOM     28  H13 MOL d   1      28.605 -18.657   4.271  0.00  0.00     0.080 H 
ATOM     29  C12 MOL d   1      29.370 -18.989   7.564  0.00  0.00     0.059 A 
ATOM     30  H14 MOL d   1      30.033 -17.655   6.017  0.00  0.00     0.100 H 
ATOM     31  C19 MOL d   1      28.539 -20.073   7.881  0.00  0.00    -0.244 A 
ATOM     32  H20 MOL d   1      28.526 -20.465   8.879  0.00  0.00     0.120 H 
BRANCH  29  33
ATOM     33  C13 MOL d   1      30.257 -18.355   8.654  0.00  0.00     0.067 A 
ATOM     34  C14 MOL d   1      31.601 -18.055   8.387  0.00  0.00    -0.118 A 
ATOM     35  C15 MOL d   1      32.401 -17.470   9.380  0.00  0.00    -0.057 A 
ATOM     36  H15 MOL d   1      32.018 -18.270   7.425  0.00  0.00     0.074 H 
ATOM     37  C16 MOL d   1      31.860 -17.189  10.642  0.00  0.00    -0.095 A 
ATOM     38  H16 MOL d   1      33.429 -17.238   9.176  0.00  0.00     0.074 H 
ATOM     39  C17 MOL d   1      30.516 -17.496  10.912  0.00  0.00    -0.057 A 
ATOM     40  H17 MOL d   1      32.471 -16.741  11.398  0.00  0.00     0.076 H 
ATOM     41  C18 MOL d   1      29.715 -18.080   9.917  0.00  0.00    -0.118 A 
ATOM     42  H18 MOL d   1      30.103 -17.285  11.878  0.00  0.00     0.074 H 
ATOM     43  H19 MOL d   1      28.688 -18.316  10.120  0.00  0.00     0.074 H 
ENDBRANCH  29  33
ENDBRANCH   1  23
BRANCH   1  44
ATOM     44  C20 MOL d   1      26.541 -21.842   8.754  0.00  0.00     0.122 C 
ATOM     45  H21 MOL d   1      25.917 -22.676   9.000  0.00  0.00     0.038 H 
ATOM     46  H22 MOL d   1      27.468 -21.922   9.277  0.00  0.00     0.038 H 
BRANCH  44  47
ATOM     47  O1  MOL d   1      25.883 -20.628   9.132  0.00  0.00    -0.464 OA
ATOM     48  H1  MOL d   1      25.253 -20.378   8.451  0.00  0.00     0.309 HD
ENDBRANCH  44  47
ENDBRANCH   1  44
TORSDOF 8
ENDMDL
