MODEL 1
REMARK VINA RESULT:      -7.8      0.000      0.000
REMARK  Name = *****
REMARK                            x       y       z     vdW  Elec       q    Type
REMARK                         _______ _______ _______ _____ _____    ______ ____
ROOT
ATOM      1  C   LIG    1       25.548 -21.607   7.834  0.00  0.00    +0.180 C 
ATOM      2  O   LIG    1       25.658 -21.411   9.036  0.00  0.00    -0.290 OA
ENDROOT
BRANCH   1   3
ATOM      3  C   LIG    1       24.992 -22.936   7.369  0.00  0.00    +0.020 A 
ATOM      4  C   LIG    1       25.891 -23.978   7.085  0.00  0.00    +0.031 A 
ATOM      5  C   LIG    1       25.439 -25.151   6.474  0.00  0.00    +0.042 A 
ATOM      6 CL   LIG    1       26.552 -26.398   6.069  0.00  0.00    -0.084 Cl
ATOM      7  C   LIG    1       24.092 -25.308   6.155  0.00  0.00    +0.020 A 
ATOM      8  C   LIG    1       23.181 -24.319   6.517  0.00  0.00    +0.002 A 
ATOM      9  C   LIG    1       23.626 -23.148   7.140  0.00  0.00    +0.011 A 
ENDBRANCH   1   3
BRANCH   1  11
ATOM     10  C   LIG    1       27.471 -20.300   6.913  0.00  0.00    +0.032 C 
ATOM     11  C   LIG    1       25.964 -20.557   6.769  0.00  0.00    +0.123 C 
BRANCH  11  12
ATOM     12  N   LIG    1       25.734 -20.977   5.361  0.00  0.00    -0.302 NA
ATOM     13  H   LIG    1       25.669 -21.998   5.340  0.00  0.00    +0.123 HD
BRANCH  12  14
ATOM     14  C   LIG    1       24.614 -20.398   4.592  0.00  0.00    +0.011 C 
ATOM     15  C   LIG    1       25.061 -19.210   3.723  0.00  0.00    +0.027 C 
ATOM     16  C   LIG    1       23.434 -19.997   5.484  0.00  0.00    +0.027 C 
ATOM     17  C   LIG    1       24.089 -21.487   3.622  0.00  0.00    +0.027 C 
ENDBRANCH  12  14
ENDBRANCH  11  12
ENDBRANCH   1  11
TORSDOF 4
ENDMDL
MODEL 2
REMARK VINA RESULT:      -7.6      2.068      3.888
REMARK  Name = *****
REMARK                            x       y       z     vdW  Elec       q    Type
REMARK                         _______ _______ _______ _____ _____    ______ ____
ROOT
ATOM      1  C   LIG    1       26.275 -21.063   8.319  0.00  0.00    +0.180 C 
ATOM      2  O   LIG    1       25.980 -20.504   9.365  0.00  0.00    -0.290 OA
ENDROOT
BRANCH   1   3
ATOM      3  C   LIG    1       25.360 -22.153   7.802  0.00  0.00    +0.020 A 
ATOM      4  C   LIG    1       25.918 -23.402   7.476  0.00  0.00    +0.031 A 
ATOM      5  C   LIG    1       25.149 -24.366   6.821  0.00  0.00    +0.042 A 
ATOM      6 CL   LIG    1       25.854 -25.869   6.366  0.00  0.00    -0.084 Cl
ATOM      7  C   LIG    1       23.819 -24.111   6.497  0.00  0.00    +0.020 A 
ATOM      8  C   LIG    1       23.233 -22.913   6.897  0.00  0.00    +0.002 A 
ATOM      9  C   LIG    1       23.994 -21.947   7.565  0.00  0.00    +0.011 A 
ENDBRANCH   1   3
BRANCH   1  11
ATOM     10  C   LIG    1       27.117 -20.250   6.109  0.00  0.00    +0.032 C 
ATOM     11  C   LIG    1       27.551 -20.712   7.508  0.00  0.00    +0.123 C 
BRANCH  11  12
ATOM     12  N   LIG    1       28.370 -19.613   8.086  0.00  0.00    -0.302 NA
ATOM     13  H   LIG    1       28.093 -19.490   9.063  0.00  0.00    +0.123 HD
BRANCH  12  14
ATOM     14  C   LIG    1       29.843 -19.664   7.995  0.00  0.00    +0.011 C 
ATOM     15  C   LIG    1       30.354 -19.222   6.613  0.00  0.00    +0.027 C 
ATOM     16  C   LIG    1       30.407 -21.042   8.359  0.00  0.00    +0.027 C 
ATOM     17  C   LIG    1       30.419 -18.661   9.026  0.00  0.00    +0.027 C 
ENDBRANCH  12  14
ENDBRANCH  11  12
ENDBRANCH   1  11
TORSDOF 4
ENDMDL
MODEL 3
REMARK VINA RESULT:      -7.5      2.764      5.109
REMARK  Name = *****
REMARK                            x       y       z     vdW  Elec       q    Type
REMARK                         _______ _______ _______ _____ _____    ______ ____
ROOT
ATOM      1  C   LIG    1       25.525 -20.606   5.108  0.00  0.00    +0.180 C 
ATOM      2  O   LIG    1       25.559 -20.041   4.024  0.00  0.00    -0.290 OA
ENDROOT
BRANCH   1   3
ATOM      3  C   LIG    1       26.587 -20.264   6.132  0.00  0.00    +0.020 A 
ATOM      4  C   LIG    1       27.828 -19.785   5.678  0.00  0.00    +0.031 A 
ATOM      5  C   LIG    1       28.894 -19.640   6.570  0.00  0.00    +0.042 A 
ATOM      6 CL   LIG    1       30.431 -19.115   6.000  0.00  0.00    -0.084 Cl
ATOM      7  C   LIG    1       28.737 -19.952   7.918  0.00  0.00    +0.020 A 
ATOM      8  C   LIG    1       27.486 -20.339   8.392  0.00  0.00    +0.002 A 
ATOM      9  C   LIG    1       26.411 -20.474   7.506  0.00  0.00    +0.011 A 
ENDBRANCH   1   3
BRANCH   1  11
ATOM     10  C   LIG    1       23.094 -21.169   4.948  0.00  0.00    +0.032 C 
ATOM     11  C   LIG    1       24.450 -21.664   5.472  0.00  0.00    +0.123 C 
BRANCH  11  12
ATOM     12  N   LIG    1       24.675 -23.008   4.875  0.00  0.00    -0.302 NA
ATOM     13  H   LIG    1       25.508 -22.958   4.284  0.00  0.00    +0.123 HD
BRANCH  12  14
ATOM     14  C   LIG    1       24.762 -24.197   5.746  0.00  0.00    +0.011 C 
ATOM     15  C   LIG    1       25.103 -25.472   4.956  0.00  0.00    +0.027 C 
ATOM     16  C   LIG    1       23.494 -24.408   6.582  0.00  0.00    +0.027 C 
ATOM     17  C   LIG    1       25.922 -23.970   6.749  0.00  0.00    +0.027 C 
ENDBRANCH  12  14
ENDBRANCH  11  12
ENDBRANCH   1  11
TORSDOF 4
ENDMDL
MODEL 4
REMARK VINA RESULT:      -7.4      2.140      4.682
REMARK  Name = *****
REMARK                            x       y       z     vdW  Elec       q    Type
REMARK                         _______ _______ _______ _____ _____    ______ ____
ROOT
ATOM      1  C   LIG    1       25.333 -20.994   7.293  0.00  0.00    +0.180 C 
ATOM      2  O   LIG    1       24.913 -20.578   8.363  0.00  0.00    -0.290 OA
ENDROOT
BRANCH   1   3
ATOM      3  C   LIG    1       26.793 -20.775   6.958  0.00  0.00    +0.020 A 
ATOM      4  C   LIG    1       27.767 -21.350   7.792  0.00  0.00    +0.031 A 
ATOM      5  C   LIG    1       29.115 -21.017   7.632  0.00  0.00    +0.042 A 
ATOM      6 CL   LIG    1       30.298 -21.672   8.697  0.00  0.00    -0.084 Cl
ATOM      7  C   LIG    1       29.511 -20.127   6.636  0.00  0.00    +0.020 A 
ATOM      8  C   LIG    1       28.564 -19.626   5.748  0.00  0.00    +0.002 A 
ATOM      9  C   LIG    1       27.214 -19.965   5.895  0.00  0.00    +0.011 A 
ENDBRANCH   1   3
BRANCH   1  11
ATOM     10  C   LIG    1       23.969 -20.696   5.218  0.00  0.00    +0.032 C 
ATOM     11  C   LIG    1       24.431 -21.723   6.262  0.00  0.00    +0.123 C 
BRANCH  11  12
ATOM     12  N   LIG    1       25.104 -22.820   5.515  0.00  0.00    -0.302 NA
ATOM     13  H   LIG    1       26.109 -22.629   5.508  0.00  0.00    +0.123 HD
BRANCH  12  14
ATOM     14  C   LIG    1       24.873 -24.226   5.902  0.00  0.00    +0.011 C 
ATOM     15  C   LIG    1       25.043 -25.190   4.715  0.00  0.00    +0.027 C 
ATOM     16  C   LIG    1       23.509 -24.435   6.571  0.00  0.00    +0.027 C 
ATOM     17  C   LIG    1       25.946 -24.614   6.950  0.00  0.00    +0.027 C 
ENDBRANCH  12  14
ENDBRANCH  11  12
ENDBRANCH   1  11
TORSDOF 4
ENDMDL
MODEL 5
REMARK VINA RESULT:      -7.4      2.639      5.302
REMARK  Name = *****
REMARK                            x       y       z     vdW  Elec       q    Type
REMARK                         _______ _______ _______ _____ _____    ______ ____
ROOT
ATOM      1  C   LIG    1       26.586 -20.462   5.737  0.00  0.00    +0.180 C 
ATOM      2  O   LIG    1       26.120 -19.829   4.801  0.00  0.00    -0.290 OA
ENDROOT
BRANCH   1   3
ATOM      3  C   LIG    1       28.015 -20.184   6.154  0.00  0.00    +0.020 A 
ATOM      4  C   LIG    1       28.614 -21.027   7.106  0.00  0.00    +0.031 A 
ATOM      5  C   LIG    1       29.855 -20.696   7.657  0.00  0.00    +0.042 A 
ATOM      6 CL   LIG    1       30.555 -21.696   8.869  0.00  0.00    -0.084 Cl
ATOM      7  C   LIG    1       30.519 -19.538   7.259  0.00  0.00    +0.020 A 
ATOM      8  C   LIG    1       29.976 -18.747   6.251  0.00  0.00    +0.002 A 
ATOM      9  C   LIG    1       28.740 -19.080   5.686  0.00  0.00    +0.011 A 
ENDBRANCH   1   3
BRANCH   1  11
ATOM     10  C   LIG    1       24.710 -20.837   7.347  0.00  0.00    +0.032 C 
ATOM     11  C   LIG    1       25.781 -21.545   6.505  0.00  0.00    +0.123 C 
BRANCH  11  12
ATOM     12  N   LIG    1       25.068 -22.520   5.636  0.00  0.00    -0.302 NA
ATOM     13  H   LIG    1       25.536 -22.537   4.727  0.00  0.00    +0.123 HD
BRANCH  12  14
ATOM     14  C   LIG    1       24.851 -23.903   6.103  0.00  0.00    +0.011 C 
ATOM     15  C   LIG    1       23.424 -24.117   6.637  0.00  0.00    +0.027 C 
ATOM     16  C   LIG    1       25.885 -24.340   7.147  0.00  0.00    +0.027 C 
ATOM     17  C   LIG    1       25.019 -24.849   4.887  0.00  0.00    +0.027 C 
ENDBRANCH  12  14
ENDBRANCH  11  12
ENDBRANCH   1  11
TORSDOF 4
ENDMDL
MODEL 6
REMARK VINA RESULT:      -7.1      2.422      4.184
REMARK  Name = *****
REMARK                            x       y       z     vdW  Elec       q    Type
REMARK                         _______ _______ _______ _____ _____    ______ ____
ROOT
ATOM      1  C   LIG    1       25.446 -20.917   7.652  0.00  0.00    +0.180 C 
ATOM      2  O   LIG    1       25.193 -20.703   8.829  0.00  0.00    -0.290 OA
ENDROOT
BRANCH   1   3
ATOM      3  C   LIG    1       26.872 -20.736   7.177  0.00  0.00    +0.020 A 
ATOM      4  C   LIG    1       27.915 -21.243   7.972  0.00  0.00    +0.031 A 
ATOM      5  C   LIG    1       29.243 -20.934   7.671  0.00  0.00    +0.042 A 
ATOM      6 CL   LIG    1       30.513 -21.502   8.683  0.00  0.00    -0.084 Cl
ATOM      7  C   LIG    1       29.552 -20.134   6.572  0.00  0.00    +0.020 A 
ATOM      8  C   LIG    1       28.532 -19.705   5.727  0.00  0.00    +0.002 A 
ATOM      9  C   LIG    1       27.200 -20.022   6.017  0.00  0.00    +0.011 A 
ENDBRANCH   1   3
BRANCH   1  11
ATOM     10  C   LIG    1       23.646 -22.589   7.185  0.00  0.00    +0.032 C 
ATOM     11  C   LIG    1       24.366 -21.353   6.626  0.00  0.00    +0.123 C 
BRANCH  11  12
ATOM     12  N   LIG    1       23.318 -20.332   6.357  0.00  0.00    -0.302 NA
ATOM     13  H   LIG    1       23.611 -19.453   6.791  0.00  0.00    +0.123 HD
BRANCH  12  14
ATOM     14  C   LIG    1       22.878 -20.074   4.972  0.00  0.00    +0.011 C 
ATOM     15  C   LIG    1       23.980 -20.386   3.945  0.00  0.00    +0.027 C 
ATOM     16  C   LIG    1       22.355 -18.645   4.778  0.00  0.00    +0.027 C 
ATOM     17  C   LIG    1       21.696 -21.026   4.662  0.00  0.00    +0.027 C 
ENDBRANCH  12  14
ENDBRANCH  11  12
ENDBRANCH   1  11
TORSDOF 4
ENDMDL
MODEL 7
REMARK VINA RESULT:      -7.1      2.987      4.811
REMARK  Name = *****
REMARK                            x       y       z     vdW  Elec       q    Type
REMARK                         _______ _______ _______ _____ _____    ______ ____
ROOT
ATOM      1  C   LIG    1       26.530 -20.765   8.256  0.00  0.00    +0.180 C 
ATOM      2  O   LIG    1       26.236 -20.318   9.356  0.00  0.00    -0.290 OA
ENDROOT
BRANCH   1   3
ATOM      3  C   LIG    1       25.462 -21.491   7.465  0.00  0.00    +0.020 A 
ATOM      4  C   LIG    1       24.535 -20.730   6.732  0.00  0.00    +0.031 A 
ATOM      5  C   LIG    1       23.425 -21.346   6.147  0.00  0.00    +0.042 A 
ATOM      6 CL   LIG    1       22.258 -20.403   5.305  0.00  0.00    -0.084 Cl
ATOM      7  C   LIG    1       23.233 -22.720   6.269  0.00  0.00    +0.020 A 
ATOM      8  C   LIG    1       24.194 -23.494   6.915  0.00  0.00    +0.002 A 
ATOM      9  C   LIG    1       25.314 -22.884   7.492  0.00  0.00    +0.011 A 
ENDBRANCH   1   3
BRANCH   1  11
ATOM     10  C   LIG    1       27.800 -20.243   6.166  0.00  0.00    +0.032 C 
ATOM     11  C   LIG    1       27.950 -20.629   7.645  0.00  0.00    +0.123 C 
BRANCH  11  12
ATOM     12  N   LIG    1       28.799 -19.583   8.276  0.00  0.00    -0.302 NA
ATOM     13  H   LIG    1       28.467 -19.438   9.233  0.00  0.00    +0.123 HD
BRANCH  12  14
ATOM     14  C   LIG    1       30.268 -19.731   8.283  0.00  0.00    +0.011 C 
ATOM     15  C   LIG    1       30.903 -19.277   6.958  0.00  0.00    +0.027 C 
ATOM     16  C   LIG    1       30.714 -21.156   8.631  0.00  0.00    +0.027 C 
ATOM     17  C   LIG    1       30.834 -18.806   9.390  0.00  0.00    +0.027 C 
ENDBRANCH  12  14
ENDBRANCH  11  12
ENDBRANCH   1  11
TORSDOF 4
ENDMDL
MODEL 8
REMARK VINA RESULT:      -7.0      2.928      4.933
REMARK  Name = *****
REMARK                            x       y       z     vdW  Elec       q    Type
REMARK                         _______ _______ _______ _____ _____    ______ ____
ROOT
ATOM      1  C   LIG    1       24.839 -22.699   5.410  0.00  0.00    +0.180 C 
ATOM      2  O   LIG    1       24.707 -23.704   4.726  0.00  0.00    -0.290 OA
ENDROOT
BRANCH   1   3
ATOM      3  C   LIG    1       24.198 -21.413   4.932  0.00  0.00    +0.020 A 
ATOM      4  C   LIG    1       24.995 -20.477   4.252  0.00  0.00    +0.031 A 
ATOM      5  C   LIG    1       24.495 -19.204   3.964  0.00  0.00    +0.042 A 
ATOM      6 CL   LIG    1       25.495 -18.039   3.188  0.00  0.00    -0.084 Cl
ATOM      7  C   LIG    1       23.198 -18.854   4.332  0.00  0.00    +0.020 A 
ATOM      8  C   LIG    1       22.371 -19.805   4.923  0.00  0.00    +0.002 A 
ATOM      9  C   LIG    1       22.862 -21.086   5.203  0.00  0.00    +0.011 A 
ENDBRANCH   1   3
BRANCH   1  11
ATOM     10  C   LIG    1       25.652 -24.109   7.308  0.00  0.00    +0.032 C 
ATOM     11  C   LIG    1       25.643 -22.684   6.737  0.00  0.00    +0.123 C 
BRANCH  11  12
ATOM     12  N   LIG    1       27.066 -22.271   6.596  0.00  0.00    -0.302 NA
ATOM     13  H   LIG    1       27.312 -22.314   5.604  0.00  0.00    +0.123 HD
BRANCH  12  14
ATOM     14  C   LIG    1       27.520 -20.984   7.160  0.00  0.00    +0.011 C 
ATOM     15  C   LIG    1       26.515 -20.406   8.170  0.00  0.00    +0.027 C 
ATOM     16  C   LIG    1       27.846 -19.949   6.076  0.00  0.00    +0.027 C 
ATOM     17  C   LIG    1       28.836 -21.243   7.937  0.00  0.00    +0.027 C 
ENDBRANCH  12  14
ENDBRANCH  11  12
ENDBRANCH   1  11
TORSDOF 4
ENDMDL
MODEL 9
REMARK VINA RESULT:      -7.0      4.654      7.005
REMARK  Name = *****
REMARK                            x       y       z     vdW  Elec       q    Type
REMARK                         _______ _______ _______ _____ _____    ______ ____
ROOT
ATOM      1  C   LIG    1       30.533 -19.670   7.487  0.00  0.00    +0.180 C 
ATOM      2  O   LIG    1       31.372 -19.405   6.637  0.00  0.00    -0.290 OA
ENDROOT
BRANCH   1   3
ATOM      3  C   LIG    1       29.086 -19.786   7.059  0.00  0.00    +0.020 A 
ATOM      4  C   LIG    1       28.136 -20.203   8.007  0.00  0.00    +0.031 A 
ATOM      5  C   LIG    1       26.831 -20.505   7.608  0.00  0.00    +0.042 A 
ATOM      6 CL   LIG    1       25.688 -21.078   8.760  0.00  0.00    -0.084 Cl
ATOM      7  C   LIG    1       26.451 -20.382   6.274  0.00  0.00    +0.020 A 
ATOM      8  C   LIG    1       27.360 -19.881   5.345  0.00  0.00    +0.002 A 
ATOM      9  C   LIG    1       28.665 -19.564   5.740  0.00  0.00    +0.011 A 
ENDBRANCH   1   3
BRANCH   1  11
ATOM     10  C   LIG    1       31.445 -21.303   9.147  0.00  0.00    +0.032 C 
ATOM     11  C   LIG    1       30.889 -19.881   8.983  0.00  0.00    +0.123 C 
BRANCH  11  12
ATOM     12  N   LIG    1       31.925 -18.953   9.510  0.00  0.00    -0.302 NA
ATOM     13  H   LIG    1       32.671 -18.879   8.814  0.00  0.00    +0.123 HD
BRANCH  12  14
ATOM     14  C   LIG    1       31.542 -17.602   9.966  0.00  0.00    +0.011 C 
ATOM     15  C   LIG    1       31.915 -17.359  11.438  0.00  0.00    +0.027 C 
ATOM     16  C   LIG    1       30.056 -17.302   9.733  0.00  0.00    +0.027 C 
ATOM     17  C   LIG    1       32.340 -16.572   9.127  0.00  0.00    +0.027 C 
ENDBRANCH  12  14
ENDBRANCH  11  12
ENDBRANCH   1  11
TORSDOF 4
ENDMDL
