MODEL 1
REMARK VINA RESULT:      -0.1      0.000      0.000
REMARK  Name = *****
REMARK                            x       y       z     vdW  Elec       q    Type
REMARK                         _______ _______ _______ _____ _____    ______ ____
ROOT
ATOM      1  C   LIG    1       26.786 -16.054   4.071  0.00  0.00    -0.017 C 
ATOM      2  C   LIG    1       25.509 -15.861   3.675  0.00  0.00    -0.013 C 
ATOM      3  C   LIG    1       24.576 -17.022   3.731  0.00  0.00    -0.004 A 
ATOM      4  C   LIG    1       23.330 -17.012   4.395  0.00  0.00    +0.016 A 
ATOM      5  C   LIG    1       22.540 -18.181   4.363  0.00  0.00    +0.015 A 
ATOM      6  C   LIG    1       22.957 -19.333   3.694  0.00  0.00    +0.001 A 
ATOM      7  C   LIG    1       24.171 -19.336   3.027  0.00  0.00    +0.001 A 
ATOM      8  S   LIG    1       22.548 -15.670   5.310  0.00  0.00    -0.120 S 
ATOM      9  C   LIG    1       23.863 -14.438   5.545  0.00  0.00    +0.110 C 
ATOM     10  C   LIG    1       24.266 -13.786   4.250  0.00  0.00    -0.029 A 
ATOM     11  C   LIG    1       23.850 -12.483   3.937  0.00  0.00    +0.005 A 
ATOM     12  C   LIG    1       24.219 -11.895   2.726  0.00  0.00    +0.000 A 
ATOM     13  C   LIG    1       24.995 -12.607   1.812  0.00  0.00    +0.001 A 
ATOM     14  C   LIG    1       25.407 -13.906   2.109  0.00  0.00    +0.009 A 
ATOM     15  C   LIG    1       24.967 -18.191   3.038  0.00  0.00    +0.009 A 
ATOM     16  C   LIG    1       25.052 -14.497   3.330  0.00  0.00    -0.014 A 
ENDROOT
BRANCH   1  17
ATOM     17  C   LIG    1       27.876 -15.016   4.217  0.00  0.00    +0.043 C 
BRANCH  17  18
ATOM     18  C   LIG    1       27.452 -13.850   5.128  0.00  0.00    +0.088 C 
BRANCH  18  20
ATOM     19  C   LIG    1       28.948 -12.014   5.581  0.00  0.00    +0.104 C 
ATOM     20  N   LIG    1       27.927 -12.530   4.663  0.00  0.00    -0.308 NA
ATOM     21  C   LIG    1       28.478 -12.592   3.307  0.00  0.00    +0.104 C 
ENDBRANCH  18  20
ENDBRANCH  17  18
ENDBRANCH   1  17
TORSDOF 3
ENDMDL
MODEL 2
REMARK VINA RESULT:       1.1      3.283      5.764
REMARK  Name = *****
REMARK                            x       y       z     vdW  Elec       q    Type
REMARK                         _______ _______ _______ _____ _____    ______ ____
ROOT
ATOM      1  C   LIG    1       26.009 -17.830   4.192  0.00  0.00    -0.017 C 
ATOM      2  C   LIG    1       25.977 -19.166   4.394  0.00  0.00    -0.013 C 
ATOM      3  C   LIG    1       27.048 -19.773   5.234  0.00  0.00    -0.004 A 
ATOM      4  C   LIG    1       26.811 -20.593   6.358  0.00  0.00    +0.016 A 
ATOM      5  C   LIG    1       27.920 -21.110   7.062  0.00  0.00    +0.015 A 
ATOM      6  C   LIG    1       29.231 -20.834   6.672  0.00  0.00    +0.001 A 
ATOM      7  C   LIG    1       29.464 -20.044   5.558  0.00  0.00    +0.001 A 
ATOM      8  S   LIG    1       25.236 -21.120   7.061  0.00  0.00    -0.120 S 
ATOM      9  C   LIG    1       23.993 -20.061   6.264  0.00  0.00    +0.110 C 
ATOM     10  C   LIG    1       23.840 -20.371   4.800  0.00  0.00    -0.029 A 
ATOM     11  C   LIG    1       22.735 -21.095   4.325  0.00  0.00    +0.005 A 
ATOM     12  C   LIG    1       22.613 -21.387   2.967  0.00  0.00    +0.000 A 
ATOM     13  C   LIG    1       23.597 -20.973   2.071  0.00  0.00    +0.001 A 
ATOM     14  C   LIG    1       24.704 -20.261   2.532  0.00  0.00    +0.009 A 
ATOM     15  C   LIG    1       28.384 -19.526   4.842  0.00  0.00    +0.009 A 
ATOM     16  C   LIG    1       24.826 -19.950   3.894  0.00  0.00    -0.014 A 
ENDROOT
BRANCH   1  17
ATOM     17  C   LIG    1       24.980 -16.977   3.487  0.00  0.00    +0.043 C 
BRANCH  17  18
ATOM     18  C   LIG    1       25.150 -15.479   3.802  0.00  0.00    +0.088 C 
BRANCH  18  20
ATOM     19  C   LIG    1       25.596 -13.673   2.268  0.00  0.00    +0.104 C 
ATOM     20  N   LIG    1       26.182 -14.813   2.981  0.00  0.00    -0.308 NA
ATOM     21  C   LIG    1       27.314 -14.353   3.789  0.00  0.00    +0.104 C 
ENDBRANCH  18  20
ENDBRANCH  17  18
ENDBRANCH   1  17
TORSDOF 3
ENDMDL
