MODEL 1
REMARK VINA RESULT:      -3.8      0.000      0.000
REMARK  Name = *****
REMARK                            x       y       z     vdW  Elec       q    Type
REMARK                         _______ _______ _______ _____ _____    ______ ____
ROOT
ATOM      1  C   LIG    1       27.060 -13.874   2.935  0.00  0.00    +0.372 C 
ATOM      2  O   LIG    1       26.644 -14.304   1.880  0.00  0.00    -0.242 OA
ENDROOT
BRANCH   1   4
ATOM      3  C   LIG    1       24.789 -14.211   4.101  0.00  0.00    +0.099 C 
ATOM      4  C   LIG    1       26.239 -13.861   4.220  0.00  0.00    +0.236 C 
ATOM      5  O   LIG    1       26.817 -13.567   5.263  0.00  0.00    -0.285 OA
ENDBRANCH   1   4
BRANCH   1   6
ATOM      6  O   LIG    1       28.281 -13.348   3.154  0.00  0.00    -0.475 OA
ATOM      7  H   LIG    1       28.255 -12.804   3.977  0.00  0.00    +0.295 HD
ENDBRANCH   1   6
TORSDOF 2
ENDMDL
MODEL 2
REMARK VINA RESULT:      -3.8      1.574      1.975
REMARK  Name = *****
REMARK                            x       y       z     vdW  Elec       q    Type
REMARK                         _______ _______ _______ _____ _____    ______ ____
ROOT
ATOM      1  C   LIG    1       26.923 -14.718   3.007  0.00  0.00    +0.372 C 
ATOM      2  O   LIG    1       26.548 -15.841   3.271  0.00  0.00    -0.242 OA
ENDROOT
BRANCH   1   4
ATOM      3  C   LIG    1       26.832 -13.500   5.274  0.00  0.00    +0.099 C 
ATOM      4  C   LIG    1       27.593 -13.796   4.021  0.00  0.00    +0.236 C 
ATOM      5  O   LIG    1       28.708 -13.361   3.745  0.00  0.00    -0.285 OA
ENDBRANCH   1   4
BRANCH   1   6
ATOM      6  O   LIG    1       26.817 -14.103   1.813  0.00  0.00    -0.475 OA
ATOM      7  H   LIG    1       26.059 -13.473   1.840  0.00  0.00    +0.295 HD
ENDBRANCH   1   6
TORSDOF 2
ENDMDL
MODEL 3
REMARK VINA RESULT:      -3.6      1.176      2.231
REMARK  Name = *****
REMARK                            x       y       z     vdW  Elec       q    Type
REMARK                         _______ _______ _______ _____ _____    ______ ____
ROOT
ATOM      1  C   LIG    1       27.798 -14.164   3.713  0.00  0.00    +0.372 C 
ATOM      2  O   LIG    1       28.591 -13.256   3.849  0.00  0.00    -0.242 OA
ENDROOT
BRANCH   1   4
ATOM      3  C   LIG    1       25.278 -13.666   3.909  0.00  0.00    +0.099 C 
ATOM      4  C   LIG    1       26.443 -14.001   3.031  0.00  0.00    +0.236 C 
ATOM      5  O   LIG    1       26.397 -14.153   1.813  0.00  0.00    -0.285 OA
ENDBRANCH   1   4
BRANCH   1   6
ATOM      6  O   LIG    1       27.964 -15.435   4.127  0.00  0.00    -0.475 OA
ATOM      7  H   LIG    1       28.521 -15.439   4.942  0.00  0.00    +0.295 HD
ENDBRANCH   1   6
TORSDOF 2
ENDMDL
MODEL 4
REMARK VINA RESULT:      -3.5      1.087      1.342
REMARK  Name = *****
REMARK                            x       y       z     vdW  Elec       q    Type
REMARK                         _______ _______ _______ _____ _____    ______ ____
ROOT
ATOM      1  C   LIG    1       26.415 -14.863   3.055  0.00  0.00    +0.372 C 
ATOM      2  O   LIG    1       26.471 -16.072   3.144  0.00  0.00    -0.242 OA
ENDROOT
BRANCH   1   4
ATOM      3  C   LIG    1       24.298 -13.893   4.156  0.00  0.00    +0.099 C 
ATOM      4  C   LIG    1       25.792 -13.969   4.123  0.00  0.00    +0.236 C 
ATOM      5  O   LIG    1       26.553 -13.376   4.883  0.00  0.00    -0.285 OA
ENDBRANCH   1   4
BRANCH   1   6
ATOM      6  O   LIG    1       26.877 -14.118   2.031  0.00  0.00    -0.475 OA
ATOM      7  H   LIG    1       26.596 -14.531   1.180  0.00  0.00    +0.295 HD
ENDBRANCH   1   6
TORSDOF 2
ENDMDL
MODEL 5
REMARK VINA RESULT:      -3.5      1.335      1.660
REMARK  Name = *****
REMARK                            x       y       z     vdW  Elec       q    Type
REMARK                         _______ _______ _______ _____ _____    ______ ____
ROOT
ATOM      1  C   LIG    1       25.507 -13.495   2.455  0.00  0.00    +0.372 C 
ATOM      2  O   LIG    1       24.844 -12.667   1.866  0.00  0.00    -0.242 OA
ENDROOT
BRANCH   1   4
ATOM      3  C   LIG    1       23.903 -14.430   4.240  0.00  0.00    +0.099 C 
ATOM      4  C   LIG    1       25.259 -13.892   3.907  0.00  0.00    +0.236 C 
ATOM      5  O   LIG    1       26.183 -13.747   4.703  0.00  0.00    -0.285 OA
ENDBRANCH   1   4
BRANCH   1   6
ATOM      6  O   LIG    1       26.547 -14.189   1.951  0.00  0.00    -0.475 OA
ATOM      7  H   LIG    1       27.045 -13.613   1.324  0.00  0.00    +0.295 HD
ENDBRANCH   1   6
TORSDOF 2
ENDMDL
MODEL 6
REMARK VINA RESULT:      -3.5      1.475      1.896
REMARK  Name = *****
REMARK                            x       y       z     vdW  Elec       q    Type
REMARK                         _______ _______ _______ _____ _____    ______ ____
ROOT
ATOM      1  C   LIG    1       26.449 -14.718   2.994  0.00  0.00    +0.372 C 
ATOM      2  O   LIG    1       26.404 -15.915   3.184  0.00  0.00    -0.242 OA
ENDROOT
BRANCH   1   4
ATOM      3  C   LIG    1       26.849 -13.529   5.243  0.00  0.00    +0.099 C 
ATOM      4  C   LIG    1       25.998 -13.686   4.023  0.00  0.00    +0.236 C 
ATOM      5  O   LIG    1       24.972 -13.054   3.783  0.00  0.00    -0.285 OA
ENDBRANCH   1   4
BRANCH   1   6
ATOM      6  O   LIG    1       26.890 -14.105   1.878  0.00  0.00    -0.475 OA
ATOM      7  H   LIG    1       26.204 -13.467   1.568  0.00  0.00    +0.295 HD
ENDBRANCH   1   6
TORSDOF 2
ENDMDL
MODEL 7
REMARK VINA RESULT:      -3.4      1.200      2.770
REMARK  Name = *****
REMARK                            x       y       z     vdW  Elec       q    Type
REMARK                         _______ _______ _______ _____ _____    ______ ____
ROOT
ATOM      1  C   LIG    1       26.026 -13.859   4.298  0.00  0.00    +0.372 C 
ATOM      2  O   LIG    1       24.943 -14.386   4.144  0.00  0.00    -0.242 OA
ENDROOT
BRANCH   1   4
ATOM      3  C   LIG    1       28.453 -13.320   3.628  0.00  0.00    +0.099 C 
ATOM      4  C   LIG    1       27.104 -13.824   3.221  0.00  0.00    +0.236 C 
ATOM      5  O   LIG    1       26.798 -14.212   2.096  0.00  0.00    -0.285 OA
ENDBRANCH   1   4
BRANCH   1   6
ATOM      6  O   LIG    1       26.454 -13.231   5.411  0.00  0.00    -0.475 OA
ATOM      7  H   LIG    1       27.434 -13.326   5.477  0.00  0.00    +0.295 HD
ENDBRANCH   1   6
TORSDOF 2
ENDMDL
MODEL 8
REMARK VINA RESULT:      -3.4      1.588      1.963
REMARK  Name = *****
REMARK                            x       y       z     vdW  Elec       q    Type
REMARK                         _______ _______ _______ _____ _____    ______ ____
ROOT
ATOM      1  C   LIG    1       25.753 -13.569   2.435  0.00  0.00    +0.372 C 
ATOM      2  O   LIG    1       24.953 -12.887   1.829  0.00  0.00    -0.242 OA
ENDROOT
BRANCH   1   4
ATOM      3  C   LIG    1       26.755 -13.606   4.808  0.00  0.00    +0.099 C 
ATOM      4  C   LIG    1       25.603 -13.931   3.910  0.00  0.00    +0.236 C 
ATOM      5  O   LIG    1       24.552 -14.459   4.262  0.00  0.00    -0.285 OA
ENDBRANCH   1   4
BRANCH   1   6
ATOM      6  O   LIG    1       26.880 -14.111   1.932  0.00  0.00    -0.475 OA
ATOM      7  H   LIG    1       27.157 -13.597   1.137  0.00  0.00    +0.295 HD
ENDBRANCH   1   6
TORSDOF 2
ENDMDL
MODEL 9
REMARK VINA RESULT:      -3.4      1.582      1.955
REMARK  Name = *****
REMARK                            x       y       z     vdW  Elec       q    Type
REMARK                         _______ _______ _______ _____ _____    ______ ____
ROOT
ATOM      1  C   LIG    1       26.121 -13.758   2.920  0.00  0.00    +0.372 C 
ATOM      2  O   LIG    1       26.514 -14.244   1.880  0.00  0.00    -0.242 OA
ENDROOT
BRANCH   1   4
ATOM      3  C   LIG    1       23.923 -14.412   4.092  0.00  0.00    +0.099 C 
ATOM      4  C   LIG    1       24.653 -13.455   3.203  0.00  0.00    +0.236 C 
ATOM      5  O   LIG    1       24.169 -12.450   2.689  0.00  0.00    -0.285 OA
ENDBRANCH   1   4
BRANCH   1   6
ATOM      6  O   LIG    1       26.883 -13.410   3.975  0.00  0.00    -0.475 OA
ATOM      7  H   LIG    1       27.082 -14.216   4.509  0.00  0.00    +0.295 HD
ENDBRANCH   1   6
TORSDOF 2
ENDMDL
