MODEL 1
REMARK VINA RESULT:      -9.4      0.000      0.000
REMARK  Name = *****
REMARK                            x       y       z     vdW  Elec       q    Type
REMARK                         _______ _______ _______ _____ _____    ______ ____
ROOT
ATOM      1  C   LIG    1       25.424 -29.404   7.314  0.00  0.00    +0.159 C 
ENDROOT
BRANCH   1   2
ATOM      2  C   LIG    1       24.819 -29.706   8.679  0.00  0.00    -0.009 A 
ATOM      3  C   LIG    1       25.399 -29.261   9.892  0.00  0.00    +0.008 A 
ATOM      4  C   LIG    1       24.761 -29.570  11.112  0.00  0.00    +0.091 A 
ATOM      5  N   LIG    1       25.287 -29.090  12.324  0.00  0.00    -0.319 N 
ATOM      6  H   LIG    1       24.787 -29.317  13.179  0.00  0.00    +0.169 HD
ATOM      7  C   LIG    1       26.393 -28.303  12.415  0.00  0.00    +0.249 C 
ATOM      8  C   LIG    1       27.101 -28.027  11.151  0.00  0.00    +0.071 C 
ATOM      9  O   LIG    1       26.807 -27.842  13.484  0.00  0.00    -0.268 OA
ATOM     10  C   LIG    1       23.595 -30.335  11.152  0.00  0.00    +0.141 A 
ATOM     11  C   LIG    1       23.023 -30.787   9.975  0.00  0.00    +0.048 A 
ATOM     12  C   LIG    1       26.647 -28.486   9.971  0.00  0.00    +0.015 C 
ATOM     13  C   LIG    1       23.623 -30.461   8.753  0.00  0.00    +0.010 A 
BRANCH  10  14
ATOM     14  O   LIG    1       23.029 -30.615  12.368  0.00  0.00    -0.505 OA
ATOM     15  H   LIG    1       23.383 -29.994  13.026  0.00  0.00    +0.292 HD
ENDBRANCH  10  14
ENDBRANCH   1   2
BRANCH   1  16
ATOM     16  O   LIG    1       25.807 -30.626   6.662  0.00  0.00    -0.386 OA
ATOM     17  H   LIG    1       25.526 -30.510   5.732  0.00  0.00    +0.210 HD
ENDBRANCH   1  16
BRANCH   1  18
ATOM     18  C   LIG    1       24.476 -28.617   6.363  0.00  0.00    +0.117 C 
BRANCH  18  19
ATOM     19  N   LIG    1       25.257 -27.949   5.287  0.00  0.00    -0.310 NA
ATOM     20  H   LIG    1       26.220 -28.288   5.318  0.00  0.00    +0.122 HD
BRANCH  19  26
ATOM     21  C   LIG    1       24.074 -22.272   7.128  0.00  0.00    -0.044 A 
ATOM     22  C   LIG    1       25.414 -22.335   7.604  0.00  0.00    -0.044 A 
ATOM     23  C   LIG    1       26.149 -23.530   7.471  0.00  0.00    +0.007 A 
ATOM     24  C   LIG    1       25.572 -24.619   6.847  0.00  0.00    -0.042 A 
ATOM     25  C   LIG    1       26.180 -25.965   6.603  0.00  0.00    +0.054 C 
ATOM     26  C   LIG    1       25.288 -26.483   5.449  0.00  0.00    +0.062 C 
ATOM     27  C   LIG    1       23.886 -25.871   5.736  0.00  0.00    +0.054 C 
ATOM     28  C   LIG    1       24.267 -24.560   6.361  0.00  0.00    -0.042 A 
ATOM     29  C   LIG    1       23.509 -23.409   6.507  0.00  0.00    +0.007 A 
BRANCH  21  31
ATOM     30  C   LIG    1       23.004 -20.266   5.967  0.00  0.00    +0.009 C 
ATOM     31  C   LIG    1       23.195 -21.043   7.262  0.00  0.00    +0.032 C 
ENDBRANCH  21  31
BRANCH  22  32
ATOM     32  C   LIG    1       26.142 -21.163   8.224  0.00  0.00    +0.032 C 
ATOM     33  C   LIG    1       26.950 -20.395   7.188  0.00  0.00    +0.009 C 
ENDBRANCH  22  32
ENDBRANCH  19  26
ENDBRANCH  18  19
ENDBRANCH   1  18
TORSDOF 8
ENDMDL
MODEL 2
REMARK VINA RESULT:      -9.4      1.795      2.698
REMARK  Name = *****
REMARK                            x       y       z     vdW  Elec       q    Type
REMARK                         _______ _______ _______ _____ _____    ______ ____
ROOT
ATOM      1  C   LIG    1       24.650 -30.066   5.746  0.00  0.00    +0.159 C 
ENDROOT
BRANCH   1   2
ATOM      2  C   LIG    1       25.421 -30.963   6.706  0.00  0.00    -0.009 A 
ATOM      3  C   LIG    1       25.214 -30.949   8.106  0.00  0.00    +0.008 A 
ATOM      4  C   LIG    1       25.961 -31.827   8.919  0.00  0.00    +0.091 A 
ATOM      5  N   LIG    1       25.731 -31.871  10.306  0.00  0.00    -0.319 N 
ATOM      6  H   LIG    1       26.274 -32.532  10.854  0.00  0.00    +0.169 HD
ATOM      7  C   LIG    1       24.797 -31.117  10.947  0.00  0.00    +0.249 C 
ATOM      8  C   LIG    1       24.056 -30.151  10.114  0.00  0.00    +0.071 C 
ATOM      9  O   LIG    1       24.570 -31.211  12.158  0.00  0.00    -0.268 OA
ATOM     10  C   LIG    1       26.921 -32.683   8.379  0.00  0.00    +0.141 A 
ATOM     11  C   LIG    1       27.142 -32.700   7.013  0.00  0.00    +0.048 A 
ATOM     12  C   LIG    1       24.260 -30.059   8.787  0.00  0.00    +0.015 C 
ATOM     13  C   LIG    1       26.388 -31.859   6.187  0.00  0.00    +0.010 A 
BRANCH  10  14
ATOM     14  O   LIG    1       27.624 -33.504   9.222  0.00  0.00    -0.505 OA
ATOM     15  H   LIG    1       28.394 -33.855   8.743  0.00  0.00    +0.292 HD
ENDBRANCH  10  14
ENDBRANCH   1   2
BRANCH   1  16
ATOM     16  O   LIG    1       23.267 -30.456   5.709  0.00  0.00    -0.386 OA
ATOM     17  H   LIG    1       22.827 -29.759   5.182  0.00  0.00    +0.210 HD
ENDBRANCH   1  16
BRANCH   1  18
ATOM     18  C   LIG    1       24.723 -28.551   6.099  0.00  0.00    +0.117 C 
BRANCH  18  19
ATOM     19  N   LIG    1       25.462 -27.807   5.045  0.00  0.00    -0.310 NA
ATOM     20  H   LIG    1       26.434 -28.121   5.037  0.00  0.00    +0.122 HD
BRANCH  19  26
ATOM     21  C   LIG    1       24.089 -22.255   7.118  0.00  0.00    -0.044 A 
ATOM     22  C   LIG    1       25.404 -22.323   7.659  0.00  0.00    -0.044 A 
ATOM     23  C   LIG    1       26.165 -23.499   7.501  0.00  0.00    +0.007 A 
ATOM     24  C   LIG    1       25.639 -24.561   6.792  0.00  0.00    -0.042 A 
ATOM     25  C   LIG    1       26.283 -25.883   6.509  0.00  0.00    +0.054 C 
ATOM     26  C   LIG    1       25.460 -26.351   5.285  0.00  0.00    +0.062 C 
ATOM     27  C   LIG    1       24.034 -25.776   5.531  0.00  0.00    +0.054 C 
ATOM     28  C   LIG    1       24.360 -24.495   6.243  0.00  0.00    -0.042 A 
ATOM     29  C   LIG    1       23.576 -23.365   6.410  0.00  0.00    +0.007 A 
BRANCH  21  31
ATOM     30  C   LIG    1       22.922 -20.292   5.974  0.00  0.00    +0.009 C 
ATOM     31  C   LIG    1       23.183 -21.047   7.271  0.00  0.00    +0.032 C 
ENDBRANCH  21  31
BRANCH  22  32
ATOM     32  C   LIG    1       26.079 -21.175   8.376  0.00  0.00    +0.032 C 
ATOM     33  C   LIG    1       27.020 -20.415   7.454  0.00  0.00    +0.009 C 
ENDBRANCH  22  32
ENDBRANCH  19  26
ENDBRANCH  18  19
ENDBRANCH   1  18
TORSDOF 8
ENDMDL
MODEL 3
REMARK VINA RESULT:      -9.3      0.359      1.817
REMARK  Name = *****
REMARK                            x       y       z     vdW  Elec       q    Type
REMARK                         _______ _______ _______ _____ _____    ______ ____
ROOT
ATOM      1  C   LIG    1       25.450 -29.688   7.528  0.00  0.00    +0.159 C 
ENDROOT
BRANCH   1   2
ATOM      2  C   LIG    1       24.808 -29.808   8.904  0.00  0.00    -0.009 A 
ATOM      3  C   LIG    1       25.378 -29.243  10.070  0.00  0.00    +0.008 A 
ATOM      4  C   LIG    1       24.706 -29.387  11.302  0.00  0.00    +0.091 A 
ATOM      5  N   LIG    1       25.224 -28.785  12.462  0.00  0.00    -0.319 N 
ATOM      6  H   LIG    1       24.700 -28.894  13.326  0.00  0.00    +0.169 HD
ATOM      7  C   LIG    1       26.356 -28.029  12.488  0.00  0.00    +0.249 C 
ATOM      8  C   LIG    1       27.098 -27.926  11.218  0.00  0.00    +0.071 C 
ATOM      9  O   LIG    1       26.764 -27.460  13.506  0.00  0.00    -0.268 OA
ATOM     10  C   LIG    1       23.513 -30.103  11.403  0.00  0.00    +0.141 A 
ATOM     11  C   LIG    1       22.950 -30.671  10.273  0.00  0.00    +0.048 A 
ATOM     12  C   LIG    1       26.651 -28.505  10.089  0.00  0.00    +0.015 C 
ATOM     13  C   LIG    1       23.585 -30.510   9.037  0.00  0.00    +0.010 A 
BRANCH  10  14
ATOM     14  O   LIG    1       22.914 -30.220  12.630  0.00  0.00    -0.505 OA
ATOM     15  H   LIG    1       23.008 -31.138  12.935  0.00  0.00    +0.292 HD
ENDBRANCH  10  14
ENDBRANCH   1   2
BRANCH   1  16
ATOM     16  O   LIG    1       25.971 -30.961   7.113  0.00  0.00    -0.386 OA
ATOM     17  H   LIG    1       25.179 -31.501   6.917  0.00  0.00    +0.210 HD
ENDBRANCH   1  16
BRANCH   1  18
ATOM     18  C   LIG    1       24.484 -29.168   6.423  0.00  0.00    +0.117 C 
BRANCH  18  19
ATOM     19  N   LIG    1       25.075 -27.994   5.726  0.00  0.00    -0.310 NA
ATOM     20  H   LIG    1       26.087 -28.121   5.663  0.00  0.00    +0.122 HD
BRANCH  19  26
ATOM     21  C   LIG    1       25.393 -22.238   7.673  0.00  0.00    -0.044 A 
ATOM     22  C   LIG    1       24.079 -22.167   7.129  0.00  0.00    -0.044 A 
ATOM     23  C   LIG    1       23.533 -23.286   6.470  0.00  0.00    +0.007 A 
ATOM     24  C   LIG    1       24.266 -24.454   6.388  0.00  0.00    -0.042 A 
ATOM     25  C   LIG    1       23.867 -25.744   5.742  0.00  0.00    +0.054 C 
ATOM     26  C   LIG    1       24.823 -26.733   6.450  0.00  0.00    +0.062 C 
ATOM     27  C   LIG    1       26.118 -25.907   6.707  0.00  0.00    +0.054 C 
ATOM     28  C   LIG    1       25.545 -24.539   6.934  0.00  0.00    -0.042 A 
ATOM     29  C   LIG    1       26.121 -23.444   7.560  0.00  0.00    +0.007 A 
BRANCH  21  31
ATOM     30  C   LIG    1       27.183 -20.422   7.545  0.00  0.00    +0.009 C 
ATOM     31  C   LIG    1       26.077 -21.074   8.364  0.00  0.00    +0.032 C 
ENDBRANCH  21  31
BRANCH  22  32
ATOM     32  C   LIG    1       23.184 -20.953   7.249  0.00  0.00    +0.032 C 
ATOM     33  C   LIG    1       23.006 -20.255   5.908  0.00  0.00    +0.009 C 
ENDBRANCH  22  32
ENDBRANCH  19  26
ENDBRANCH  18  19
ENDBRANCH   1  18
TORSDOF 8
ENDMDL
MODEL 4
REMARK VINA RESULT:      -9.3      4.468      9.265
REMARK  Name = *****
REMARK                            x       y       z     vdW  Elec       q    Type
REMARK                         _______ _______ _______ _____ _____    ______ ____
ROOT
ATOM      1  C   LIG    1       24.441 -22.111   6.872  0.00  0.00    +0.159 C 
ENDROOT
BRANCH   1   2
ATOM      2  C   LIG    1       24.910 -21.075   5.858  0.00  0.00    -0.009 A 
ATOM      3  C   LIG    1       26.194 -20.482   5.904  0.00  0.00    +0.008 A 
ATOM      4  C   LIG    1       26.553 -19.543   4.914  0.00  0.00    +0.091 A 
ATOM      5  N   LIG    1       27.842 -18.984   4.906  0.00  0.00    -0.319 N 
ATOM      6  H   LIG    1       28.069 -18.329   4.163  0.00  0.00    +0.169 HD
ATOM      7  C   LIG    1       28.816 -19.303   5.801  0.00  0.00    +0.249 C 
ATOM      8  C   LIG    1       28.431 -20.236   6.877  0.00  0.00    +0.071 C 
ATOM      9  O   LIG    1       29.962 -18.845   5.744  0.00  0.00    -0.268 OA
ATOM     10  C   LIG    1       25.659 -19.162   3.913  0.00  0.00    +0.141 A 
ATOM     11  C   LIG    1       24.396 -19.725   3.862  0.00  0.00    +0.048 A 
ATOM     12  C   LIG    1       27.200 -20.777   6.937  0.00  0.00    +0.015 C 
ATOM     13  C   LIG    1       24.034 -20.682   4.816  0.00  0.00    +0.010 A 
BRANCH  10  14
ATOM     14  O   LIG    1       26.060 -18.235   2.986  0.00  0.00    -0.505 OA
ATOM     15  H   LIG    1       25.825 -17.350   3.310  0.00  0.00    +0.292 HD
ENDBRANCH  10  14
ENDBRANCH   1   2
BRANCH   1  16
ATOM     16  O   LIG    1       23.315 -21.607   7.609  0.00  0.00    -0.386 OA
ATOM     17  H   LIG    1       23.445 -20.638   7.627  0.00  0.00    +0.210 HD
ENDBRANCH   1  16
BRANCH   1  18
ATOM     18  C   LIG    1       24.043 -23.478   6.242  0.00  0.00    +0.117 C 
BRANCH  18  19
ATOM     19  N   LIG    1       25.136 -23.986   5.369  0.00  0.00    -0.310 NA
ATOM     20  H   LIG    1       24.870 -23.849   4.392  0.00  0.00    +0.122 HD
BRANCH  19  26
ATOM     21  C   LIG    1       25.584 -29.520   7.856  0.00  0.00    -0.044 A 
ATOM     22  C   LIG    1       24.603 -29.847   6.877  0.00  0.00    -0.044 A 
ATOM     23  C   LIG    1       24.089 -28.839   6.038  0.00  0.00    +0.007 A 
ATOM     24  C   LIG    1       24.567 -27.548   6.151  0.00  0.00    -0.042 A 
ATOM     25  C   LIG    1       24.160 -26.346   5.358  0.00  0.00    +0.054 C 
ATOM     26  C   LIG    1       25.385 -25.426   5.572  0.00  0.00    +0.062 C 
ATOM     27  C   LIG    1       25.879 -25.763   7.009  0.00  0.00    +0.054 C 
ATOM     28  C   LIG    1       25.541 -27.223   7.094  0.00  0.00    -0.042 A 
ATOM     29  C   LIG    1       26.041 -28.187   7.955  0.00  0.00    +0.007 A 
BRANCH  21  31
ATOM     30  C   LIG    1       26.981 -29.915   9.957  0.00  0.00    +0.009 C 
ATOM     31  C   LIG    1       26.166 -30.530   8.828  0.00  0.00    +0.032 C 
ENDBRANCH  21  31
BRANCH  22  32
ATOM     32  C   LIG    1       24.089 -31.249   6.637  0.00  0.00    +0.032 C 
ATOM     33  C   LIG    1       24.953 -31.998   5.632  0.00  0.00    +0.009 C 
ENDBRANCH  22  32
ENDBRANCH  19  26
ENDBRANCH  18  19
ENDBRANCH   1  18
TORSDOF 8
ENDMDL
MODEL 5
REMARK VINA RESULT:      -8.9      0.705      2.367
REMARK  Name = *****
REMARK                            x       y       z     vdW  Elec       q    Type
REMARK                         _______ _______ _______ _____ _____    ______ ____
ROOT
ATOM      1  C   LIG    1       25.280 -29.543   7.230  0.00  0.00    +0.159 C 
ENDROOT
BRANCH   1   2
ATOM      2  C   LIG    1       25.443 -29.319   8.728  0.00  0.00    -0.009 A 
ATOM      3  C   LIG    1       24.507 -29.787   9.681  0.00  0.00    +0.008 A 
ATOM      4  C   LIG    1       24.746 -29.551  11.052  0.00  0.00    +0.091 A 
ATOM      5  N   LIG    1       23.860 -30.056  12.019  0.00  0.00    -0.319 N 
ATOM      6  H   LIG    1       24.079 -29.883  12.996  0.00  0.00    +0.169 HD
ATOM      7  C   LIG    1       22.758 -30.800  11.729  0.00  0.00    +0.249 C 
ATOM      8  C   LIG    1       22.466 -30.998  10.296  0.00  0.00    +0.071 C 
ATOM      9  O   LIG    1       22.023 -31.285  12.595  0.00  0.00    -0.268 OA
ATOM     10  C   LIG    1       25.863 -28.837  11.485  0.00  0.00    +0.141 A 
ATOM     11  C   LIG    1       26.782 -28.364  10.563  0.00  0.00    +0.048 A 
ATOM     12  C   LIG    1       23.274 -30.513   9.336  0.00  0.00    +0.015 C 
ATOM     13  C   LIG    1       26.578 -28.617   9.202  0.00  0.00    +0.010 A 
BRANCH  10  14
ATOM     14  O   LIG    1       26.035 -28.628  12.828  0.00  0.00    -0.505 OA
ATOM     15  H   LIG    1       26.467 -27.767  12.956  0.00  0.00    +0.292 HD
ENDBRANCH  10  14
ENDBRANCH   1   2
BRANCH   1  16
ATOM     16  O   LIG    1       24.697 -30.832   6.984  0.00  0.00    -0.386 OA
ATOM     17  H   LIG    1       24.027 -30.941   7.689  0.00  0.00    +0.210 HD
ENDBRANCH   1  16
BRANCH   1  18
ATOM     18  C   LIG    1       24.408 -28.466   6.521  0.00  0.00    +0.117 C 
BRANCH  18  19
ATOM     19  N   LIG    1       25.170 -27.824   5.417  0.00  0.00    -0.310 NA
ATOM     20  H   LIG    1       26.127 -28.183   5.423  0.00  0.00    +0.122 HD
BRANCH  19  26
ATOM     21  C   LIG    1       24.080 -22.097   7.155  0.00  0.00    -0.044 A 
ATOM     22  C   LIG    1       25.401 -22.190   7.679  0.00  0.00    -0.044 A 
ATOM     23  C   LIG    1       26.107 -23.407   7.584  0.00  0.00    +0.007 A 
ATOM     24  C   LIG    1       25.522 -24.486   6.952  0.00  0.00    -0.042 A 
ATOM     25  C   LIG    1       26.101 -25.851   6.744  0.00  0.00    +0.054 C 
ATOM     26  C   LIG    1       25.236 -26.358   5.565  0.00  0.00    +0.062 C 
ATOM     27  C   LIG    1       23.842 -25.704   5.795  0.00  0.00    +0.054 C 
ATOM     28  C   LIG    1       24.237 -24.398   6.419  0.00  0.00    -0.042 A 
ATOM     29  C   LIG    1       23.506 -23.225   6.526  0.00  0.00    +0.007 A 
BRANCH  21  31
ATOM     30  C   LIG    1       22.917 -20.201   5.900  0.00  0.00    +0.009 C 
ATOM     31  C   LIG    1       23.231 -20.842   7.245  0.00  0.00    +0.032 C 
ENDBRANCH  21  31
BRANCH  22  32
ATOM     32  C   LIG    1       26.139 -21.031   8.312  0.00  0.00    +0.032 C 
ATOM     33  C   LIG    1       27.122 -20.396   7.340  0.00  0.00    +0.009 C 
ENDBRANCH  22  32
ENDBRANCH  19  26
ENDBRANCH  18  19
ENDBRANCH   1  18
TORSDOF 8
ENDMDL
MODEL 6
REMARK VINA RESULT:      -8.9      4.337      9.217
REMARK  Name = *****
REMARK                            x       y       z     vdW  Elec       q    Type
REMARK                         _______ _______ _______ _____ _____    ______ ____
ROOT
ATOM      1  C   LIG    1       24.395 -22.790   6.447  0.00  0.00    +0.159 C 
ENDROOT
BRANCH   1   2
ATOM      2  C   LIG    1       24.868 -21.609   5.608  0.00  0.00    -0.009 A 
ATOM      3  C   LIG    1       26.105 -20.957   5.827  0.00  0.00    +0.008 A 
ATOM      4  C   LIG    1       26.472 -19.882   4.990  0.00  0.00    +0.091 A 
ATOM      5  N   LIG    1       27.721 -19.258   5.152  0.00  0.00    -0.319 N 
ATOM      6  H   LIG    1       27.957 -18.501   4.516  0.00  0.00    +0.169 HD
ATOM      7  C   LIG    1       28.648 -19.635   6.074  0.00  0.00    +0.249 C 
ATOM      8  C   LIG    1       28.248 -20.717   6.993  0.00  0.00    +0.071 C 
ATOM      9  O   LIG    1       29.764 -19.113   6.163  0.00  0.00    -0.268 OA
ATOM     10  C   LIG    1       25.628 -19.424   3.978  0.00  0.00    +0.141 A 
ATOM     11  C   LIG    1       24.410 -20.044   3.760  0.00  0.00    +0.048 A 
ATOM     12  C   LIG    1       27.053 -21.327   6.890  0.00  0.00    +0.015 C 
ATOM     13  C   LIG    1       24.044 -21.133   4.558  0.00  0.00    +0.010 A 
BRANCH  10  14
ATOM     14  O   LIG    1       26.034 -18.366   3.207  0.00  0.00    -0.505 OA
ATOM     15  H   LIG    1       25.983 -18.626   2.272  0.00  0.00    +0.292 HD
ENDBRANCH  10  14
ENDBRANCH   1   2
BRANCH   1  16
ATOM     16  O   LIG    1       23.021 -23.086   6.152  0.00  0.00    -0.386 OA
ATOM     17  H   LIG    1       22.840 -23.922   6.628  0.00  0.00    +0.210 HD
ENDBRANCH   1  16
BRANCH   1  18
ATOM     18  C   LIG    1       25.232 -24.086   6.241  0.00  0.00    +0.117 C 
BRANCH  18  19
ATOM     19  N   LIG    1       24.864 -24.745   4.959  0.00  0.00    -0.310 NA
ATOM     20  H   LIG    1       24.036 -24.285   4.577  0.00  0.00    +0.122 HD
BRANCH  19  26
ATOM     21  C   LIG    1       25.335 -30.741   5.876  0.00  0.00    -0.044 A 
ATOM     22  C   LIG    1       24.578 -30.444   7.045  0.00  0.00    -0.044 A 
ATOM     23  C   LIG    1       24.245 -29.107   7.342  0.00  0.00    +0.007 A 
ATOM     24  C   LIG    1       24.628 -28.101   6.477  0.00  0.00    -0.042 A 
ATOM     25  C   LIG    1       24.370 -26.632   6.607  0.00  0.00    +0.054 C 
ATOM     26  C   LIG    1       24.545 -26.174   5.139  0.00  0.00    +0.062 C 
ATOM     27  C   LIG    1       25.639 -27.121   4.564  0.00  0.00    +0.054 C 
ATOM     28  C   LIG    1       25.352 -28.384   5.321  0.00  0.00    -0.042 A 
ATOM     29  C   LIG    1       25.723 -29.686   5.019  0.00  0.00    +0.007 A 
BRANCH  21  31
ATOM     30  C   LIG    1       27.052 -32.606   6.180  0.00  0.00    +0.009 C 
ATOM     31  C   LIG    1       25.772 -32.143   5.496  0.00  0.00    +0.032 C 
ENDBRANCH  21  31
BRANCH  22  32
ATOM     32  C   LIG    1       24.054 -31.496   7.997  0.00  0.00    +0.032 C 
ATOM     33  C   LIG    1       23.532 -30.875   9.285  0.00  0.00    +0.009 C 
ENDBRANCH  22  32
ENDBRANCH  19  26
ENDBRANCH  18  19
ENDBRANCH   1  18
TORSDOF 8
ENDMDL
MODEL 7
REMARK VINA RESULT:      -8.8      2.325      4.049
REMARK  Name = *****
REMARK                            x       y       z     vdW  Elec       q    Type
REMARK                         _______ _______ _______ _____ _____    ______ ____
ROOT
ATOM      1  C   LIG    1       25.894 -26.584   6.552  0.00  0.00    +0.159 C 
ENDROOT
BRANCH   1   2
ATOM      2  C   LIG    1       25.309 -27.965   6.820  0.00  0.00    -0.009 A 
ATOM      3  C   LIG    1       25.626 -28.723   7.973  0.00  0.00    +0.008 A 
ATOM      4  C   LIG    1       25.024 -29.986   8.151  0.00  0.00    +0.091 A 
ATOM      5  N   LIG    1       25.279 -30.731   9.315  0.00  0.00    -0.319 N 
ATOM      6  H   LIG    1       24.810 -31.627   9.416  0.00  0.00    +0.169 HD
ATOM      7  C   LIG    1       26.077 -30.305  10.332  0.00  0.00    +0.249 C 
ATOM      8  C   LIG    1       26.760 -29.014  10.127  0.00  0.00    +0.071 C 
ATOM      9  O   LIG    1       26.244 -30.948  11.374  0.00  0.00    -0.268 OA
ATOM     10  C   LIG    1       24.153 -30.520   7.201  0.00  0.00    +0.141 A 
ATOM     11  C   LIG    1       23.842 -29.795   6.063  0.00  0.00    +0.048 A 
ATOM     12  C   LIG    1       26.562 -28.279   9.017  0.00  0.00    +0.015 C 
ATOM     13  C   LIG    1       24.404 -28.525   5.885  0.00  0.00    +0.010 A 
BRANCH  10  14
ATOM     14  O   LIG    1       23.610 -31.758   7.422  0.00  0.00    -0.505 OA
ATOM     15  H   LIG    1       24.272 -32.433   7.197  0.00  0.00    +0.292 HD
ENDBRANCH  10  14
ENDBRANCH   1   2
BRANCH   1  16
ATOM     16  O   LIG    1       27.067 -26.695   5.730  0.00  0.00    -0.386 OA
ATOM     17  H   LIG    1       27.772 -26.253   6.244  0.00  0.00    +0.210 HD
ENDBRANCH   1  16
BRANCH   1  18
ATOM     18  C   LIG    1       24.903 -25.601   5.862  0.00  0.00    +0.117 C 
BRANCH  18  19
ATOM     19  N   LIG    1       24.144 -24.828   6.881  0.00  0.00    -0.310 NA
ATOM     20  H   LIG    1       23.170 -25.138   6.875  0.00  0.00    +0.122 HD
BRANCH  19  26
ATOM     21  C   LIG    1       24.263 -19.447   4.045  0.00  0.00    -0.044 A 
ATOM     22  C   LIG    1       22.979 -19.301   4.642  0.00  0.00    -0.044 A 
ATOM     23  C   LIG    1       22.433 -20.361   5.394  0.00  0.00    +0.007 A 
ATOM     24  C   LIG    1       23.166 -21.517   5.574  0.00  0.00    -0.042 A 
ATOM     25  C   LIG    1       22.772 -22.744   6.336  0.00  0.00    +0.054 C 
ATOM     26  C   LIG    1       24.158 -23.379   6.604  0.00  0.00    +0.062 C 
ATOM     27  C   LIG    1       25.006 -23.004   5.354  0.00  0.00    +0.054 C 
ATOM     28  C   LIG    1       24.432 -21.660   5.010  0.00  0.00    -0.042 A 
ATOM     29  C   LIG    1       24.981 -20.649   4.237  0.00  0.00    +0.007 A 
BRANCH  21  31
ATOM     30  C   LIG    1       26.345 -18.040   3.585  0.00  0.00    +0.009 C 
ATOM     31  C   LIG    1       24.913 -18.376   3.188  0.00  0.00    +0.032 C 
ENDBRANCH  21  31
BRANCH  22  32
ATOM     32  C   LIG    1       22.151 -18.038   4.559  0.00  0.00    +0.032 C 
ATOM     33  C   LIG    1       20.917 -18.234   3.689  0.00  0.00    +0.009 C 
ENDBRANCH  22  32
ENDBRANCH  19  26
ENDBRANCH  18  19
ENDBRANCH   1  18
TORSDOF 8
ENDMDL
MODEL 8
REMARK VINA RESULT:      -8.7      4.390      9.240
REMARK  Name = *****
REMARK                            x       y       z     vdW  Elec       q    Type
REMARK                         _______ _______ _______ _____ _____    ______ ____
ROOT
ATOM      1  C   LIG    1       24.516 -22.557   7.271  0.00  0.00    +0.159 C 
ENDROOT
BRANCH   1   2
ATOM      2  C   LIG    1       25.727 -21.711   6.900  0.00  0.00    -0.009 A 
ATOM      3  C   LIG    1       25.718 -20.786   5.828  0.00  0.00    +0.008 A 
ATOM      4  C   LIG    1       26.880 -20.029   5.565  0.00  0.00    +0.091 A 
ATOM      5  N   LIG    1       26.876 -19.064   4.543  0.00  0.00    -0.319 N 
ATOM      6  H   LIG    1       27.725 -18.525   4.399  0.00  0.00    +0.169 HD
ATOM      7  C   LIG    1       25.793 -18.778   3.770  0.00  0.00    +0.249 C 
ATOM      8  C   LIG    1       24.595 -19.607   3.996  0.00  0.00    +0.071 C 
ATOM      9  O   LIG    1       25.791 -17.886   2.915  0.00  0.00    -0.268 OA
ATOM     10  C   LIG    1       28.045 -20.198   6.314  0.00  0.00    +0.141 A 
ATOM     11  C   LIG    1       28.072 -21.106   7.358  0.00  0.00    +0.048 A 
ATOM     12  C   LIG    1       24.562 -20.558   4.948  0.00  0.00    +0.015 C 
ATOM     13  C   LIG    1       26.919 -21.842   7.654  0.00  0.00    +0.010 A 
BRANCH  10  14
ATOM     14  O   LIG    1       29.146 -19.443   6.002  0.00  0.00    -0.505 OA
ATOM     15  H   LIG    1       29.307 -18.815   6.725  0.00  0.00    +0.292 HD
ENDBRANCH  10  14
ENDBRANCH   1   2
BRANCH   1  16
ATOM     16  O   LIG    1       23.407 -21.710   7.614  0.00  0.00    -0.386 OA
ATOM     17  H   LIG    1       22.730 -21.902   6.934  0.00  0.00    +0.210 HD
ENDBRANCH   1  16
BRANCH   1  18
ATOM     18  C   LIG    1       24.059 -23.535   6.149  0.00  0.00    +0.117 C 
BRANCH  18  19
ATOM     19  N   LIG    1       25.233 -24.026   5.378  0.00  0.00    -0.310 NA
ATOM     20  H   LIG    1       25.064 -23.867   4.383  0.00  0.00    +0.122 HD
BRANCH  19  26
ATOM     21  C   LIG    1       25.523 -29.595   7.810  0.00  0.00    -0.044 A 
ATOM     22  C   LIG    1       24.587 -29.901   6.781  0.00  0.00    -0.044 A 
ATOM     23  C   LIG    1       24.119 -28.878   5.933  0.00  0.00    +0.007 A 
ATOM     24  C   LIG    1       24.602 -27.593   6.086  0.00  0.00    -0.042 A 
ATOM     25  C   LIG    1       24.241 -26.377   5.290  0.00  0.00    +0.054 C 
ATOM     26  C   LIG    1       25.462 -25.470   5.573  0.00  0.00    +0.062 C 
ATOM     27  C   LIG    1       25.886 -25.830   7.027  0.00  0.00    +0.054 C 
ATOM     28  C   LIG    1       25.532 -27.288   7.077  0.00  0.00    -0.042 A 
ATOM     29  C   LIG    1       25.985 -28.267   7.947  0.00  0.00    +0.007 A 
BRANCH  21  31
ATOM     30  C   LIG    1       27.029 -30.062   9.818  0.00  0.00    +0.009 C 
ATOM     31  C   LIG    1       26.051 -30.622   8.794  0.00  0.00    +0.032 C 
ENDBRANCH  21  31
BRANCH  22  32
ATOM     32  C   LIG    1       24.074 -31.296   6.500  0.00  0.00    +0.032 C 
ATOM     33  C   LIG    1       24.914 -31.998   5.442  0.00  0.00    +0.009 C 
ENDBRANCH  22  32
ENDBRANCH  19  26
ENDBRANCH  18  19
ENDBRANCH   1  18
TORSDOF 8
ENDMDL
MODEL 9
REMARK VINA RESULT:      -8.6      0.899      2.975
REMARK  Name = *****
REMARK                            x       y       z     vdW  Elec       q    Type
REMARK                         _______ _______ _______ _____ _____    ______ ____
ROOT
ATOM      1  C   LIG    1       25.562 -30.259   7.572  0.00  0.00    +0.159 C 
ENDROOT
BRANCH   1   2
ATOM      2  C   LIG    1       25.606 -29.713   8.993  0.00  0.00    -0.009 A 
ATOM      3  C   LIG    1       24.520 -29.825   9.894  0.00  0.00    +0.008 A 
ATOM      4  C   LIG    1       24.653 -29.306  11.199  0.00  0.00    +0.091 A 
ATOM      5  N   LIG    1       23.609 -29.457  12.128  0.00  0.00    -0.319 N 
ATOM      6  H   LIG    1       23.752 -29.088  13.064  0.00  0.00    +0.169 HD
ATOM      7  C   LIG    1       22.442 -30.105  11.864  0.00  0.00    +0.249 C 
ATOM      8  C   LIG    1       22.268 -30.596  10.483  0.00  0.00    +0.071 C 
ATOM      9  O   LIG    1       21.559 -30.279  12.710  0.00  0.00    -0.268 OA
ATOM     10  C   LIG    1       25.817 -28.655  11.610  0.00  0.00    +0.141 A 
ATOM     11  C   LIG    1       26.883 -28.528  10.737  0.00  0.00    +0.048 A 
ATOM     12  C   LIG    1       23.232 -30.452   9.556  0.00  0.00    +0.015 C 
ATOM     13  C   LIG    1       26.781 -29.065   9.449  0.00  0.00    +0.010 A 
BRANCH  10  14
ATOM     14  O   LIG    1       25.882 -28.160  12.886  0.00  0.00    -0.505 OA
ATOM     15  H   LIG    1       26.767 -27.783  13.028  0.00  0.00    +0.292 HD
ENDBRANCH  10  14
ENDBRANCH   1   2
BRANCH   1  16
ATOM     16  O   LIG    1       25.097 -31.618   7.579  0.00  0.00    -0.386 OA
ATOM     17  H   LIG    1       24.369 -31.635   6.927  0.00  0.00    +0.210 HD
ENDBRANCH   1  16
BRANCH   1  18
ATOM     18  C   LIG    1       24.660 -29.437   6.606  0.00  0.00    +0.117 C 
BRANCH  18  19
ATOM     19  N   LIG    1       25.451 -28.370   5.937  0.00  0.00    -0.310 NA
ATOM     20  H   LIG    1       26.444 -28.604   6.002  0.00  0.00    +0.122 HD
BRANCH  19  26
ATOM     21  C   LIG    1       25.568 -22.400   7.104  0.00  0.00    -0.044 A 
ATOM     22  C   LIG    1       24.155 -22.525   6.973  0.00  0.00    -0.044 A 
ATOM     23  C   LIG    1       23.593 -23.769   6.624  0.00  0.00    +0.007 A 
ATOM     24  C   LIG    1       24.416 -24.864   6.447  0.00  0.00    -0.042 A 
ATOM     25  C   LIG    1       24.019 -26.261   6.084  0.00  0.00    +0.054 C 
ATOM     26  C   LIG    1       25.256 -27.052   6.571  0.00  0.00    +0.062 C 
ATOM     27  C   LIG    1       26.453 -26.082   6.344  0.00  0.00    +0.054 C 
ATOM     28  C   LIG    1       25.798 -24.755   6.592  0.00  0.00    -0.042 A 
ATOM     29  C   LIG    1       26.383 -23.537   6.902  0.00  0.00    +0.007 A 
BRANCH  21  31
ATOM     30  C   LIG    1       26.009 -20.592   8.853  0.00  0.00    +0.009 C 
ATOM     31  C   LIG    1       26.264 -21.094   7.438  0.00  0.00    +0.032 C 
ENDBRANCH  21  31
BRANCH  22  32
ATOM     32  C   LIG    1       23.184 -21.395   7.230  0.00  0.00    +0.032 C 
ATOM     33  C   LIG    1       22.867 -20.628   5.955  0.00  0.00    +0.009 C 
ENDBRANCH  22  32
ENDBRANCH  19  26
ENDBRANCH  18  19
ENDBRANCH   1  18
TORSDOF 8
ENDMDL
