MODEL 1
REMARK VINA RESULT:      -3.6      0.000      0.000
REMARK  Name = *****
REMARK                            x       y       z     vdW  Elec       q    Type
REMARK                         _______ _______ _______ _____ _____    ______ ____
ROOT
ATOM      1  C   LIG    1       25.362 -20.813   7.031  0.00  0.00    +0.105 C 
ATOM      2  N   LIG    1       24.340 -21.203   6.050  0.00  0.00    -0.303 NA
ENDROOT
BRANCH   2   3
ATOM      3  C   LIG    1       24.838 -21.013   4.662  0.00  0.00    +0.100 C 
BRANCH   3   4
ATOM      4  C   LIG    1       25.930 -19.941   4.539  0.00  0.00    +0.124 C 
ATOM      5 CL   LIG    1       25.399 -18.618   3.464  0.00  0.00    -0.124 Cl
ENDBRANCH   3   4
ENDBRANCH   2   3
BRANCH   2   6
ATOM      6  C   LIG    1       23.088 -20.431   6.248  0.00  0.00    +0.100 C 
BRANCH   6   7
ATOM      7  C   LIG    1       22.271 -20.197   4.969  0.00  0.00    +0.124 C 
ATOM      8 CL   LIG    1       22.142 -18.451   4.620  0.00  0.00    -0.124 Cl
ENDBRANCH   6   7
ENDBRANCH   2   6
TORSDOF 4
ENDMDL
MODEL 2
REMARK VINA RESULT:      -3.4      1.852      3.786
REMARK  Name = *****
REMARK                            x       y       z     vdW  Elec       q    Type
REMARK                         _______ _______ _______ _____ _____    ______ ____
ROOT
ATOM      1  C   LIG    1       25.472 -20.123   4.446  0.00  0.00    +0.105 C 
ATOM      2  N   LIG    1       24.832 -21.097   5.340  0.00  0.00    -0.303 NA
ENDROOT
BRANCH   2   3
ATOM      3  C   LIG    1       23.626 -20.514   5.984  0.00  0.00    +0.100 C 
BRANCH   3   4
ATOM      4  C   LIG    1       22.452 -20.298   5.018  0.00  0.00    +0.124 C 
ATOM      5 CL   LIG    1       22.227 -18.562   4.673  0.00  0.00    -0.124 Cl
ENDBRANCH   3   4
ENDBRANCH   2   3
BRANCH   2   6
ATOM      6  C   LIG    1       25.781 -21.571   6.379  0.00  0.00    +0.100 C 
BRANCH   6   7
ATOM      7  C   LIG    1       26.607 -20.460   7.046  0.00  0.00    +0.124 C 
ATOM      8 CL   LIG    1       28.342 -20.663   6.675  0.00  0.00    -0.124 Cl
ENDBRANCH   6   7
ENDBRANCH   2   6
TORSDOF 4
ENDMDL
MODEL 3
REMARK VINA RESULT:      -3.4      1.696      3.365
REMARK  Name = *****
REMARK                            x       y       z     vdW  Elec       q    Type
REMARK                         _______ _______ _______ _____ _____    ______ ____
ROOT
ATOM      1  C   LIG    1       23.338 -21.030   6.959  0.00  0.00    +0.105 C 
ATOM      2  N   LIG    1       24.326 -20.532   5.993  0.00  0.00    -0.303 NA
ENDROOT
BRANCH   2   3
ATOM      3  C   LIG    1       23.818 -20.658   4.602  0.00  0.00    +0.100 C 
BRANCH   3   4
ATOM      4  C   LIG    1       23.658 -19.314   3.877  0.00  0.00    +0.124 C 
ATOM      5 CL   LIG    1       22.262 -18.408   4.523  0.00  0.00    -0.124 Cl
ENDBRANCH   3   4
ENDBRANCH   2   3
BRANCH   2   6
ATOM      6  C   LIG    1       25.616 -21.254   6.128  0.00  0.00    +0.100 C 
BRANCH   6   7
ATOM      7  C   LIG    1       26.702 -20.485   6.896  0.00  0.00    +0.124 C 
ATOM      8 CL   LIG    1       27.961 -19.896   5.775  0.00  0.00    -0.124 Cl
ENDBRANCH   6   7
ENDBRANCH   2   6
TORSDOF 4
ENDMDL
MODEL 4
REMARK VINA RESULT:      -3.4      1.757      1.956
REMARK  Name = *****
REMARK                            x       y       z     vdW  Elec       q    Type
REMARK                         _______ _______ _______ _____ _____    ______ ____
ROOT
ATOM      1  C   LIG    1       24.106 -21.094   6.987  0.00  0.00    +0.105 C 
ATOM      2  N   LIG    1       24.717 -21.290   5.665  0.00  0.00    -0.303 NA
ENDROOT
BRANCH   2   3
ATOM      3  C   LIG    1       25.862 -20.363   5.468  0.00  0.00    +0.100 C 
BRANCH   3   4
ATOM      4  C   LIG    1       26.958 -20.500   6.536  0.00  0.00    +0.124 C 
ATOM      5 CL   LIG    1       28.510 -19.850   5.938  0.00  0.00    -0.124 Cl
ENDBRANCH   3   4
ENDBRANCH   2   3
BRANCH   2   6
ATOM      6  C   LIG    1       23.719 -21.097   4.583  0.00  0.00    +0.100 C 
BRANCH   6   7
ATOM      7  C   LIG    1       22.383 -20.494   5.044  0.00  0.00    +0.124 C 
ATOM      8 CL   LIG    1       22.335 -18.743   4.694  0.00  0.00    -0.124 Cl
ENDBRANCH   6   7
ENDBRANCH   2   6
TORSDOF 4
ENDMDL
MODEL 5
REMARK VINA RESULT:      -3.3      6.231      6.880
REMARK  Name = *****
REMARK                            x       y       z     vdW  Elec       q    Type
REMARK                         _______ _______ _______ _____ _____    ______ ____
ROOT
ATOM      1  C   LIG    1       24.959 -12.830   1.958  0.00  0.00    +0.105 C 
ATOM      2  N   LIG    1       26.051 -13.053   2.916  0.00  0.00    -0.303 NA
ENDROOT
BRANCH   2   3
ATOM      3  C   LIG    1       26.902 -14.196   2.493  0.00  0.00    +0.100 C 
BRANCH   3   4
ATOM      4  C   LIG    1       27.153 -15.224   3.606  0.00  0.00    +0.124 C 
ATOM      5 CL   LIG    1       26.243 -16.728   3.297  0.00  0.00    -0.124 Cl
ENDBRANCH   3   4
ENDBRANCH   2   3
BRANCH   2   6
ATOM      6  C   LIG    1       25.522 -13.294   4.281  0.00  0.00    +0.100 C 
BRANCH   6   7
ATOM      7  C   LIG    1       23.989 -13.285   4.386  0.00  0.00    +0.124 C 
ATOM      8 CL   LIG    1       23.356 -14.954   4.423  0.00  0.00    -0.124 Cl
ENDBRANCH   6   7
ENDBRANCH   2   6
TORSDOF 4
ENDMDL
MODEL 6
REMARK VINA RESULT:      -3.3      6.358      7.652
REMARK  Name = *****
REMARK                            x       y       z     vdW  Elec       q    Type
REMARK                         _______ _______ _______ _____ _____    ______ ____
ROOT
ATOM      1  C   LIG    1       25.119 -12.898   2.185  0.00  0.00    +0.105 C 
ATOM      2  N   LIG    1       25.780 -14.184   2.443  0.00  0.00    -0.303 NA
ENDROOT
BRANCH   2   3
ATOM      3  C   LIG    1       25.278 -14.796   3.701  0.00  0.00    +0.100 C 
BRANCH   3   4
ATOM      4  C   LIG    1       23.945 -14.207   4.185  0.00  0.00    +0.124 C 
ATOM      5 CL   LIG    1       22.843 -15.500   4.733  0.00  0.00    -0.124 Cl
ENDBRANCH   3   4
ENDBRANCH   2   3
BRANCH   2   6
ATOM      6  C   LIG    1       27.254 -14.021   2.513  0.00  0.00    +0.100 C 
BRANCH   6   7
ATOM      7  C   LIG    1       27.827 -13.988   3.939  0.00  0.00    +0.124 C 
ATOM      8 CL   LIG    1       28.909 -12.582   4.144  0.00  0.00    -0.124 Cl
ENDBRANCH   6   7
ENDBRANCH   2   6
TORSDOF 4
ENDMDL
MODEL 7
REMARK VINA RESULT:      -3.2      6.814      7.407
REMARK  Name = *****
REMARK                            x       y       z     vdW  Elec       q    Type
REMARK                         _______ _______ _______ _____ _____    ______ ____
ROOT
ATOM      1  C   LIG    1       25.950 -15.346   3.389  0.00  0.00    +0.105 C 
ATOM      2  N   LIG    1       26.371 -14.285   2.464  0.00  0.00    -0.303 NA
ENDROOT
BRANCH   2   3
ATOM      3  C   LIG    1       27.599 -13.607   2.958  0.00  0.00    +0.100 C 
BRANCH   3   4
ATOM      4  C   LIG    1       27.653 -13.463   4.486  0.00  0.00    +0.124 C 
ATOM      5 CL   LIG    1       28.808 -12.188   4.961  0.00  0.00    -0.124 Cl
ENDBRANCH   3   4
ENDBRANCH   2   3
BRANCH   2   6
ATOM      6  C   LIG    1       25.288 -13.288   2.267  0.00  0.00    +0.100 C 
BRANCH   6   7
ATOM      7  C   LIG    1       24.072 -13.474   3.187  0.00  0.00    +0.124 C 
ATOM      8 CL   LIG    1       24.126 -12.307   4.537  0.00  0.00    -0.124 Cl
ENDBRANCH   6   7
ENDBRANCH   2   6
TORSDOF 4
ENDMDL
MODEL 8
REMARK VINA RESULT:      -3.2      6.832      7.421
REMARK  Name = *****
REMARK                            x       y       z     vdW  Elec       q    Type
REMARK                         _______ _______ _______ _____ _____    ______ ____
ROOT
ATOM      1  C   LIG    1       24.751 -12.808   1.812  0.00  0.00    +0.105 C 
ATOM      2  N   LIG    1       25.855 -12.883   2.778  0.00  0.00    -0.303 NA
ENDROOT
BRANCH   2   3
ATOM      3  C   LIG    1       26.725 -14.056   2.499  0.00  0.00    +0.100 C 
BRANCH   3   4
ATOM      4  C   LIG    1       27.721 -14.369   3.625  0.00  0.00    +0.124 C 
ATOM      5 CL   LIG    1       28.879 -13.027   3.837  0.00  0.00    -0.124 Cl
ENDBRANCH   3   4
ENDBRANCH   2   3
BRANCH   2   6
ATOM      6  C   LIG    1       25.343 -12.954   4.169  0.00  0.00    +0.100 C 
BRANCH   6   7
ATOM      7  C   LIG    1       23.829 -13.192   4.283  0.00  0.00    +0.124 C 
ATOM      8 CL   LIG    1       23.472 -14.942   4.298  0.00  0.00    -0.124 Cl
ENDBRANCH   6   7
ENDBRANCH   2   6
TORSDOF 4
ENDMDL
MODEL 9
REMARK VINA RESULT:      -3.2      6.037      7.068
REMARK  Name = *****
REMARK                            x       y       z     vdW  Elec       q    Type
REMARK                         _______ _______ _______ _____ _____    ______ ____
ROOT
ATOM      1  C   LIG    1       26.657 -13.334   4.891  0.00  0.00    +0.105 C 
ATOM      2  N   LIG    1       26.487 -13.245   3.434  0.00  0.00    -0.303 NA
ENDROOT
BRANCH   2   3
ATOM      3  C   LIG    1       25.061 -13.016   3.080  0.00  0.00    +0.100 C 
BRANCH   3   4
ATOM      4  C   LIG    1       24.096 -13.181   4.262  0.00  0.00    +0.124 C 
ATOM      5 CL   LIG    1       23.438 -14.839   4.316  0.00  0.00    -0.124 Cl
ENDBRANCH   3   4
ENDBRANCH   2   3
BRANCH   2   6
ATOM      6  C   LIG    1       26.984 -14.472   2.763  0.00  0.00    +0.100 C 
BRANCH   6   7
ATOM      7  C   LIG    1       27.180 -15.677   3.696  0.00  0.00    +0.124 C 
ATOM      8 CL   LIG    1       26.045 -16.989   3.269  0.00  0.00    -0.124 Cl
ENDBRANCH   6   7
ENDBRANCH   2   6
TORSDOF 4
ENDMDL
