MODEL 1
REMARK VINA RESULT:      -8.0      0.000      0.000
REMARK  Name = *****
REMARK                            x       y       z     vdW  Elec       q    Type
REMARK                         _______ _______ _______ _____ _____    ______ ____
ROOT
ATOM      1  N   LIG    1       24.834 -23.716   5.810  0.00  0.00    -0.295 NA
ATOM      2  C   LIG    1       24.318 -22.321   5.858  0.00  0.00    +0.065 C 
ATOM      3  C   LIG    1       24.197 -21.783   7.296  0.00  0.00    +0.014 C 
ATOM      4  C   LIG    1       23.434 -20.450   7.347  0.00  0.00    +0.010 C 
ATOM      5  C   LIG    1       25.622 -21.749   7.920  0.00  0.00    -0.002 C 
ATOM      6  C   LIG    1       25.517 -21.298   9.395  0.00  0.00    +0.016 C 
ATOM      7  C   LIG    1       26.563 -20.860   7.090  0.00  0.00    -0.034 A 
ATOM      8  C   LIG    1       26.346 -20.709   5.702  0.00  0.00    -0.042 A 
ATOM      9  C   LIG    1       27.216 -19.914   4.935  0.00  0.00    +0.007 A 
ATOM     10  C   LIG    1       28.310 -19.289   5.525  0.00  0.00    +0.045 A 
ATOM     11  C   LIG    1       28.541 -19.459   6.881  0.00  0.00    +0.117 A 
ATOM     12  C   LIG    1       27.687 -20.235   7.663  0.00  0.00    +0.049 A 
ATOM     13  C   LIG    1       26.180 -23.200   7.892  0.00  0.00    +0.027 C 
ATOM     14  C   LIG    1       25.178 -21.365   4.993  0.00  0.00    +0.054 C 
ATOM     15  C   LIG    1       26.134 -23.840   6.495  0.00  0.00    +0.086 C 
ENDROOT
BRANCH  11  16
ATOM     16  O   LIG    1       29.635 -18.845   7.420  0.00  0.00    -0.507 OA
ATOM     17  H   LIG    1       29.650 -19.023   8.373  0.00  0.00    +0.292 HD
ENDBRANCH  11  16
BRANCH   1  18
ATOM     18  C   LIG    1       23.887 -24.723   6.320  0.00  0.00    +0.112 C 
BRANCH  18  21
ATOM     19  C   LIG    1       24.721 -28.372   5.118  0.00  0.00    +0.038 C 
ATOM     20  C   LIG    1       24.754 -27.112   5.945  0.00  0.00    -0.078 C 
ATOM     21  C   LIG    1       23.985 -26.053   5.619  0.00  0.00    -0.013 C 
ATOM     22  C   LIG    1       25.690 -27.178   7.120  0.00  0.00    +0.038 C 
ENDBRANCH  18  21
ENDBRANCH   1  18
TORSDOF 3
ENDMDL
MODEL 2
REMARK VINA RESULT:      -7.4      1.065      1.334
REMARK  Name = *****
REMARK                            x       y       z     vdW  Elec       q    Type
REMARK                         _______ _______ _______ _____ _____    ______ ____
ROOT
ATOM      1  N   LIG    1       24.155 -23.791   5.715  0.00  0.00    -0.295 NA
ATOM      2  C   LIG    1       23.603 -22.463   6.098  0.00  0.00    +0.065 C 
ATOM      3  C   LIG    1       24.189 -21.938   7.423  0.00  0.00    +0.014 C 
ATOM      4  C   LIG    1       23.434 -20.700   7.932  0.00  0.00    +0.010 C 
ATOM      5  C   LIG    1       25.719 -21.740   7.229  0.00  0.00    -0.002 C 
ATOM      6  C   LIG    1       26.346 -21.299   8.571  0.00  0.00    +0.016 C 
ATOM      7  C   LIG    1       26.004 -20.753   6.084  0.00  0.00    -0.034 A 
ATOM      8  C   LIG    1       25.088 -20.631   5.015  0.00  0.00    -0.042 A 
ATOM      9  C   LIG    1       25.355 -19.745   3.956  0.00  0.00    +0.007 A 
ATOM     10  C   LIG    1       26.528 -18.998   3.936  0.00  0.00    +0.045 A 
ATOM     11  C   LIG    1       27.441 -19.137   4.969  0.00  0.00    +0.117 A 
ATOM     12  C   LIG    1       27.194 -20.002   6.034  0.00  0.00    +0.049 A 
ATOM     13  C   LIG    1       26.323 -23.118   6.837  0.00  0.00    +0.027 C 
ATOM     14  C   LIG    1       23.794 -21.418   4.970  0.00  0.00    +0.054 C 
ATOM     15  C   LIG    1       25.627 -23.764   5.628  0.00  0.00    +0.086 C 
ENDROOT
BRANCH  11  16
ATOM     16  O   LIG    1       28.589 -18.401   4.904  0.00  0.00    -0.507 OA
ATOM     17  H   LIG    1       28.962 -18.489   4.013  0.00  0.00    +0.292 HD
ENDBRANCH  11  16
BRANCH   1  18
ATOM     18  C   LIG    1       23.712 -24.897   6.581  0.00  0.00    +0.112 C 
BRANCH  18  21
ATOM     19  C   LIG    1       24.922 -28.479   5.508  0.00  0.00    +0.038 C 
ATOM     20  C   LIG    1       24.885 -27.154   6.225  0.00  0.00    -0.078 C 
ATOM     21  C   LIG    1       23.909 -26.259   5.969  0.00  0.00    -0.013 C 
ATOM     22  C   LIG    1       26.002 -26.964   7.213  0.00  0.00    +0.038 C 
ENDBRANCH  18  21
ENDBRANCH   1  18
TORSDOF 3
ENDMDL
MODEL 3
REMARK VINA RESULT:      -6.9      2.850      6.515
REMARK  Name = *****
REMARK                            x       y       z     vdW  Elec       q    Type
REMARK                         _______ _______ _______ _____ _____    ______ ____
ROOT
ATOM      1  N   LIG    1       27.861 -20.762   8.132  0.00  0.00    -0.295 NA
ATOM      2  C   LIG    1       26.457 -21.082   8.510  0.00  0.00    +0.065 C 
ATOM      3  C   LIG    1       25.429 -20.461   7.546  0.00  0.00    +0.014 C 
ATOM      4  C   LIG    1       23.994 -20.585   8.083  0.00  0.00    +0.010 C 
ATOM      5  C   LIG    1       25.657 -21.076   6.136  0.00  0.00    -0.002 C 
ATOM      6  C   LIG    1       24.696 -20.402   5.129  0.00  0.00    +0.016 C 
ATOM      7  C   LIG    1       25.507 -22.606   6.173  0.00  0.00    -0.034 A 
ATOM      8  C   LIG    1       25.804 -23.314   7.359  0.00  0.00    -0.042 A 
ATOM      9  C   LIG    1       25.688 -24.715   7.391  0.00  0.00    +0.007 A 
ATOM     10  C   LIG    1       25.304 -25.420   6.255  0.00  0.00    +0.045 A 
ATOM     11  C   LIG    1       25.039 -24.730   5.083  0.00  0.00    +0.117 A 
ATOM     12  C   LIG    1       25.139 -23.341   5.030  0.00  0.00    +0.049 A 
ATOM     13  C   LIG    1       27.117 -20.745   5.712  0.00  0.00    +0.027 C 
ATOM     14  C   LIG    1       26.233 -22.610   8.631  0.00  0.00    +0.054 C 
ATOM     15  C   LIG    1       28.163 -21.181   6.752  0.00  0.00    +0.086 C 
ENDROOT
BRANCH  11  16
ATOM     16  O   LIG    1       24.683 -25.459   3.986  0.00  0.00    -0.507 OA
ATOM     17  H   LIG    1       25.026 -25.014   3.195  0.00  0.00    +0.292 HD
ENDBRANCH  11  16
BRANCH   1  18
ATOM     18  C   LIG    1       28.228 -19.349   8.332  0.00  0.00    +0.112 C 
BRANCH  18  21
ATOM     19  C   LIG    1       31.962 -18.130   8.499  0.00  0.00    +0.038 C 
ATOM     20  C   LIG    1       30.508 -18.292   8.864  0.00  0.00    -0.078 C 
ATOM     21  C   LIG    1       29.694 -19.071   8.122  0.00  0.00    -0.013 C 
ATOM     22  C   LIG    1       30.100 -17.532  10.095  0.00  0.00    +0.038 C 
ENDBRANCH  18  21
ENDBRANCH   1  18
TORSDOF 3
ENDMDL
MODEL 4
REMARK VINA RESULT:      -6.2      3.068      5.487
REMARK  Name = *****
REMARK                            x       y       z     vdW  Elec       q    Type
REMARK                         _______ _______ _______ _____ _____    ______ ____
ROOT
ATOM      1  N   LIG    1       26.926 -20.941   7.265  0.00  0.00    -0.295 NA
ATOM      2  C   LIG    1       26.504 -21.672   6.038  0.00  0.00    +0.065 C 
ATOM      3  C   LIG    1       25.268 -22.561   6.274  0.00  0.00    +0.014 C 
ATOM      4  C   LIG    1       24.998 -23.493   5.082  0.00  0.00    +0.010 C 
ATOM      5  C   LIG    1       24.079 -21.639   6.670  0.00  0.00    -0.002 C 
ATOM      6  C   LIG    1       22.849 -22.515   7.000  0.00  0.00    +0.016 C 
ATOM      7  C   LIG    1       23.797 -20.604   5.568  0.00  0.00    -0.034 A 
ATOM      8  C   LIG    1       24.847 -20.160   4.733  0.00  0.00    -0.042 A 
ATOM      9  C   LIG    1       24.597 -19.198   3.738  0.00  0.00    +0.007 A 
ATOM     10  C   LIG    1       23.326 -18.657   3.579  0.00  0.00    +0.045 A 
ATOM     11  C   LIG    1       22.301 -19.071   4.415  0.00  0.00    +0.117 A 
ATOM     12  C   LIG    1       22.523 -20.029   5.403  0.00  0.00    +0.049 A 
ATOM     13  C   LIG    1       24.492 -20.871   7.958  0.00  0.00    +0.027 C 
ATOM     14  C   LIG    1       26.256 -20.703   4.854  0.00  0.00    +0.054 C 
ATOM     15  C   LIG    1       25.829 -20.126   7.817  0.00  0.00    +0.086 C 
ENDROOT
BRANCH  11  16
ATOM     16  O   LIG    1       21.072 -18.503   4.241  0.00  0.00    -0.507 OA
ATOM     17  H   LIG    1       20.735 -18.758   3.368  0.00  0.00    +0.292 HD
ENDBRANCH  11  16
BRANCH   1  18
ATOM     18  C   LIG    1       27.500 -21.807   8.310  0.00  0.00    +0.112 C 
BRANCH  18  21
ATOM     19  C   LIG    1       31.292 -20.775   8.363  0.00  0.00    +0.038 C 
ATOM     20  C   LIG    1       29.794 -20.655   8.243  0.00  0.00    -0.078 C 
ATOM     21  C   LIG    1       29.002 -21.736   8.395  0.00  0.00    -0.013 C 
ATOM     22  C   LIG    1       29.315 -19.258   7.960  0.00  0.00    +0.038 C 
ENDBRANCH  18  21
ENDBRANCH   1  18
TORSDOF 3
ENDMDL
MODEL 5
REMARK VINA RESULT:      -5.7      3.238      6.720
REMARK  Name = *****
REMARK                            x       y       z     vdW  Elec       q    Type
REMARK                         _______ _______ _______ _____ _____    ______ ____
ROOT
ATOM      1  N   LIG    1       25.441 -19.807   4.234  0.00  0.00    -0.295 NA
ATOM      2  C   LIG    1       25.125 -19.959   5.681  0.00  0.00    +0.065 C 
ATOM      3  C   LIG    1       23.630 -20.229   5.935  0.00  0.00    +0.014 C 
ATOM      4  C   LIG    1       23.276 -20.132   7.427  0.00  0.00    +0.010 C 
ATOM      5  C   LIG    1       23.262 -21.581   5.259  0.00  0.00    -0.002 C 
ATOM      6  C   LIG    1       21.745 -21.832   5.422  0.00  0.00    +0.016 C 
ATOM      7  C   LIG    1       24.121 -22.727   5.821  0.00  0.00    -0.034 A 
ATOM      8  C   LIG    1       25.419 -22.459   6.310  0.00  0.00    -0.042 A 
ATOM      9  C   LIG    1       26.215 -23.507   6.805  0.00  0.00    +0.007 A 
ATOM     10  C   LIG    1       25.747 -24.817   6.798  0.00  0.00    +0.045 A 
ATOM     11  C   LIG    1       24.485 -25.085   6.293  0.00  0.00    +0.117 A 
ATOM     12  C   LIG    1       23.674 -24.062   5.805  0.00  0.00    +0.049 A 
ATOM     13  C   LIG    1       23.574 -21.445   3.741  0.00  0.00    +0.027 C 
ATOM     14  C   LIG    1       25.994 -21.057   6.343  0.00  0.00    +0.054 C 
ATOM     15  C   LIG    1       25.013 -20.985   3.457  0.00  0.00    +0.086 C 
ENDROOT
BRANCH  11  16
ATOM     16  O   LIG    1       24.068 -26.385   6.286  0.00  0.00    -0.507 OA
ATOM     17  H   LIG    1       24.518 -26.857   7.003  0.00  0.00    +0.292 HD
ENDBRANCH  11  16
BRANCH   1  18
ATOM     18  C   LIG    1       24.910 -18.573   3.630  0.00  0.00    +0.112 C 
BRANCH  18  21
ATOM     19  C   LIG    1       26.971 -15.244   3.278  0.00  0.00    +0.038 C 
ATOM     20  C   LIG    1       25.805 -16.167   3.522  0.00  0.00    -0.078 C 
ATOM     21  C   LIG    1       25.952 -17.505   3.424  0.00  0.00    -0.013 C 
ATOM     22  C   LIG    1       24.529 -15.457   3.880  0.00  0.00    +0.038 C 
ENDBRANCH  18  21
ENDBRANCH   1  18
TORSDOF 3
ENDMDL
MODEL 6
REMARK VINA RESULT:      -5.7      3.192      6.131
REMARK  Name = *****
REMARK                            x       y       z     vdW  Elec       q    Type
REMARK                         _______ _______ _______ _____ _____    ______ ____
ROOT
ATOM      1  N   LIG    1       25.255 -20.223   4.580  0.00  0.00    -0.295 NA
ATOM      2  C   LIG    1       25.174 -20.475   6.045  0.00  0.00    +0.065 C 
ATOM      3  C   LIG    1       23.733 -20.741   6.520  0.00  0.00    +0.014 C 
ATOM      4  C   LIG    1       23.629 -20.748   8.053  0.00  0.00    +0.010 C 
ATOM      5  C   LIG    1       23.224 -22.034   5.821  0.00  0.00    -0.002 C 
ATOM      6  C   LIG    1       21.748 -22.273   6.212  0.00  0.00    +0.016 C 
ATOM      7  C   LIG    1       24.132 -23.230   6.153  0.00  0.00    -0.034 A 
ATOM      8  C   LIG    1       25.499 -23.018   6.441  0.00  0.00    -0.042 A 
ATOM      9  C   LIG    1       26.337 -24.111   6.725  0.00  0.00    +0.007 A 
ATOM     10  C   LIG    1       25.839 -25.410   6.703  0.00  0.00    +0.045 A 
ATOM     11  C   LIG    1       24.505 -25.622   6.394  0.00  0.00    +0.117 A 
ATOM     12  C   LIG    1       23.654 -24.553   6.118  0.00  0.00    +0.049 A 
ATOM     13  C   LIG    1       23.290 -21.792   4.286  0.00  0.00    +0.027 C 
ATOM     14  C   LIG    1       26.109 -21.631   6.477  0.00  0.00    +0.054 C 
ATOM     15  C   LIG    1       24.675 -21.333   3.803  0.00  0.00    +0.086 C 
ENDROOT
BRANCH  11  16
ATOM     16  O   LIG    1       24.058 -26.912   6.364  0.00  0.00    -0.507 OA
ATOM     17  H   LIG    1       24.519 -27.381   5.652  0.00  0.00    +0.292 HD
ENDBRANCH  11  16
BRANCH   1  18
ATOM     18  C   LIG    1       24.666 -18.939   4.159  0.00  0.00    +0.112 C 
BRANCH  18  21
ATOM     19  C   LIG    1       20.809 -18.492   3.547  0.00  0.00    +0.038 C 
ATOM     20  C   LIG    1       22.201 -18.225   4.061  0.00  0.00    -0.078 C 
ATOM     21  C   LIG    1       23.223 -19.046   3.742  0.00  0.00    -0.013 C 
ATOM     22  C   LIG    1       22.309 -16.994   4.917  0.00  0.00    +0.038 C 
ENDBRANCH  18  21
ENDBRANCH   1  18
TORSDOF 3
ENDMDL
MODEL 7
REMARK VINA RESULT:      -5.7      2.913      5.792
REMARK  Name = *****
REMARK                            x       y       z     vdW  Elec       q    Type
REMARK                         _______ _______ _______ _____ _____    ______ ____
ROOT
ATOM      1  N   LIG    1       23.142 -21.352   5.800  0.00  0.00    -0.295 NA
ATOM      2  C   LIG    1       24.526 -21.506   5.274  0.00  0.00    +0.065 C 
ATOM      3  C   LIG    1       25.595 -21.395   6.377  0.00  0.00    +0.014 C 
ATOM      4  C   LIG    1       27.013 -21.304   5.792  0.00  0.00    +0.010 C 
ATOM      5  C   LIG    1       25.373 -22.560   7.384  0.00  0.00    -0.002 C 
ATOM      6  C   LIG    1       26.378 -22.418   8.550  0.00  0.00    +0.016 C 
ATOM      7  C   LIG    1       25.468 -23.922   6.675  0.00  0.00    -0.034 A 
ATOM      8  C   LIG    1       25.122 -24.031   5.310  0.00  0.00    -0.042 A 
ATOM      9  C   LIG    1       25.187 -25.279   4.665  0.00  0.00    +0.007 A 
ATOM     10  C   LIG    1       25.568 -26.419   5.363  0.00  0.00    +0.045 A 
ATOM     11  C   LIG    1       25.881 -26.319   6.710  0.00  0.00    +0.117 A 
ATOM     12  C   LIG    1       25.833 -25.092   7.368  0.00  0.00    +0.049 A 
ATOM     13  C   LIG    1       23.935 -22.415   7.957  0.00  0.00    +0.027 C 
ATOM     14  C   LIG    1       24.693 -22.832   4.489  0.00  0.00    +0.054 C 
ATOM     15  C   LIG    1       22.854 -22.326   6.868  0.00  0.00    +0.086 C 
ENDROOT
BRANCH  11  16
ATOM     16  O   LIG    1       26.233 -27.463   7.365  0.00  0.00    -0.507 OA
ATOM     17  H   LIG    1       26.963 -27.260   7.971  0.00  0.00    +0.292 HD
ENDBRANCH  11  16
BRANCH   1  18
ATOM     18  C   LIG    1       22.822 -19.986   6.252  0.00  0.00    +0.112 C 
BRANCH  18  21
ATOM     19  C   LIG    1       21.605 -17.808   3.214  0.00  0.00    +0.038 C 
ATOM     20  C   LIG    1       22.527 -18.583   4.120  0.00  0.00    -0.078 C 
ATOM     21  C   LIG    1       22.057 -19.178   5.236  0.00  0.00    -0.013 C 
ATOM     22  C   LIG    1       23.954 -18.619   3.651  0.00  0.00    +0.038 C 
ENDBRANCH  18  21
ENDBRANCH   1  18
TORSDOF 3
ENDMDL
MODEL 8
REMARK VINA RESULT:      -5.6      5.758     10.388
REMARK  Name = *****
REMARK                            x       y       z     vdW  Elec       q    Type
REMARK                         _______ _______ _______ _____ _____    ______ ____
ROOT
ATOM      1  N   LIG    1       24.168 -29.900   6.137  0.00  0.00    -0.295 NA
ATOM      2  C   LIG    1       24.675 -31.298   6.059  0.00  0.00    +0.065 C 
ATOM      3  C   LIG    1       25.985 -31.497   6.845  0.00  0.00    +0.014 C 
ATOM      4  C   LIG    1       26.625 -32.863   6.553  0.00  0.00    +0.010 C 
ATOM      5  C   LIG    1       25.695 -31.215   8.347  0.00  0.00    -0.002 C 
ATOM      6  C   LIG    1       27.014 -31.319   9.145  0.00  0.00    +0.016 C 
ATOM      7  C   LIG    1       24.599 -32.153   8.879  0.00  0.00    -0.034 A 
ATOM      8  C   LIG    1       23.608 -32.648   8.002  0.00  0.00    -0.042 A 
ATOM      9  C   LIG    1       22.592 -33.489   8.489  0.00  0.00    +0.007 A 
ATOM     10  C   LIG    1       22.535 -33.824   9.838  0.00  0.00    +0.045 A 
ATOM     11  C   LIG    1       23.490 -33.318  10.705  0.00  0.00    +0.117 A 
ATOM     12  C   LIG    1       24.511 -32.489  10.243  0.00  0.00    +0.049 A 
ATOM     13  C   LIG    1       25.173 -29.754   8.456  0.00  0.00    +0.027 C 
ATOM     14  C   LIG    1       23.605 -32.319   6.523  0.00  0.00    +0.054 C 
ATOM     15  C   LIG    1       23.978 -29.466   7.533  0.00  0.00    +0.086 C 
ENDROOT
BRANCH  11  16
ATOM     16  O   LIG    1       23.390 -33.654  12.024  0.00  0.00    -0.507 OA
ATOM     17  H   LIG    1       24.045 -33.142  12.524  0.00  0.00    +0.292 HD
ENDBRANCH  11  16
BRANCH   1  18
ATOM     18  C   LIG    1       24.991 -28.923   5.403  0.00  0.00    +0.112 C 
BRANCH  18  21
ATOM     19  C   LIG    1       24.206 -25.115   5.985  0.00  0.00    +0.038 C 
ATOM     20  C   LIG    1       24.907 -26.447   6.080  0.00  0.00    -0.078 C 
ATOM     21  C   LIG    1       24.430 -27.525   5.424  0.00  0.00    -0.013 C 
ATOM     22  C   LIG    1       26.140 -26.426   6.940  0.00  0.00    +0.038 C 
ENDBRANCH  18  21
ENDBRANCH   1  18
TORSDOF 3
ENDMDL
MODEL 9
REMARK VINA RESULT:      -5.5      8.221     10.609
REMARK  Name = *****
REMARK                            x       y       z     vdW  Elec       q    Type
REMARK                         _______ _______ _______ _____ _____    ______ ____
ROOT
ATOM      1  N   LIG    1       27.164 -28.525  14.760  0.00  0.00    -0.295 NA
ATOM      2  C   LIG    1       26.963 -27.766  13.496  0.00  0.00    +0.065 C 
ATOM      3  C   LIG    1       26.646 -28.683  12.299  0.00  0.00    +0.014 C 
ATOM      4  C   LIG    1       26.690 -27.920  10.966  0.00  0.00    +0.010 C 
ATOM      5  C   LIG    1       25.305 -29.415  12.593  0.00  0.00    -0.002 C 
ATOM      6  C   LIG    1       25.010 -30.409  11.448  0.00  0.00    +0.016 C 
ATOM      7  C   LIG    1       24.167 -28.404  12.816  0.00  0.00    -0.034 A 
ATOM      8  C   LIG    1       24.454 -27.123  13.336  0.00  0.00    -0.042 A 
ATOM      9  C   LIG    1       23.414 -26.203  13.560  0.00  0.00    +0.007 A 
ATOM     10  C   LIG    1       22.093 -26.550  13.296  0.00  0.00    +0.045 A 
ATOM     11  C   LIG    1       21.806 -27.817  12.812  0.00  0.00    +0.117 A 
ATOM     12  C   LIG    1       22.821 -28.741  12.574  0.00  0.00    +0.049 A 
ATOM     13  C   LIG    1       25.493 -30.225  13.908  0.00  0.00    +0.027 C 
ATOM     14  C   LIG    1       25.869 -26.680  13.650  0.00  0.00    +0.054 C 
ATOM     15  C   LIG    1       25.999 -29.369  15.080  0.00  0.00    +0.086 C 
ENDROOT
BRANCH  11  16
ATOM     16  O   LIG    1       20.496 -28.126  12.584  0.00  0.00    -0.507 OA
ATOM     17  H   LIG    1       19.972 -27.313  12.643  0.00  0.00    +0.292 HD
ENDBRANCH  11  16
BRANCH   1  18
ATOM     18  C   LIG    1       28.401 -29.325  14.789  0.00  0.00    +0.112 C 
BRANCH  18  21
ATOM     19  C   LIG    1       32.003 -27.792  15.147  0.00  0.00    +0.038 C 
ATOM     20  C   LIG    1       30.890 -28.699  14.687  0.00  0.00    -0.078 C 
ATOM     21  C   LIG    1       29.630 -28.525  15.135  0.00  0.00    -0.013 C 
ATOM     22  C   LIG    1       31.329 -29.757  13.713  0.00  0.00    +0.038 C 
ENDBRANCH  18  21
ENDBRANCH   1  18
TORSDOF 3
ENDMDL
