MODEL 1
REMARK VINA RESULT:     -11.0      0.000      0.000
REMARK  Name = *****
REMARK                            x       y       z     vdW  Elec       q    Type
REMARK                         _______ _______ _______ _____ _____    ______ ____
ROOT
ATOM      1  C   LIG    1       24.425 -21.589   7.178  0.00  0.00    +0.213 C 
ENDROOT
BRANCH   1   2
ATOM      2  C   LIG    1       24.544 -23.090   6.858  0.00  0.00    -0.001 A 
ATOM      3  C   LIG    1       25.788 -23.749   6.888  0.00  0.00    +0.007 A 
ATOM      4  C   LIG    1       25.897 -25.114   6.601  0.00  0.00    +0.000 A 
ATOM      5  C   LIG    1       24.763 -25.849   6.272  0.00  0.00    +0.000 A 
ATOM      6  C   LIG    1       23.523 -25.220   6.225  0.00  0.00    +0.000 A 
ATOM      7  C   LIG    1       23.413 -23.856   6.519  0.00  0.00    +0.007 A 
ENDBRANCH   1   2
BRANCH   1   8
ATOM      8  C   LIG    1       24.076 -20.742   5.927  0.00  0.00    -0.001 A 
ATOM      9  C   LIG    1       22.846 -20.053   5.853  0.00  0.00    +0.007 A 
ATOM     10  C   LIG    1       22.517 -19.263   4.746  0.00  0.00    +0.000 A 
ATOM     11  C   LIG    1       23.402 -19.158   3.679  0.00  0.00    +0.000 A 
ATOM     12  C   LIG    1       24.607 -19.855   3.712  0.00  0.00    +0.000 A 
ATOM     13  C   LIG    1       24.938 -20.646   4.820  0.00  0.00    +0.007 A 
ENDBRANCH   1   8
BRANCH   1  14
ATOM     14  C   LIG    1       25.695 -21.049   7.942  0.00  0.00    +0.349 C 
ATOM     15  O   LIG    1       25.762 -20.637   9.099  0.00  0.00    -0.247 OA
BRANCH  14  16
ATOM     16  O   LIG    1       26.801 -21.153   7.130  0.00  0.00    -0.454 OA
BRANCH  16  20
ATOM     17  C   LIG    1       31.404 -20.875   8.700  0.00  0.00    +0.192 C 
ATOM     18  N   LIG    1       30.274 -19.994   8.146  0.00  0.00    +0.242 N 
ATOM     19  C   LIG    1       28.988 -20.836   8.098  0.00  0.00    +0.178 C 
ATOM     20  C   LIG    1       27.835 -20.163   7.338  0.00  0.00    +0.221 C 
ATOM     21  C   LIG    1       28.278 -19.652   5.967  0.00  0.00    +0.055 C 
ATOM     22  C   LIG    1       29.536 -18.800   6.046  0.00  0.00    +0.055 C 
ATOM     23  C   LIG    1       30.675 -19.536   6.739  0.00  0.00    +0.133 C 
ATOM     24  C   LIG    1       30.119 -18.805   9.096  0.00  0.00    +0.192 C 
ENDBRANCH  16  20
ENDBRANCH  14  16
ENDBRANCH   1  14
BRANCH   1  25
ATOM     25  O   LIG    1       23.339 -21.414   8.120  0.00  0.00    -0.370 OA
ATOM     26  H   LIG    1       23.746 -21.027   8.915  0.00  0.00    +0.212 HD
ENDBRANCH   1  25
TORSDOF 6
ENDMDL
