MODEL 1
REMARK VINA RESULT:      -5.2      0.000      0.000
REMARK  Name = *****
REMARK                            x       y       z     vdW  Elec       q    Type
REMARK                         _______ _______ _______ _____ _____    ______ ____
ROOT
ATOM      1  C   LIG    1       23.704 -20.317   4.379  0.00  0.00    +0.043 C 
ENDROOT
BRANCH   1   2
ATOM      2  C   LIG    1       25.080 -20.304   5.068  0.00  0.00    -0.043 A 
ATOM      3  C   LIG    1       26.183 -19.695   4.447  0.00  0.00    +0.005 A 
ATOM      4  C   LIG    1       27.442 -19.698   5.062  0.00  0.00    +0.020 A 
ATOM      5  C   LIG    1       27.612 -20.309   6.302  0.00  0.00    +0.041 A 
ATOM      6 CL   LIG    1       29.156 -20.305   7.062  0.00  0.00    -0.084 Cl
ATOM      7  C   LIG    1       26.535 -20.924   6.931  0.00  0.00    +0.020 A 
ATOM      8  C   LIG    1       25.278 -20.919   6.319  0.00  0.00    +0.005 A 
ENDBRANCH   1   2
BRANCH   1   9
ATOM      9  C   LIG    1       22.660 -20.779   5.427  0.00  0.00    +0.086 C 
BRANCH   9  10
ATOM     10  N   LIG    1       21.566 -21.571   4.864  0.00  0.00    -0.329 NA
ATOM     11  H   LIG    1       21.961 -22.272   4.225  0.00  0.00    +0.118 HD
ATOM     12  H   LIG    1       21.141 -22.133   5.611  0.00  0.00    +0.118 HD
ENDBRANCH   9  10
ENDBRANCH   1   9
BRANCH   1  13
ATOM     13  C   LIG    1       23.420 -18.941   3.740  0.00  0.00    +0.129 C 
BRANCH  13  14
ATOM     14  C   LIG    1       22.163 -18.196   4.134  0.00  0.00    +0.305 C 
ATOM     15  O   LIG    1       22.160 -17.261   4.934  0.00  0.00    -0.251 OA
BRANCH  14  16
ATOM     16  O   LIG    1       21.012 -18.707   3.667  0.00  0.00    -0.481 OA
ATOM     17  H   LIG    1       20.507 -19.172   4.387  0.00  0.00    +0.295 HD
ENDBRANCH  14  16
ENDBRANCH  13  14
ENDBRANCH   1  13
TORSDOF 6
ENDMDL
MODEL 2
REMARK VINA RESULT:      -4.4      4.682      5.864
REMARK  Name = *****
REMARK                            x       y       z     vdW  Elec       q    Type
REMARK                         _______ _______ _______ _____ _____    ______ ____
ROOT
ATOM      1  C   LIG    1       24.842 -15.628   3.378  0.00  0.00    +0.043 C 
ENDROOT
BRANCH   1   2
ATOM      2  C   LIG    1       24.175 -16.962   3.760  0.00  0.00    -0.043 A 
ATOM      3  C   LIG    1       22.871 -16.985   4.281  0.00  0.00    +0.005 A 
ATOM      4  C   LIG    1       22.269 -18.196   4.648  0.00  0.00    +0.020 A 
ATOM      5  C   LIG    1       22.963 -19.395   4.500  0.00  0.00    +0.041 A 
ATOM      6 CL   LIG    1       22.220 -20.882   4.942  0.00  0.00    -0.084 Cl
ATOM      7  C   LIG    1       24.258 -19.394   3.993  0.00  0.00    +0.020 A 
ATOM      8  C   LIG    1       24.858 -18.187   3.624  0.00  0.00    +0.005 A 
ENDBRANCH   1   2
BRANCH   1   9
ATOM      9  C   LIG    1       24.116 -14.502   4.157  0.00  0.00    +0.086 C 
BRANCH   9  10
ATOM     10  N   LIG    1       24.024 -13.239   3.422  0.00  0.00    -0.329 NA
ATOM     11  H   LIG    1       23.142 -12.775   3.673  0.00  0.00    +0.118 HD
ATOM     12  H   LIG    1       24.745 -12.597   3.769  0.00  0.00    +0.118 HD
ENDBRANCH   9  10
ENDBRANCH   1   9
BRANCH   1  13
ATOM     13  C   LIG    1       26.364 -15.711   3.620  0.00  0.00    +0.129 C 
BRANCH  13  14
ATOM     14  C   LIG    1       27.247 -14.587   3.121  0.00  0.00    +0.305 C 
ATOM     15  O   LIG    1       28.157 -14.101   3.792  0.00  0.00    -0.251 OA
BRANCH  14  16
ATOM     16  O   LIG    1       26.891 -14.045   1.946  0.00  0.00    -0.481 OA
ATOM     17  H   LIG    1       26.499 -13.139   2.072  0.00  0.00    +0.295 HD
ENDBRANCH  14  16
ENDBRANCH  13  14
ENDBRANCH   1  13
TORSDOF 6
ENDMDL
MODEL 3
REMARK VINA RESULT:      -4.4      4.672      5.816
REMARK  Name = *****
REMARK                            x       y       z     vdW  Elec       q    Type
REMARK                         _______ _______ _______ _____ _____    ______ ____
ROOT
ATOM      1  C   LIG    1       24.869 -15.644   3.380  0.00  0.00    +0.043 C 
ENDROOT
BRANCH   1   2
ATOM      2  C   LIG    1       24.198 -16.970   3.782  0.00  0.00    -0.043 A 
ATOM      3  C   LIG    1       24.867 -18.192   3.604  0.00  0.00    +0.005 A 
ATOM      4  C   LIG    1       24.251 -19.401   3.950  0.00  0.00    +0.020 A 
ATOM      5  C   LIG    1       22.960 -19.403   4.476  0.00  0.00    +0.041 A 
ATOM      6 CL   LIG    1       22.207 -20.889   4.910  0.00  0.00    -0.084 Cl
ATOM      7  C   LIG    1       22.277 -18.205   4.653  0.00  0.00    +0.020 A 
ATOM      8  C   LIG    1       22.892 -16.998   4.311  0.00  0.00    +0.005 A 
ENDBRANCH   1   2
BRANCH   1   9
ATOM      9  C   LIG    1       24.203 -14.513   4.204  0.00  0.00    +0.086 C 
BRANCH   9  10
ATOM     10  N   LIG    1       23.884 -13.319   3.420  0.00  0.00    -0.329 NA
ATOM     11  H   LIG    1       23.091 -13.531   2.802  0.00  0.00    +0.118 HD
ATOM     12  H   LIG    1       23.518 -12.594   4.048  0.00  0.00    +0.118 HD
ENDBRANCH   9  10
ENDBRANCH   1   9
BRANCH   1  13
ATOM     13  C   LIG    1       26.399 -15.756   3.547  0.00  0.00    +0.129 C 
BRANCH  13  14
ATOM     14  C   LIG    1       27.270 -14.593   3.122  0.00  0.00    +0.305 C 
ATOM     15  O   LIG    1       28.089 -14.060   3.869  0.00  0.00    -0.251 OA
BRANCH  14  16
ATOM     16  O   LIG    1       26.999 -14.074   1.914  0.00  0.00    -0.481 OA
ATOM     17  H   LIG    1       26.546 -13.192   1.996  0.00  0.00    +0.295 HD
ENDBRANCH  14  16
ENDBRANCH  13  14
ENDBRANCH   1  13
TORSDOF 6
ENDMDL
MODEL 4
REMARK VINA RESULT:      -4.4      5.912      7.070
REMARK  Name = *****
REMARK                            x       y       z     vdW  Elec       q    Type
REMARK                         _______ _______ _______ _____ _____    ______ ____
ROOT
ATOM      1  C   LIG    1       25.675 -13.474   3.873  0.00  0.00    +0.043 C 
ENDROOT
BRANCH   1   2
ATOM      2  C   LIG    1       25.278 -14.958   3.778  0.00  0.00    -0.043 A 
ATOM      3  C   LIG    1       23.985 -15.375   4.133  0.00  0.00    +0.005 A 
ATOM      4  C   LIG    1       23.626 -16.728   4.067  0.00  0.00    +0.020 A 
ATOM      5  C   LIG    1       24.555 -17.677   3.646  0.00  0.00    +0.041 A 
ATOM      6 CL   LIG    1       24.111 -19.338   3.556  0.00  0.00    -0.084 Cl
ATOM      7  C   LIG    1       25.842 -17.287   3.296  0.00  0.00    +0.020 A 
ATOM      8  C   LIG    1       26.201 -15.937   3.360  0.00  0.00    +0.005 A 
ENDBRANCH   1   2
BRANCH   1   9
ATOM      9  C   LIG    1       24.372 -12.648   4.021  0.00  0.00    +0.086 C 
BRANCH   9  10
ATOM     10  N   LIG    1       23.914 -12.035   2.773  0.00  0.00    -0.329 NA
ATOM     11  H   LIG    1       24.608 -11.339   2.474  0.00  0.00    +0.118 HD
ATOM     12  H   LIG    1       23.937 -12.739   2.027  0.00  0.00    +0.118 HD
ENDBRANCH   9  10
ENDBRANCH   1   9
BRANCH   1  13
ATOM     13  C   LIG    1       26.704 -13.275   5.005  0.00  0.00    +0.129 C 
BRANCH  13  14
ATOM     14  C   LIG    1       28.124 -12.892   4.646  0.00  0.00    +0.305 C 
ATOM     15  O   LIG    1       28.728 -13.377   3.690  0.00  0.00    -0.251 OA
BRANCH  14  16
ATOM     16  O   LIG    1       28.750 -12.089   5.521  0.00  0.00    -0.481 OA
ATOM     17  H   LIG    1       28.531 -12.340   6.459  0.00  0.00    +0.295 HD
ENDBRANCH  14  16
ENDBRANCH  13  14
ENDBRANCH   1  13
TORSDOF 6
ENDMDL
MODEL 5
REMARK VINA RESULT:      -4.3      3.538      4.460
REMARK  Name = *****
REMARK                            x       y       z     vdW  Elec       q    Type
REMARK                         _______ _______ _______ _____ _____    ______ ____
ROOT
ATOM      1  C   LIG    1       24.004 -18.970   3.744  0.00  0.00    +0.043 C 
ENDROOT
BRANCH   1   2
ATOM      2  C   LIG    1       24.493 -17.510   3.718  0.00  0.00    -0.043 A 
ATOM      3  C   LIG    1       25.805 -17.204   3.324  0.00  0.00    +0.005 A 
ATOM      4  C   LIG    1       26.260 -15.879   3.319  0.00  0.00    +0.020 A 
ATOM      5  C   LIG    1       25.408 -14.847   3.707  0.00  0.00    +0.041 A 
ATOM      6 CL   LIG    1       25.963 -13.218   3.691  0.00  0.00    -0.084 Cl
ATOM      7  C   LIG    1       24.107 -15.129   4.107  0.00  0.00    +0.020 A 
ATOM      8  C   LIG    1       23.652 -16.450   4.111  0.00  0.00    +0.005 A 
ENDBRANCH   1   2
BRANCH   1   9
ATOM      9  C   LIG    1       25.194 -19.855   4.193  0.00  0.00    +0.086 C 
BRANCH   9  10
ATOM     10  N   LIG    1       24.916 -21.291   4.142  0.00  0.00    -0.329 NA
ATOM     11  H   LIG    1       25.070 -21.690   5.076  0.00  0.00    +0.118 HD
ATOM     12  H   LIG    1       23.913 -21.432   3.977  0.00  0.00    +0.118 HD
ENDBRANCH   9  10
ENDBRANCH   1   9
BRANCH   1  13
ATOM     13  C   LIG    1       22.739 -19.087   4.620  0.00  0.00    +0.129 C 
BRANCH  13  14
ATOM     14  C   LIG    1       22.566 -20.308   5.498  0.00  0.00    +0.305 C 
ATOM     15  O   LIG    1       23.058 -20.401   6.622  0.00  0.00    -0.251 OA
BRANCH  14  16
ATOM     16  O   LIG    1       21.957 -21.357   4.924  0.00  0.00    -0.481 OA
ATOM     17  H   LIG    1       21.104 -21.576   5.388  0.00  0.00    +0.295 HD
ENDBRANCH  14  16
ENDBRANCH  13  14
ENDBRANCH   1  13
TORSDOF 6
ENDMDL
MODEL 6
REMARK VINA RESULT:      -4.2      3.551      4.561
REMARK  Name = *****
REMARK                            x       y       z     vdW  Elec       q    Type
REMARK                         _______ _______ _______ _____ _____    ______ ____
ROOT
ATOM      1  C   LIG    1       24.023 -18.974   3.740  0.00  0.00    +0.043 C 
ENDROOT
BRANCH   1   2
ATOM      2  C   LIG    1       24.496 -17.510   3.741  0.00  0.00    -0.043 A 
ATOM      3  C   LIG    1       23.625 -16.478   4.129  0.00  0.00    +0.005 A 
ATOM      4  C   LIG    1       24.046 -15.142   4.112  0.00  0.00    +0.020 A 
ATOM      5  C   LIG    1       25.341 -14.823   3.707  0.00  0.00    +0.041 A 
ATOM      6 CL   LIG    1       25.861 -13.183   3.695  0.00  0.00    -0.084 Cl
ATOM      7  C   LIG    1       26.216 -15.828   3.312  0.00  0.00    +0.020 A 
ATOM      8  C   LIG    1       25.798 -17.161   3.331  0.00  0.00    +0.005 A 
ENDBRANCH   1   2
BRANCH   1   9
ATOM      9  C   LIG    1       25.208 -19.851   4.219  0.00  0.00    +0.086 C 
BRANCH   9  10
ATOM     10  N   LIG    1       24.941 -21.288   4.168  0.00  0.00    -0.329 NA
ATOM     11  H   LIG    1       23.960 -21.432   3.895  0.00  0.00    +0.118 HD
ATOM     12  H   LIG    1       25.473 -21.701   3.394  0.00  0.00    +0.118 HD
ENDBRANCH   9  10
ENDBRANCH   1   9
BRANCH   1  13
ATOM     13  C   LIG    1       22.733 -19.113   4.576  0.00  0.00    +0.129 C 
BRANCH  13  14
ATOM     14  C   LIG    1       22.568 -20.318   5.476  0.00  0.00    +0.305 C 
ATOM     15  O   LIG    1       23.054 -20.385   6.604  0.00  0.00    -0.251 OA
BRANCH  14  16
ATOM     16  O   LIG    1       21.975 -21.385   4.918  0.00  0.00    -0.481 OA
ATOM     17  H   LIG    1       22.634 -21.948   4.428  0.00  0.00    +0.295 HD
ENDBRANCH  14  16
ENDBRANCH  13  14
ENDBRANCH   1  13
TORSDOF 6
ENDMDL
MODEL 7
REMARK VINA RESULT:      -4.1      4.561      5.714
REMARK  Name = *****
REMARK                            x       y       z     vdW  Elec       q    Type
REMARK                         _______ _______ _______ _____ _____    ______ ____
ROOT
ATOM      1  C   LIG    1       26.854 -20.015   5.105  0.00  0.00    +0.043 C 
ENDROOT
BRANCH   1   2
ATOM      2  C   LIG    1       25.365 -20.398   5.032  0.00  0.00    -0.043 A 
ATOM      3  C   LIG    1       24.658 -20.285   3.824  0.00  0.00    +0.005 A 
ATOM      4  C   LIG    1       23.298 -20.615   3.758  0.00  0.00    +0.020 A 
ATOM      5  C   LIG    1       22.630 -21.059   4.898  0.00  0.00    +0.041 A 
ATOM      6 CL   LIG    1       20.962 -21.472   4.815  0.00  0.00    -0.084 Cl
ATOM      7  C   LIG    1       23.310 -21.171   6.105  0.00  0.00    +0.020 A 
ATOM      8  C   LIG    1       24.668 -20.845   6.171  0.00  0.00    +0.005 A 
ENDBRANCH   1   2
BRANCH   1   9
ATOM      9  C   LIG    1       27.018 -18.635   4.417  0.00  0.00    +0.086 C 
BRANCH   9  10
ATOM     10  N   LIG    1       28.348 -18.048   4.577  0.00  0.00    -0.329 NA
ATOM     11  H   LIG    1       28.508 -17.860   5.575  0.00  0.00    +0.118 HD
ATOM     12  H   LIG    1       29.056 -18.753   4.345  0.00  0.00    +0.118 HD
ENDBRANCH   9  10
ENDBRANCH   1   9
BRANCH   1  13
ATOM     13  C   LIG    1       27.343 -20.074   6.568  0.00  0.00    +0.129 C 
BRANCH  13  14
ATOM     14  C   LIG    1       28.831 -20.077   6.843  0.00  0.00    +0.305 C 
ATOM     15  O   LIG    1       29.475 -19.052   7.062  0.00  0.00    -0.251 OA
BRANCH  14  16
ATOM     16  O   LIG    1       29.448 -21.260   6.696  0.00  0.00    -0.481 OA
ATOM     17  H   LIG    1       30.069 -21.438   7.454  0.00  0.00    +0.295 HD
ENDBRANCH  14  16
ENDBRANCH  13  14
ENDBRANCH   1  13
TORSDOF 6
ENDMDL
MODEL 8
REMARK VINA RESULT:      -4.0      5.546      6.494
REMARK  Name = *****
REMARK                            x       y       z     vdW  Elec       q    Type
REMARK                         _______ _______ _______ _____ _____    ______ ____
ROOT
ATOM      1  C   LIG    1       26.037 -14.053   3.575  0.00  0.00    +0.043 C 
ENDROOT
BRANCH   1   2
ATOM      2  C   LIG    1       25.421 -15.461   3.653  0.00  0.00    -0.043 A 
ATOM      3  C   LIG    1       26.170 -16.590   3.283  0.00  0.00    +0.005 A 
ATOM      4  C   LIG    1       25.606 -17.871   3.335  0.00  0.00    +0.020 A 
ATOM      5  C   LIG    1       24.288 -18.038   3.755  0.00  0.00    +0.041 A 
ATOM      6 CL   LIG    1       23.598 -19.613   3.828  0.00  0.00    -0.084 Cl
ATOM      7  C   LIG    1       23.527 -16.933   4.120  0.00  0.00    +0.020 A 
ATOM      8  C   LIG    1       24.089 -15.655   4.071  0.00  0.00    +0.005 A 
ENDBRANCH   1   2
BRANCH   1   9
ATOM      9  C   LIG    1       27.570 -14.219   3.421  0.00  0.00    +0.086 C 
BRANCH   9  10
ATOM     10  N   LIG    1       28.286 -12.958   3.229  0.00  0.00    -0.329 NA
ATOM     11  H   LIG    1       27.977 -12.290   3.945  0.00  0.00    +0.118 HD
ATOM     12  H   LIG    1       29.280 -13.102   3.441  0.00  0.00    +0.118 HD
ENDBRANCH   9  10
ENDBRANCH   1   9
BRANCH   1  13
ATOM     13  C   LIG    1       25.354 -13.240   2.454  0.00  0.00    +0.129 C 
BRANCH  13  14
ATOM     14  C   LIG    1       24.314 -12.206   2.828  0.00  0.00    +0.305 C 
ATOM     15  O   LIG    1       23.835 -12.115   3.957  0.00  0.00    -0.251 OA
BRANCH  14  16
ATOM     16  O   LIG    1       23.830 -11.473   1.813  0.00  0.00    -0.481 OA
ATOM     17  H   LIG    1       24.533 -10.882   1.429  0.00  0.00    +0.295 HD
ENDBRANCH  14  16
ENDBRANCH  13  14
ENDBRANCH   1  13
TORSDOF 6
ENDMDL
MODEL 9
REMARK VINA RESULT:      -3.9      5.389      6.645
REMARK  Name = *****
REMARK                            x       y       z     vdW  Elec       q    Type
REMARK                         _______ _______ _______ _____ _____    ______ ____
ROOT
ATOM      1  C   LIG    1       26.405 -16.948   3.457  0.00  0.00    +0.043 C 
ENDROOT
BRANCH   1   2
ATOM      2  C   LIG    1       25.775 -15.549   3.324  0.00  0.00    -0.043 A 
ATOM      3  C   LIG    1       24.526 -15.271   3.902  0.00  0.00    +0.005 A 
ATOM      4  C   LIG    1       23.941 -14.005   3.766  0.00  0.00    +0.020 A 
ATOM      5  C   LIG    1       24.597 -13.006   3.051  0.00  0.00    +0.041 A 
ATOM      6 CL   LIG    1       23.882 -11.448   2.891  0.00  0.00    -0.084 Cl
ATOM      7  C   LIG    1       25.831 -13.262   2.464  0.00  0.00    +0.020 A 
ATOM      8  C   LIG    1       26.417 -14.524   2.601  0.00  0.00    +0.005 A 
ENDBRANCH   1   2
BRANCH   1   9
ATOM      9  C   LIG    1       27.657 -16.814   4.360  0.00  0.00    +0.086 C 
BRANCH   9  10
ATOM     10  N   LIG    1       28.503 -18.007   4.380  0.00  0.00    -0.329 NA
ATOM     11  H   LIG    1       27.922 -18.820   4.619  0.00  0.00    +0.118 HD
ATOM     12  H   LIG    1       28.823 -18.207   3.426  0.00  0.00    +0.118 HD
ENDBRANCH   9  10
ENDBRANCH   1   9
BRANCH   1  13
ATOM     13  C   LIG    1       25.348 -17.957   3.954  0.00  0.00    +0.129 C 
BRANCH  13  14
ATOM     14  C   LIG    1       25.529 -19.425   3.633  0.00  0.00    +0.305 C 
ATOM     15  O   LIG    1       24.779 -20.044   2.880  0.00  0.00    -0.251 OA
BRANCH  14  16
ATOM     16  O   LIG    1       26.482 -20.061   4.331  0.00  0.00    -0.481 OA
ATOM     17  H   LIG    1       26.757 -19.532   5.129  0.00  0.00    +0.295 HD
ENDBRANCH  14  16
ENDBRANCH  13  14
ENDBRANCH   1  13
TORSDOF 6
ENDMDL
