MODEL 1
REMARK VINA RESULT:      -7.4      0.000      0.000
REMARK  Name = *****
REMARK                            x       y       z     vdW  Elec       q    Type
REMARK                         _______ _______ _______ _____ _____    ______ ____
ROOT
ATOM      1  C   LIG    1       29.045 -20.678   6.882  0.00  0.00    +0.173 A 
ATOM      2  C   LIG    1       27.847 -21.361   6.935  0.00  0.00    +0.167 A 
ATOM      3  O   LIG    1       27.658 -22.641   7.373  0.00  0.00    -0.480 OA
ATOM      4  C   LIG    1       26.232 -22.924   7.204  0.00  0.00    +0.229 C 
ATOM      5  C   LIG    1       25.569 -21.741   6.464  0.00  0.00    +0.049 C 
ATOM      6  C   LIG    1       25.189 -21.967   4.996  0.00  0.00    +0.043 C 
ATOM      7  C   LIG    1       24.526 -20.639   4.519  0.00  0.00    +0.069 C 
ATOM      8  N   LIG    1       23.272 -20.301   5.229  0.00  0.00    -0.301 NA
ATOM      9  C   LIG    1       22.084 -20.581   4.422  0.00  0.00    +0.105 C 
ATOM     10  C   LIG    1       23.137 -20.925   6.549  0.00  0.00    +0.085 C 
ATOM     11  C   LIG    1       25.541 -19.416   4.679  0.00  0.00    +0.055 C 
ATOM     12  C   LIG    1       26.755 -19.695   5.546  0.00  0.00    -0.038 A 
ATOM     13  C   LIG    1       27.953 -18.980   5.501  0.00  0.00    +0.008 A 
ATOM     14  C   LIG    1       24.474 -23.278   4.831  0.00  0.00    -0.021 C 
ATOM     15  C   LIG    1       24.901 -24.351   5.520  0.00  0.00    +0.017 C 
ATOM     16  C   LIG    1       24.456 -21.062   7.306  0.00  0.00    +0.031 C 
ATOM     17  C   LIG    1       26.046 -24.299   6.510  0.00  0.00    +0.240 C 
ATOM     18  C   LIG    1       26.729 -20.823   6.354  0.00  0.00    +0.012 A 
ATOM     19  C   LIG    1       29.095 -19.466   6.180  0.00  0.00    +0.050 A 
ENDROOT
BRANCH   1  20
ATOM     20  O   LIG    1       30.246 -21.252   7.308  0.00  0.00    -0.422 OA
BRANCH  20  22
ATOM     21  C   LIG    1       31.287 -22.199   9.188  0.00  0.00    +0.136 C 
ATOM     22  C   LIG    1       30.598 -20.989   8.630  0.00  0.00    +0.309 C 
ATOM     23  O   LIG    1       30.437 -19.931   9.225  0.00  0.00    -0.251 OA
ENDBRANCH  20  22
ENDBRANCH   1  20
BRANCH  17  24
ATOM     24  O   LIG    1       25.740 -25.294   7.515  0.00  0.00    -0.454 OA
BRANCH  24  25
ATOM     25  C   LIG    1       26.088 -26.575   7.212  0.00  0.00    +0.305 C 
ATOM     26  O   LIG    1       26.119 -27.513   7.988  0.00  0.00    -0.251 OA
ATOM     27  C   LIG    1       26.502 -26.661   5.772  0.00  0.00    +0.136 C 
ENDBRANCH  24  25
ENDBRANCH  17  24
TORSDOF 4
ENDMDL
MODEL 2
REMARK VINA RESULT:      -5.4      1.524      5.342
REMARK  Name = *****
REMARK                            x       y       z     vdW  Elec       q    Type
REMARK                         _______ _______ _______ _____ _____    ______ ____
ROOT
ATOM      1  C   LIG    1       25.539 -25.731   6.336  0.00  0.00    +0.173 A 
ATOM      2  C   LIG    1       25.839 -24.387   6.261  0.00  0.00    +0.167 A 
ATOM      3  O   LIG    1       27.056 -23.810   6.496  0.00  0.00    -0.480 OA
ATOM      4  C   LIG    1       26.863 -22.369   6.326  0.00  0.00    +0.229 C 
ATOM      5  C   LIG    1       25.360 -22.084   6.115  0.00  0.00    +0.049 C 
ATOM      6  C   LIG    1       24.602 -21.453   7.289  0.00  0.00    +0.043 C 
ATOM      7  C   LIG    1       23.137 -21.256   6.794  0.00  0.00    +0.069 C 
ATOM      8  N   LIG    1       23.006 -20.316   5.658  0.00  0.00    -0.301 NA
ATOM      9  C   LIG    1       22.495 -19.010   6.074  0.00  0.00    +0.105 C 
ATOM     10  C   LIG    1       24.230 -20.145   4.870  0.00  0.00    +0.085 C 
ATOM     11  C   LIG    1       22.496 -22.655   6.366  0.00  0.00    +0.055 C 
ATOM     12  C   LIG    1       23.486 -23.792   6.192  0.00  0.00    -0.038 A 
ATOM     13  C   LIG    1       23.165 -25.150   6.244  0.00  0.00    +0.008 A 
ATOM     14  C   LIG    1       25.377 -20.299   7.859  0.00  0.00    -0.021 C 
ATOM     15  C   LIG    1       26.711 -20.400   7.982  0.00  0.00    +0.017 C 
ATOM     16  C   LIG    1       25.068 -21.415   4.745  0.00  0.00    +0.031 C 
ATOM     17  C   LIG    1       27.498 -21.608   7.520  0.00  0.00    +0.240 C 
ATOM     18  C   LIG    1       24.833 -23.470   6.105  0.00  0.00    +0.012 A 
ATOM     19  C   LIG    1       24.192 -26.120   6.303  0.00  0.00    +0.050 A 
ENDROOT
BRANCH   1  20
ATOM     20  O   LIG    1       26.502 -26.691   6.660  0.00  0.00    -0.422 OA
BRANCH  20  22
ATOM     21  C   LIG    1       26.358 -27.797   4.594  0.00  0.00    +0.136 C 
ATOM     22  C   LIG    1       27.270 -27.152   5.595  0.00  0.00    +0.309 C 
ATOM     23  O   LIG    1       28.478 -27.002   5.456  0.00  0.00    -0.251 OA
ENDBRANCH  20  22
ENDBRANCH   1  20
BRANCH  17  24
ATOM     24  O   LIG    1       28.793 -21.103   7.119  0.00  0.00    -0.454 OA
BRANCH  24  25
ATOM     25  C   LIG    1       29.709 -20.950   8.115  0.00  0.00    +0.305 C 
ATOM     26  O   LIG    1       29.990 -21.777   8.963  0.00  0.00    -0.251 OA
ATOM     27  C   LIG    1       30.290 -19.567   8.064  0.00  0.00    +0.136 C 
ENDBRANCH  24  25
ENDBRANCH  17  24
TORSDOF 4
ENDMDL
