MODEL 1
REMARK VINA RESULT:       6.9      0.000      0.000
REMARK  Name = *****
REMARK                            x       y       z     vdW  Elec       q    Type
REMARK                         _______ _______ _______ _____ _____    ______ ____
ROOT
ATOM      1  C   LIG    1       26.630 -19.117   4.442  0.00  0.00    +0.062 A 
ATOM      2  C   LIG    1       25.268 -19.413   4.203  0.00  0.00    +0.058 A 
ATOM      3  I   LIG    1       24.658 -21.484   4.272  0.00  0.00    -0.040 I 
ATOM      4  C   LIG    1       24.381 -18.393   3.797  0.00  0.00    +0.065 A 
ATOM      5  C   LIG    1       24.876 -17.057   3.694  0.00  0.00    +0.051 A 
ATOM      6  I   LIG    1       23.331 -15.485   3.683  0.00  0.00    -0.041 I 
ATOM      7  C   LIG    1       26.262 -16.755   3.808  0.00  0.00    +0.089 A 
ATOM      8  C   LIG    1       27.130 -17.815   4.186  0.00  0.00    +0.051 A 
ATOM      9  I   LIG    1       29.239 -17.513   4.596  0.00  0.00    -0.041 I 
ENDROOT
BRANCH   1  12
ATOM     10  C   LIG    1       28.367 -21.571   6.684  0.00  0.00    +0.109 C 
ATOM     11  C   LIG    1       27.398 -20.497   6.267  0.00  0.00    +0.214 C 
ATOM     12  N   LIG    1       27.494 -20.143   4.923  0.00  0.00    -0.284 N 
ATOM     13  H   LIG    1       28.456 -20.092   4.606  0.00  0.00    +0.155 HD
ATOM     14  O   LIG    1       26.607 -19.994   7.062  0.00  0.00    -0.276 OA
ENDBRANCH   1  12
BRANCH   4  15
ATOM     15  N   LIG    1       23.032 -18.693   3.390  0.00  0.00    -0.273 N 
ATOM     16  C   LIG    1       22.015 -18.635   4.348  0.00  0.00    +0.216 C 
ATOM     17  O   LIG    1       22.220 -18.309   5.521  0.00  0.00    -0.276 OA
ATOM     18  C   LIG    1       20.605 -18.982   3.923  0.00  0.00    +0.110 C 
ATOM     19  C   LIG    1       22.806 -19.078   2.002  0.00  0.00    +0.138 C 
ENDBRANCH   4  15
BRANCH   7  20
ATOM     20  C   LIG    1       26.838 -15.417   3.449  0.00  0.00    +0.339 C 
ATOM     21  O   LIG    1       26.809 -14.963   2.305  0.00  0.00    -0.245 OA
BRANCH  20  22
ATOM     22  O   LIG    1       27.432 -14.713   4.424  0.00  0.00    -0.477 OA
ATOM     23  H   LIG    1       28.236 -15.119   4.798  0.00  0.00    +0.295 HD
ENDBRANCH  20  22
ENDBRANCH   7  20
TORSDOF 4
ENDMDL
MODEL 2
REMARK VINA RESULT:       8.3      2.038      4.887
REMARK  Name = *****
REMARK                            x       y       z     vdW  Elec       q    Type
REMARK                         _______ _______ _______ _____ _____    ______ ____
ROOT
ATOM      1  C   LIG    1       25.698 -18.238   4.209  0.00  0.00    +0.062 A 
ATOM      2  C   LIG    1       26.539 -17.103   4.168  0.00  0.00    +0.058 A 
ATOM      3  I   LIG    1       28.658 -17.404   4.464  0.00  0.00    -0.040 I 
ATOM      4  C   LIG    1       25.982 -15.810   4.076  0.00  0.00    +0.065 A 
ATOM      5  C   LIG    1       24.563 -15.683   3.966  0.00  0.00    +0.051 A 
ATOM      6  I   LIG    1       23.853 -13.741   3.205  0.00  0.00    -0.041 I 
ATOM      7  C   LIG    1       23.691 -16.797   4.128  0.00  0.00    +0.089 A 
ATOM      8  C   LIG    1       24.290 -18.080   4.251  0.00  0.00    +0.051 A 
ATOM      9  I   LIG    1       23.131 -19.913   4.316  0.00  0.00    -0.041 I 
ENDROOT
BRANCH   1  12
ATOM     10  C   LIG    1       27.052 -21.538   5.371  0.00  0.00    +0.109 C 
ATOM     11  C   LIG    1       26.403 -20.182   5.455  0.00  0.00    +0.214 C 
ATOM     12  N   LIG    1       26.281 -19.539   4.226  0.00  0.00    -0.284 N 
ATOM     13  H   LIG    1       27.104 -19.659   3.644  0.00  0.00    +0.155 HD
ATOM     14  O   LIG    1       26.027 -19.708   6.526  0.00  0.00    -0.276 OA
ENDBRANCH   1  12
BRANCH   4  15
ATOM     15  N   LIG    1       26.801 -14.632   4.198  0.00  0.00    -0.273 N 
ATOM     16  C   LIG    1       27.355 -14.080   3.039  0.00  0.00    +0.216 C 
ATOM     17  O   LIG    1       27.149 -14.543   1.913  0.00  0.00    -0.276 OA
ATOM     18  C   LIG    1       28.241 -12.861   3.174  0.00  0.00    +0.110 C 
ATOM     19  C   LIG    1       27.037 -14.097   5.534  0.00  0.00    +0.138 C 
ENDBRANCH   4  15
BRANCH   7  20
ATOM     20  C   LIG    1       22.205 -16.655   4.277  0.00  0.00    +0.339 C 
ATOM     21  O   LIG    1       21.404 -17.151   3.485  0.00  0.00    -0.245 OA
BRANCH  20  22
ATOM     22  O   LIG    1       21.750 -15.926   5.307  0.00  0.00    -0.477 OA
ATOM     23  H   LIG    1       22.412 -15.713   5.989  0.00  0.00    +0.295 HD
ENDBRANCH  20  22
ENDBRANCH   7  20
TORSDOF 4
ENDMDL
MODEL 3
REMARK VINA RESULT:       8.4      2.264      2.619
REMARK  Name = *****
REMARK                            x       y       z     vdW  Elec       q    Type
REMARK                         _______ _______ _______ _____ _____    ______ ____
ROOT
ATOM      1  C   LIG    1       26.089 -17.087   3.799  0.00  0.00    +0.062 A 
ATOM      2  C   LIG    1       25.088 -18.081   3.886  0.00  0.00    +0.058 A 
ATOM      3  I   LIG    1       25.662 -20.129   3.507  0.00  0.00    -0.040 I 
ATOM      4  C   LIG    1       23.739 -17.715   4.078  0.00  0.00    +0.065 A 
ATOM      5  C   LIG    1       23.423 -16.331   4.240  0.00  0.00    +0.051 A 
ATOM      6  I   LIG    1       21.456 -15.920   5.146  0.00  0.00    -0.041 I 
ATOM      7  C   LIG    1       24.390 -15.307   4.034  0.00  0.00    +0.089 A 
ATOM      8  C   LIG    1       25.733 -15.715   3.810  0.00  0.00    +0.051 A 
ATOM      9  I   LIG    1       27.376 -14.306   3.664  0.00  0.00    -0.041 I 
ENDROOT
BRANCH   1  12
ATOM     10  C   LIG    1       29.473 -18.533   4.529  0.00  0.00    +0.109 C 
ATOM     11  C   LIG    1       28.022 -18.186   4.738  0.00  0.00    +0.214 C 
ATOM     12  N   LIG    1       27.455 -17.479   3.681  0.00  0.00    -0.284 N 
ATOM     13  H   LIG    1       28.083 -16.775   3.306  0.00  0.00    +0.155 HD
ATOM     14  O   LIG    1       27.419 -18.509   5.759  0.00  0.00    -0.276 OA
ENDBRANCH   1  12
BRANCH   4  15
ATOM     15  N   LIG    1       22.681 -18.690   4.007  0.00  0.00    -0.273 N 
ATOM     16  C   LIG    1       22.644 -19.707   4.966  0.00  0.00    +0.216 C 
ATOM     17  O   LIG    1       23.463 -19.788   5.887  0.00  0.00    -0.276 OA
ATOM     18  C   LIG    1       21.550 -20.748   4.869  0.00  0.00    +0.110 C 
ATOM     19  C   LIG    1       21.723 -18.583   2.914  0.00  0.00    +0.138 C 
ENDBRANCH   4  15
BRANCH   7  20
ATOM     20  C   LIG    1       24.031 -13.853   3.940  0.00  0.00    +0.339 C 
ATOM     21  O   LIG    1       24.167 -13.070   4.880  0.00  0.00    -0.245 OA
BRANCH  20  22
ATOM     22  O   LIG    1       23.513 -13.413   2.784  0.00  0.00    -0.477 OA
ATOM     23  H   LIG    1       22.795 -12.760   2.872  0.00  0.00    +0.295 HD
ENDBRANCH  20  22
ENDBRANCH   7  20
TORSDOF 4
ENDMDL
MODEL 4
REMARK VINA RESULT:       8.6      2.821      6.215
REMARK  Name = *****
REMARK                            x       y       z     vdW  Elec       q    Type
REMARK                         _______ _______ _______ _____ _____    ______ ____
ROOT
ATOM      1  C   LIG    1       23.534 -16.028   4.285  0.00  0.00    +0.062 A 
ATOM      2  C   LIG    1       24.530 -15.039   4.119  0.00  0.00    +0.058 A 
ATOM      3  I   LIG    1       23.899 -12.975   4.025  0.00  0.00    -0.040 I 
ATOM      4  C   LIG    1       25.870 -15.414   3.885  0.00  0.00    +0.065 A 
ATOM      5  C   LIG    1       26.200 -16.805   3.879  0.00  0.00    +0.051 A 
ATOM      6  I   LIG    1       28.340 -17.260   4.141  0.00  0.00    -0.041 I 
ATOM      7  C   LIG    1       25.201 -17.817   3.921  0.00  0.00    +0.089 A 
ATOM      8  C   LIG    1       23.857 -17.399   4.125  0.00  0.00    +0.051 A 
ATOM      9  I   LIG    1       22.224 -18.799   4.406  0.00  0.00    -0.041 I 
ENDROOT
BRANCH   1  12
ATOM     10  C   LIG    1       20.433 -15.065   6.164  0.00  0.00    +0.109 C 
ATOM     11  C   LIG    1       21.868 -15.461   5.938  0.00  0.00    +0.214 C 
ATOM     12  N   LIG    1       22.200 -15.631   4.596  0.00  0.00    -0.284 N 
ATOM     13  H   LIG    1       21.469 -16.102   4.074  0.00  0.00    +0.155 HD
ATOM     14  O   LIG    1       22.653 -15.616   6.871  0.00  0.00    -0.276 OA
ENDBRANCH   1  12
BRANCH   4  15
ATOM     15  N   LIG    1       26.873 -14.437   3.550  0.00  0.00    -0.273 N 
ATOM     16  C   LIG    1       27.483 -13.722   4.586  0.00  0.00    +0.216 C 
ATOM     17  O   LIG    1       27.218 -13.914   5.777  0.00  0.00    -0.276 OA
ATOM     18  C   LIG    1       28.513 -12.674   4.228  0.00  0.00    +0.110 C 
ATOM     19  C   LIG    1       27.175 -14.220   2.140  0.00  0.00    +0.138 C 
ENDBRANCH   4  15
BRANCH   7  20
ATOM     20  C   LIG    1       25.494 -19.265   3.656  0.00  0.00    +0.339 C 
ATOM     21  O   LIG    1       25.111 -19.849   2.643  0.00  0.00    -0.245 OA
BRANCH  20  22
ATOM     22  O   LIG    1       26.180 -19.941   4.589  0.00  0.00    -0.477 OA
ATOM     23  H   LIG    1       26.151 -19.558   5.485  0.00  0.00    +0.295 HD
ENDBRANCH  20  22
ENDBRANCH   7  20
TORSDOF 4
ENDMDL
MODEL 5
REMARK VINA RESULT:       8.8      1.416      4.322
REMARK  Name = *****
REMARK                            x       y       z     vdW  Elec       q    Type
REMARK                         _______ _______ _______ _____ _____    ______ ____
ROOT
ATOM      1  C   LIG    1       26.918 -17.381   4.062  0.00  0.00    +0.062 A 
ATOM      2  C   LIG    1       25.589 -17.436   3.584  0.00  0.00    +0.058 A 
ATOM      3  I   LIG    1       24.783 -15.670   2.635  0.00  0.00    -0.040 I 
ATOM      4  C   LIG    1       24.785 -18.565   3.850  0.00  0.00    +0.065 A 
ATOM      5  C   LIG    1       25.363 -19.664   4.557  0.00  0.00    +0.051 A 
ATOM      6  I   LIG    1       24.275 -21.572   4.370  0.00  0.00    -0.041 I 
ATOM      7  C   LIG    1       26.653 -19.584   5.152  0.00  0.00    +0.089 A 
ATOM      8  C   LIG    1       27.420 -18.417   4.889  0.00  0.00    +0.051 A 
ATOM      9  I   LIG    1       29.475 -18.192   5.549  0.00  0.00    -0.041 I 
ENDROOT
BRANCH   1  12
ATOM     10  C   LIG    1       28.318 -13.909   3.815  0.00  0.00    +0.109 C 
ATOM     11  C   LIG    1       27.407 -15.025   4.256  0.00  0.00    +0.214 C 
ATOM     12  N   LIG    1       27.738 -16.267   3.718  0.00  0.00    -0.284 N 
ATOM     13  H   LIG    1       28.009 -16.205   2.742  0.00  0.00    +0.155 HD
ATOM     14  O   LIG    1       26.464 -14.829   5.019  0.00  0.00    -0.276 OA
ENDBRANCH   1  12
BRANCH   4  15
ATOM     15  N   LIG    1       23.383 -18.580   3.520  0.00  0.00    -0.273 N 
ATOM     16  C   LIG    1       22.491 -17.907   4.361  0.00  0.00    +0.216 C 
ATOM     17  O   LIG    1       22.857 -17.277   5.357  0.00  0.00    -0.276 OA
ATOM     18  C   LIG    1       21.016 -17.952   4.028  0.00  0.00    +0.110 C 
ATOM     19  C   LIG    1       22.966 -19.329   2.341  0.00  0.00    +0.138 C 
ENDBRANCH   4  15
BRANCH   7  20
ATOM     20  C   LIG    1       27.174 -20.613   6.112  0.00  0.00    +0.339 C 
ATOM     21  O   LIG    1       26.514 -21.036   7.061  0.00  0.00    -0.245 OA
BRANCH  20  22
ATOM     22  O   LIG    1       28.426 -21.057   5.928  0.00  0.00    -0.477 OA
ATOM     23  H   LIG    1       28.510 -22.020   5.798  0.00  0.00    +0.295 HD
ENDBRANCH  20  22
ENDBRANCH   7  20
TORSDOF 4
ENDMDL
MODEL 6
REMARK VINA RESULT:       9.9      2.458      4.495
REMARK  Name = *****
REMARK                            x       y       z     vdW  Elec       q    Type
REMARK                         _______ _______ _______ _____ _____    ______ ____
ROOT
ATOM      1  C   LIG    1       25.200 -17.074   3.692  0.00  0.00    +0.062 A 
ATOM      2  C   LIG    1       24.343 -18.172   3.932  0.00  0.00    +0.058 A 
ATOM      3  I   LIG    1       22.230 -17.903   3.570  0.00  0.00    -0.040 I 
ATOM      4  C   LIG    1       24.848 -19.351   4.521  0.00  0.00    +0.065 A 
ATOM      5  C   LIG    1       26.246 -19.427   4.810  0.00  0.00    +0.051 A 
ATOM      6  I   LIG    1       27.029 -21.464   5.117  0.00  0.00    -0.041 I 
ATOM      7  C   LIG    1       27.102 -18.296   4.692  0.00  0.00    +0.089 A 
ATOM      8  C   LIG    1       26.549 -17.116   4.125  0.00  0.00    +0.051 A 
ATOM      9  I   LIG    1       27.741 -15.356   3.690  0.00  0.00    -0.041 I 
ENDROOT
BRANCH   1  12
ATOM     10  C   LIG    1       23.763 -13.675   3.021  0.00  0.00    +0.109 C 
ATOM     11  C   LIG    1       24.313 -14.833   3.812  0.00  0.00    +0.214 C 
ATOM     12  N   LIG    1       24.689 -15.921   3.028  0.00  0.00    -0.284 N 
ATOM     13  H   LIG    1       24.029 -16.102   2.278  0.00  0.00    +0.155 HD
ATOM     14  O   LIG    1       24.408 -14.794   5.037  0.00  0.00    -0.276 OA
ENDBRANCH   1  12
BRANCH   4  15
ATOM     15  N   LIG    1       23.972 -20.420   4.927  0.00  0.00    -0.273 N 
ATOM     16  C   LIG    1       23.494 -20.430   6.241  0.00  0.00    +0.216 C 
ATOM     17  O   LIG    1       23.768 -19.547   7.059  0.00  0.00    -0.276 OA
ATOM     18  C   LIG    1       22.600 -21.572   6.672  0.00  0.00    +0.110 C 
ATOM     19  C   LIG    1       23.660 -21.457   3.951  0.00  0.00    +0.138 C 
ENDBRANCH   4  15
BRANCH   7  20
ATOM     20  C   LIG    1       28.503 -18.275   5.230  0.00  0.00    +0.339 C 
ATOM     21  O   LIG    1       28.785 -18.634   6.373  0.00  0.00    -0.245 OA
BRANCH  20  22
ATOM     22  O   LIG    1       29.472 -17.812   4.426  0.00  0.00    -0.477 OA
ATOM     23  H   LIG    1       29.261 -16.986   3.954  0.00  0.00    +0.295 HD
ENDBRANCH  20  22
ENDBRANCH   7  20
TORSDOF 4
ENDMDL
