MODEL 1
REMARK VINA RESULT:       3.0      0.000      0.000
REMARK  Name = *****
REMARK                            x       y       z     vdW  Elec       q    Type
REMARK                         _______ _______ _______ _____ _____    ______ ____
ROOT
ATOM      1  C   UNK A  0       23.470 -14.132   4.772  0.00  0.00    +0.027 A 
ATOM      2  C   UNK A  0       23.029 -14.889   5.862  0.00  0.00    +0.024 A 
ATOM      3  C   UNK A  0       22.622 -16.216   5.715  0.00  0.00    +0.015 A 
ATOM      4  C   UNK A  0       22.627 -16.826   4.453  0.00  0.00    +0.037 A 
ATOM      5  C   UNK A  0       22.942 -16.049   3.337  0.00  0.00    +0.015 A 
ATOM      6  C   UNK A  0       23.346 -14.710   3.499  0.00  0.00    +0.024 A 
ENDROOT
BRANCH   4   7
ATOM      7  C   UNK A  0       22.253 -18.264   4.310  0.00  0.00    +0.245 C 
ATOM      8  N   GLU A  1       23.321 -19.152   4.278  0.00  0.00    -0.298 N 
ATOM      9  H   GLU A  1       24.271 -18.787   4.202  0.00  0.00    +0.150 HD
ATOM     10  O   UNK A  0       21.087 -18.624   4.219  0.00  0.00    -0.270 OA
BRANCH   8  11
ATOM     11  CA  GLU A  1       23.192 -20.610   4.168  0.00  0.00    +0.182 C 
BRANCH  11  12
ATOM     12  C   GLU A  1       22.262 -21.088   5.301  0.00  0.00    +0.325 C 
ATOM     13  O   GLU A  1       22.558 -21.128   6.484  0.00  0.00    -0.249 OA
BRANCH  12  14
ATOM     14  OXT GLU A  1       21.067 -21.546   4.844  0.00  0.00    -0.479 OA
ATOM     15  HXT GLU A  1       21.192 -22.398   4.378  0.00  0.00    +0.295 HD
ENDBRANCH  12  14
ENDBRANCH  11  12
BRANCH  11  16
ATOM     16  CB  GLU A  1       24.550 -21.314   4.248  0.00  0.00    +0.045 C 
BRANCH  16  17
ATOM     17  CG  GLU A  1       25.701 -20.348   4.549  0.00  0.00    +0.123 C 
BRANCH  17  18
ATOM     18  CD  GLU A  1       26.239 -20.483   5.944  0.00  0.00    +0.305 C 
ATOM     19  OE1 GLU A  1       27.401 -20.275   6.278  0.00  0.00    -0.251 OA
BRANCH  18  20
ATOM     20  OE2 GLU A  1       25.349 -20.943   6.840  0.00  0.00    -0.481 OA
ATOM     21  HE2 GLU A  1       25.489 -20.381   7.632  0.00  0.00    +0.295 HD
ENDBRANCH  18  20
ENDBRANCH  17  18
ENDBRANCH  16  17
ENDBRANCH  11  16
ENDBRANCH   8  11
ENDBRANCH   4   7
BRANCH   1  22
ATOM     22  N   UNK A  0       23.882 -12.791   4.903  0.00  0.00    -0.342 N 
ATOM     23  H   UNK A  0       23.587 -12.233   4.097  0.00  0.00    +0.146 HD
BRANCH  22  24
ATOM     24  C   UNK A  0       25.331 -12.576   5.117  0.00  0.00    +0.125 C 
BRANCH  24  27
ATOM     25  C   UNK A  0       25.492 -14.055   1.815  0.00  0.00    +0.130 C 
ATOM     26  N   UNK A  0       26.006 -14.049   3.186  0.00  0.00    -0.320 N 
ATOM     27  C   UNK A  0       26.150 -12.689   3.802  0.00  0.00    +0.107 C 
ATOM     28  C   UNK A  0       27.646 -12.407   4.109  0.00  0.00    +0.127 C 
ATOM     29  N   UNK A  0       28.216 -13.517   4.872  0.00  0.00    -0.326 N 
ATOM     30  H   UNK A  0       29.197 -13.445   5.126  0.00  0.00    +0.148 HD
ATOM     31  C   UNK A  0       27.920 -14.836   4.511  0.00  0.00    +0.149 C 
ATOM     32  N   UNK A  0       28.718 -15.817   5.042  0.00  0.00    -0.199 NA
ATOM     33  C   UNK A  0       28.439 -17.050   4.784  0.00  0.00    +0.195 C 
ATOM     34  N   UNK A  0       27.434 -17.418   3.957  0.00  0.00    -0.294 N 
ATOM     35  H   UNK A  0       27.315 -18.381   3.694  0.00  0.00    +0.172 HD
ATOM     36  C   UNK A  0       26.676 -16.513   3.278  0.00  0.00    +0.276 C 
ATOM     37  O   UNK A  0       25.889 -16.895   2.415  0.00  0.00    -0.266 OA
ATOM     38  C   UNK A  0       26.872 -15.073   3.667  0.00  0.00    +0.135 C 
BRANCH  33  39
ATOM     39  N   UNK A  0       29.151 -18.053   5.353  0.00  0.00    -0.329 N 
ATOM     40  H   UNK A  0       28.607 -18.744   5.853  0.00  0.00    +0.145 HD
ATOM     41  H   UNK A  0       29.909 -17.686   5.921  0.00  0.00    +0.145 HD
ENDBRANCH  33  39
ENDBRANCH  24  27
ENDBRANCH  22  24
ENDBRANCH   1  22
TORSDOF 12
ENDMDL
MODEL 2
REMARK VINA RESULT:       5.6      2.062      4.277
REMARK  Name = *****
REMARK                            x       y       z     vdW  Elec       q    Type
REMARK                         _______ _______ _______ _____ _____    ______ ____
ROOT
ATOM      1  C   UNK A  0       27.255 -13.876   3.008  0.00  0.00    +0.027 A 
ATOM      2  C   UNK A  0       28.001 -14.315   4.106  0.00  0.00    +0.024 A 
ATOM      3  C   UNK A  0       27.993 -15.652   4.510  0.00  0.00    +0.015 A 
ATOM      4  C   UNK A  0       27.211 -16.596   3.830  0.00  0.00    +0.037 A 
ATOM      5  C   UNK A  0       26.364 -16.152   2.813  0.00  0.00    +0.015 A 
ATOM      6  C   UNK A  0       26.379 -14.801   2.419  0.00  0.00    +0.024 A 
ENDROOT
BRANCH   4   7
ATOM      7  C   UNK A  0       27.256 -18.035   4.224  0.00  0.00    +0.245 C 
ATOM      8  N   GLU A  1       26.024 -18.677   4.257  0.00  0.00    -0.298 N 
ATOM      9  H   GLU A  1       25.171 -18.125   4.162  0.00  0.00    +0.150 HD
ATOM     10  O   UNK A  0       28.305 -18.596   4.508  0.00  0.00    -0.270 OA
BRANCH   8  11
ATOM     11  CA  GLU A  1       25.829 -20.093   4.593  0.00  0.00    +0.182 C 
BRANCH  11  12
ATOM     12  C   GLU A  1       24.575 -20.586   3.844  0.00  0.00    +0.325 C 
ATOM     13  O   GLU A  1       24.196 -20.176   2.759  0.00  0.00    -0.249 OA
BRANCH  12  14
ATOM     14  OXT GLU A  1       23.860 -21.496   4.556  0.00  0.00    -0.479 OA
ATOM     15  HXT GLU A  1       22.906 -21.282   4.511  0.00  0.00    +0.295 HD
ENDBRANCH  12  14
ENDBRANCH  11  12
BRANCH  11  16
ATOM     16  CB  GLU A  1       25.678 -20.308   6.102  0.00  0.00    +0.045 C 
BRANCH  16  17
ATOM     17  CG  GLU A  1       26.699 -21.304   6.663  0.00  0.00    +0.123 C 
BRANCH  17  18
ATOM     18  CD  GLU A  1       28.047 -20.694   6.915  0.00  0.00    +0.305 C 
ATOM     19  OE1 GLU A  1       28.266 -19.496   7.059  0.00  0.00    -0.251 OA
BRANCH  18  20
ATOM     20  OE2 GLU A  1       29.065 -21.571   6.897  0.00  0.00    -0.481 OA
ATOM     21  HE2 GLU A  1       28.641 -22.440   7.061  0.00  0.00    +0.295 HD
ENDBRANCH  18  20
ENDBRANCH  17  18
ENDBRANCH  16  17
ENDBRANCH  11  16
ENDBRANCH   8  11
ENDBRANCH   4   7
BRANCH   1  22
ATOM     22  N   UNK A  0       27.251 -12.532   2.589  0.00  0.00    -0.342 N 
ATOM     23  H   UNK A  0       27.439 -11.899   3.371  0.00  0.00    +0.146 HD
BRANCH  22  24
ATOM     24  C   UNK A  0       26.026 -12.072   1.897  0.00  0.00    +0.125 C 
BRANCH  24  27
ATOM     25  C   UNK A  0       25.201 -11.448   5.368  0.00  0.00    +0.130 C 
ATOM     26  N   UNK A  0       24.967 -12.265   4.176  0.00  0.00    -0.320 N 
ATOM     27  C   UNK A  0       24.962 -11.509   2.881  0.00  0.00    +0.107 C 
ATOM     28  C   UNK A  0       23.559 -11.604   2.222  0.00  0.00    +0.127 C 
ATOM     29  N   UNK A  0       23.138 -13.003   2.147  0.00  0.00    -0.326 N 
ATOM     30  H   UNK A  0       22.227 -13.187   1.737  0.00  0.00    +0.148 HD
ATOM     31  C   UNK A  0       23.342 -13.852   3.239  0.00  0.00    +0.149 C 
ATOM     32  N   UNK A  0       22.651 -15.038   3.238  0.00  0.00    -0.199 NA
ATOM     33  C   UNK A  0       22.860 -15.876   4.197  0.00  0.00    +0.195 C 
ATOM     34  N   UNK A  0       23.678 -15.611   5.240  0.00  0.00    -0.294 N 
ATOM     35  H   UNK A  0       23.732 -16.242   6.021  0.00  0.00    +0.172 HD
ATOM     36  C   UNK A  0       24.299 -14.409   5.397  0.00  0.00    +0.276 C 
ATOM     37  O   UNK A  0       24.897 -14.157   6.441  0.00  0.00    -0.266 OA
ATOM     38  C   UNK A  0       24.200 -13.466   4.229  0.00  0.00    +0.135 C 
BRANCH  33  39
ATOM     39  N   UNK A  0       22.261 -17.093   4.192  0.00  0.00    -0.329 N 
ATOM     40  H   UNK A  0       22.889 -17.887   4.178  0.00  0.00    +0.145 HD
ATOM     41  H   UNK A  0       21.561 -17.152   3.460  0.00  0.00    +0.145 HD
ENDBRANCH  33  39
ENDBRANCH  24  27
ENDBRANCH  22  24
ENDBRANCH   1  22
TORSDOF 12
ENDMDL
