MODEL 1
REMARK VINA RESULT:     -10.5      0.000      0.000
REMARK  Name = *****
REMARK                            x       y       z     vdW  Elec       q    Type
REMARK                         _______ _______ _______ _____ _____    ______ ____
ROOT
ATOM      1  C   LIG    1       24.652 -26.667   6.231  0.00  0.00    +0.121 A 
ATOM      2  C   LIG    1       25.924 -26.205   6.541  0.00  0.00    +0.047 A 
ATOM      3  C   LIG    1       26.141 -24.835   6.809  0.00  0.00    +0.027 A 
ATOM      4  C   LIG    1       25.110 -23.879   6.774  0.00  0.00    +0.030 A 
ATOM      5  C   LIG    1       23.851 -24.377   6.399  0.00  0.00    +0.027 A 
ATOM      6  C   LIG    1       23.620 -25.740   6.153  0.00  0.00    +0.047 A 
ENDROOT
BRANCH   4   7
ATOM      7  N   LIG    1       25.320 -22.540   7.071  0.00  0.00    -0.330 N 
ATOM      8  C   LIG    1       24.796 -21.457   6.249  0.00  0.00    +0.108 C 
ATOM      9  C   LIG    1       25.971 -20.628   5.756  0.00  0.00    +0.063 C 
ATOM     10  C   LIG    1       26.973 -20.256   6.870  0.00  0.00    +0.176 C 
ATOM     11  C   LIG    1       26.446 -20.656   8.254  0.00  0.00    +0.063 C 
ATOM     12  C   LIG    1       25.910 -22.094   8.341  0.00  0.00    +0.108 C 
BRANCH  10  13
ATOM     13  O   LIG    1       28.275 -20.838   6.674  0.00  0.00    -0.489 OA
BRANCH  13  14
ATOM     14  C   LIG    1       29.316 -20.297   7.385  0.00  0.00    +0.121 A 
ATOM     15  C   LIG    1       30.182 -20.997   8.228  0.00  0.00    +0.049 A 
ATOM     16  C   LIG    1       31.149 -20.325   8.981  0.00  0.00    +0.049 A 
ATOM     17  C   LIG    1       31.279 -18.942   8.893  0.00  0.00    +0.130 A 
ATOM     18  C   LIG    1       30.447 -18.239   8.018  0.00  0.00    +0.049 A 
ATOM     19  C   LIG    1       29.465 -18.914   7.277  0.00  0.00    +0.049 A 
BRANCH  17  20
ATOM     20  O   LIG    1       32.237 -18.416   9.711  0.00  0.00    -0.406 OA
BRANCH  20  21
ATOM     21  C   LIG    1       31.814 -17.422  10.627  0.00  0.00    +0.575 C 
ATOM     22  F   LIG    1       31.540 -16.265   9.986  0.00  0.00    -0.133 F 
ATOM     23  F   LIG    1       32.810 -17.188  11.511  0.00  0.00    -0.133 F 
ATOM     24  F   LIG    1       30.727 -17.827  11.317  0.00  0.00    -0.133 F 
ENDBRANCH  20  21
ENDBRANCH  17  20
ENDBRANCH  13  14
ENDBRANCH  10  13
ENDBRANCH   4   7
BRANCH   1  25
ATOM     25  O   LIG    1       24.276 -27.961   6.006  0.00  0.00    -0.488 OA
BRANCH  25  26
ATOM     26  C   LIG    1       25.310 -28.939   5.886  0.00  0.00    +0.278 C 
BRANCH  26  28
ATOM     27  C   LIG    1       25.684 -31.356   6.568  0.00  0.00    +0.061 C 
ATOM     28  C   LIG    1       25.164 -29.979   7.011  0.00  0.00    +0.162 C 
ATOM     29  O   LIG    1       23.737 -30.144   7.337  0.00  0.00    -0.452 OA
ATOM     30  C   LIG    1       23.665 -30.145   8.654  0.00  0.00    +0.305 A 
ATOM     31  N   LIG    1       24.823 -29.823   9.284  0.00  0.00    -0.290 N 
ATOM     32  C   LIG    1       24.667 -29.914  10.607  0.00  0.00    +0.197 A 
ATOM     33  C   LIG    1       23.344 -30.328  10.718  0.00  0.00    +0.388 A 
ATOM     34  N   LIG    1       22.713 -30.476   9.483  0.00  0.00    -0.128 NA
ATOM     35  C   LIG    1       25.863 -29.525   8.324  0.00  0.00    +0.177 C 
BRANCH  33  36
ATOM     36  N   LIG    1       22.625 -30.630  11.926  0.00  0.00    +0.102 N 
ATOM     37  O   LIG    1       23.073 -31.500  12.665  0.00  0.00    -0.575 OA
ATOM     38  O   LIG    1       21.605 -29.914  12.140  0.00  0.00    +0.043 OA
ENDBRANCH  33  36
ENDBRANCH  26  28
ENDBRANCH  25  26
ENDBRANCH   1  25
TORSDOF 9
ENDMDL
MODEL 2
REMARK VINA RESULT:     -10.3      1.211      1.519
REMARK  Name = *****
REMARK                            x       y       z     vdW  Elec       q    Type
REMARK                         _______ _______ _______ _____ _____    ______ ____
ROOT
ATOM      1  C   LIG    1       24.945 -26.772   5.725  0.00  0.00    +0.121 A 
ATOM      2  C   LIG    1       23.838 -25.943   5.847  0.00  0.00    +0.047 A 
ATOM      3  C   LIG    1       23.992 -24.603   6.265  0.00  0.00    +0.027 A 
ATOM      4  C   LIG    1       25.243 -24.041   6.580  0.00  0.00    +0.030 A 
ATOM      5  C   LIG    1       26.328 -24.929   6.499  0.00  0.00    +0.027 A 
ATOM      6  C   LIG    1       26.189 -26.257   6.064  0.00  0.00    +0.047 A 
ENDROOT
BRANCH   4   7
ATOM      7  N   LIG    1       25.394 -22.714   6.957  0.00  0.00    -0.330 N 
ATOM      8  C   LIG    1       24.829 -21.608   6.195  0.00  0.00    +0.108 C 
ATOM      9  C   LIG    1       25.972 -20.702   5.763  0.00  0.00    +0.063 C 
ATOM     10  C   LIG    1       26.949 -20.355   6.908  0.00  0.00    +0.176 C 
ATOM     11  C   LIG    1       26.430 -20.858   8.260  0.00  0.00    +0.063 C 
ATOM     12  C   LIG    1       25.955 -22.320   8.256  0.00  0.00    +0.108 C 
BRANCH  10  13
ATOM     13  O   LIG    1       28.276 -20.869   6.690  0.00  0.00    -0.489 OA
BRANCH  13  14
ATOM     14  C   LIG    1       29.294 -20.299   7.412  0.00  0.00    +0.121 A 
ATOM     15  C   LIG    1       30.173 -20.974   8.262  0.00  0.00    +0.049 A 
ATOM     16  C   LIG    1       31.113 -20.276   9.024  0.00  0.00    +0.049 A 
ATOM     17  C   LIG    1       31.202 -18.889   8.940  0.00  0.00    +0.130 A 
ATOM     18  C   LIG    1       30.358 -18.210   8.060  0.00  0.00    +0.049 A 
ATOM     19  C   LIG    1       29.403 -18.911   7.308  0.00  0.00    +0.049 A 
BRANCH  17  20
ATOM     20  O   LIG    1       32.136 -18.337   9.768  0.00  0.00    -0.406 OA
BRANCH  20  21
ATOM     21  C   LIG    1       31.659 -17.440  10.754  0.00  0.00    +0.575 C 
ATOM     22  F   LIG    1       31.370 -16.238  10.209  0.00  0.00    -0.133 F 
ATOM     23  F   LIG    1       32.624 -17.259  11.686  0.00  0.00    -0.133 F 
ATOM     24  F   LIG    1       30.566 -17.931  11.374  0.00  0.00    -0.133 F 
ENDBRANCH  20  21
ENDBRANCH  17  20
ENDBRANCH  13  14
ENDBRANCH  10  13
ENDBRANCH   4   7
BRANCH   1  25
ATOM     25  O   LIG    1       24.963 -28.064   5.281  0.00  0.00    -0.488 OA
BRANCH  25  26
ATOM     26  C   LIG    1       23.987 -28.961   5.812  0.00  0.00    +0.278 C 
BRANCH  26  28
ATOM     27  C   LIG    1       25.584 -30.914   5.524  0.00  0.00    +0.061 C 
ATOM     28  C   LIG    1       24.695 -30.136   6.509  0.00  0.00    +0.162 C 
ATOM     29  O   LIG    1       23.683 -31.082   7.012  0.00  0.00    -0.452 OA
ATOM     30  C   LIG    1       24.063 -31.399   8.235  0.00  0.00    +0.305 A 
ATOM     31  N   LIG    1       25.099 -30.666   8.714  0.00  0.00    -0.290 N 
ATOM     32  C   LIG    1       25.449 -31.102   9.926  0.00  0.00    +0.197 A 
ATOM     33  C   LIG    1       24.563 -32.154  10.126  0.00  0.00    +0.388 A 
ATOM     34  N   LIG    1       23.688 -32.342   9.055  0.00  0.00    -0.128 NA
ATOM     35  C   LIG    1       25.518 -29.676   7.746  0.00  0.00    +0.177 C 
BRANCH  33  36
ATOM     36  N   LIG    1       24.498 -33.034  11.262  0.00  0.00    +0.102 N 
ATOM     37  O   LIG    1       23.431 -33.585  11.509  0.00  0.00    -0.575 OA
ATOM     38  O   LIG    1       25.590 -33.200  11.878  0.00  0.00    +0.043 OA
ENDBRANCH  33  36
ENDBRANCH  26  28
ENDBRANCH  25  26
ENDBRANCH   1  25
TORSDOF 9
ENDMDL
MODEL 3
REMARK VINA RESULT:     -10.1      1.290      1.943
REMARK  Name = *****
REMARK                            x       y       z     vdW  Elec       q    Type
REMARK                         _______ _______ _______ _____ _____    ______ ____
ROOT
ATOM      1  C   LIG    1       25.175 -27.086   5.741  0.00  0.00    +0.121 A 
ATOM      2  C   LIG    1       24.010 -26.331   5.764  0.00  0.00    +0.047 A 
ATOM      3  C   LIG    1       24.050 -24.968   6.134  0.00  0.00    +0.027 A 
ATOM      4  C   LIG    1       25.239 -24.310   6.496  0.00  0.00    +0.030 A 
ATOM      5  C   LIG    1       26.384 -25.124   6.516  0.00  0.00    +0.027 A 
ATOM      6  C   LIG    1       26.360 -26.474   6.129  0.00  0.00    +0.047 A 
ENDROOT
BRANCH   4   7
ATOM      7  N   LIG    1       25.279 -22.963   6.825  0.00  0.00    -0.330 N 
ATOM      8  C   LIG    1       24.602 -21.939   6.040  0.00  0.00    +0.108 C 
ATOM      9  C   LIG    1       25.650 -20.951   5.552  0.00  0.00    +0.063 C 
ATOM     10  C   LIG    1       26.616 -20.479   6.661  0.00  0.00    +0.176 C 
ATOM     11  C   LIG    1       26.172 -20.978   8.041  0.00  0.00    +0.063 C 
ATOM     12  C   LIG    1       25.829 -22.476   8.097  0.00  0.00    +0.108 C 
BRANCH  10  13
ATOM     13  O   LIG    1       27.978 -20.880   6.428  0.00  0.00    -0.489 OA
BRANCH  13  14
ATOM     14  C   LIG    1       28.948 -20.271   7.186  0.00  0.00    +0.121 A 
ATOM     15  C   LIG    1       29.303 -18.922   7.129  0.00  0.00    +0.049 A 
ATOM     16  C   LIG    1       30.375 -18.431   7.879  0.00  0.00    +0.049 A 
ATOM     17  C   LIG    1       31.103 -19.276   8.711  0.00  0.00    +0.130 A 
ATOM     18  C   LIG    1       30.727 -20.617   8.808  0.00  0.00    +0.049 A 
ATOM     19  C   LIG    1       29.661 -21.112   8.041  0.00  0.00    +0.049 A 
BRANCH  17  20
ATOM     20  O   LIG    1       32.144 -18.670   9.352  0.00  0.00    -0.406 OA
BRANCH  20  21
ATOM     21  C   LIG    1       31.822 -17.579  10.195  0.00  0.00    +0.575 C 
ATOM     22  F   LIG    1       30.685 -17.823  10.883  0.00  0.00    -0.133 F 
ATOM     23  F   LIG    1       31.625 -16.479   9.433  0.00  0.00    -0.133 F 
ATOM     24  F   LIG    1       32.826 -17.316  11.058  0.00  0.00    -0.133 F 
ENDBRANCH  20  21
ENDBRANCH  17  20
ENDBRANCH  13  14
ENDBRANCH  10  13
ENDBRANCH   4   7
BRANCH   1  25
ATOM     25  O   LIG    1       25.306 -28.390   5.353  0.00  0.00    -0.488 OA
BRANCH  25  26
ATOM     26  C   LIG    1       24.147 -29.221   5.424  0.00  0.00    +0.278 C 
BRANCH  26  28
ATOM     27  C   LIG    1       23.686 -31.619   6.121  0.00  0.00    +0.061 C 
ATOM     28  C   LIG    1       24.348 -30.289   6.514  0.00  0.00    +0.162 C 
ATOM     29  O   LIG    1       23.700 -29.838   7.759  0.00  0.00    -0.452 OA
ATOM     30  C   LIG    1       24.562 -30.089   8.725  0.00  0.00    +0.305 A 
ATOM     31  N   LIG    1       25.789 -30.483   8.301  0.00  0.00    -0.290 N 
ATOM     32  C   LIG    1       26.567 -30.772   9.348  0.00  0.00    +0.197 A 
ATOM     33  C   LIG    1       25.712 -30.539  10.419  0.00  0.00    +0.388 A 
ATOM     34  N   LIG    1       24.445 -30.109  10.025  0.00  0.00    -0.128 NA
ATOM     35  C   LIG    1       25.850 -30.503   6.856  0.00  0.00    +0.177 C 
BRANCH  33  36
ATOM     36  N   LIG    1       25.998 -30.725  11.816  0.00  0.00    +0.102 N 
ATOM     37  O   LIG    1       26.225 -29.733  12.500  0.00  0.00    -0.575 OA
ATOM     38  O   LIG    1       25.932 -31.920  12.226  0.00  0.00    +0.043 OA
ENDBRANCH  33  36
ENDBRANCH  26  28
ENDBRANCH  25  26
ENDBRANCH   1  25
TORSDOF 9
ENDMDL
MODEL 4
REMARK VINA RESULT:      -9.4      3.908      9.942
REMARK  Name = *****
REMARK                            x       y       z     vdW  Elec       q    Type
REMARK                         _______ _______ _______ _____ _____    ______ ____
ROOT
ATOM      1  C   LIG    1       25.248 -25.197   5.868  0.00  0.00    +0.121 A 
ATOM      2  C   LIG    1       24.371 -26.072   5.241  0.00  0.00    +0.047 A 
ATOM      3  C   LIG    1       24.297 -27.422   5.648  0.00  0.00    +0.027 A 
ATOM      4  C   LIG    1       25.089 -27.952   6.682  0.00  0.00    +0.030 A 
ATOM      5  C   LIG    1       26.003 -27.050   7.250  0.00  0.00    +0.027 A 
ATOM      6  C   LIG    1       26.070 -25.699   6.869  0.00  0.00    +0.047 A 
ENDROOT
BRANCH   4   7
ATOM      7  N   LIG    1       24.989 -29.271   7.101  0.00  0.00    -0.330 N 
ATOM      8  C   LIG    1       23.870 -29.764   7.894  0.00  0.00    +0.108 C 
ATOM      9  C   LIG    1       24.423 -30.310   9.201  0.00  0.00    +0.063 C 
ATOM     10  C   LIG    1       25.634 -31.249   9.013  0.00  0.00    +0.176 C 
ATOM     11  C   LIG    1       25.878 -31.560   7.532  0.00  0.00    +0.063 C 
ATOM     12  C   LIG    1       25.888 -30.326   6.615  0.00  0.00    +0.108 C 
BRANCH  10  13
ATOM     13  O   LIG    1       26.844 -30.730   9.594  0.00  0.00    -0.489 OA
BRANCH  13  14
ATOM     14  C   LIG    1       26.712 -29.911  10.688  0.00  0.00    +0.121 A 
ATOM     15  C   LIG    1       26.263 -30.301  11.951  0.00  0.00    +0.049 A 
ATOM     16  C   LIG    1       26.076 -29.359  12.967  0.00  0.00    +0.049 A 
ATOM     17  C   LIG    1       26.349 -28.013  12.744  0.00  0.00    +0.130 A 
ATOM     18  C   LIG    1       26.841 -27.621  11.497  0.00  0.00    +0.049 A 
ATOM     19  C   LIG    1       27.011 -28.565  10.473  0.00  0.00    +0.049 A 
BRANCH  17  20
ATOM     20  O   LIG    1       26.084 -27.203  13.810  0.00  0.00    -0.406 OA
BRANCH  20  21
ATOM     21  C   LIG    1       24.992 -26.312  13.675  0.00  0.00    +0.575 C 
ATOM     22  F   LIG    1       25.383 -25.161  13.084  0.00  0.00    -0.133 F 
ATOM     23  F   LIG    1       24.515 -26.013  14.905  0.00  0.00    -0.133 F 
ATOM     24  F   LIG    1       23.992 -26.870  12.962  0.00  0.00    -0.133 F 
ENDBRANCH  20  21
ENDBRANCH  17  20
ENDBRANCH  13  14
ENDBRANCH  10  13
ENDBRANCH   4   7
BRANCH   1  25
ATOM     25  O   LIG    1       25.392 -23.859   5.629  0.00  0.00    -0.488 OA
BRANCH  25  26
ATOM     26  C   LIG    1       24.490 -22.969   6.285  0.00  0.00    +0.278 C 
BRANCH  26  28
ATOM     27  C   LIG    1       24.358 -20.867   7.704  0.00  0.00    +0.061 C 
ATOM     28  C   LIG    1       25.281 -21.806   6.910  0.00  0.00    +0.162 C 
ATOM     29  O   LIG    1       25.889 -21.002   5.836  0.00  0.00    -0.452 OA
ATOM     30  C   LIG    1       27.130 -20.766   6.220  0.00  0.00    +0.305 A 
ATOM     31  N   LIG    1       27.518 -21.449   7.326  0.00  0.00    -0.290 N 
ATOM     32  C   LIG    1       28.760 -21.098   7.670  0.00  0.00    +0.197 A 
ATOM     33  C   LIG    1       29.074 -20.149   6.703  0.00  0.00    +0.388 A 
ATOM     34  N   LIG    1       28.042 -19.939   5.788  0.00  0.00    -0.128 NA
ATOM     35  C   LIG    1       26.454 -22.305   7.801  0.00  0.00    +0.177 C 
BRANCH  33  36
ATOM     36  N   LIG    1       30.288 -19.387   6.594  0.00  0.00    +0.102 N 
ATOM     37  O   LIG    1       30.247 -18.309   6.013  0.00  0.00    -0.575 OA
ATOM     38  O   LIG    1       31.295 -19.892   7.171  0.00  0.00    +0.043 OA
ENDBRANCH  33  36
ENDBRANCH  26  28
ENDBRANCH  25  26
ENDBRANCH   1  25
TORSDOF 9
ENDMDL
MODEL 5
REMARK VINA RESULT:      -9.4      5.719     11.921
REMARK  Name = *****
REMARK                            x       y       z     vdW  Elec       q    Type
REMARK                         _______ _______ _______ _____ _____    ______ ____
ROOT
ATOM      1  C   LIG    1       29.351 -19.132   6.805  0.00  0.00    +0.121 A 
ATOM      2  C   LIG    1       28.753 -19.107   5.552  0.00  0.00    +0.047 A 
ATOM      3  C   LIG    1       27.504 -19.733   5.344  0.00  0.00    +0.027 A 
ATOM      4  C   LIG    1       26.808 -20.404   6.366  0.00  0.00    +0.030 A 
ATOM      5  C   LIG    1       27.474 -20.456   7.601  0.00  0.00    +0.027 A 
ATOM      6  C   LIG    1       28.706 -19.819   7.825  0.00  0.00    +0.047 A 
ENDROOT
BRANCH   4   7
ATOM      7  N   LIG    1       25.565 -20.988   6.166  0.00  0.00    -0.330 N 
ATOM      8  C   LIG    1       24.667 -21.327   7.263  0.00  0.00    +0.108 C 
ATOM      9  C   LIG    1       24.403 -22.823   7.210  0.00  0.00    +0.063 C 
ATOM     10  C   LIG    1       24.034 -23.334   5.801  0.00  0.00    +0.176 C 
ATOM     11  C   LIG    1       23.836 -22.174   4.817  0.00  0.00    +0.063 C 
ATOM     12  C   LIG    1       24.961 -21.127   4.834  0.00  0.00    +0.108 C 
BRANCH  10  13
ATOM     13  O   LIG    1       25.004 -24.251   5.262  0.00  0.00    -0.489 OA
BRANCH  13  14
ATOM     14  C   LIG    1       25.070 -25.498   5.832  0.00  0.00    +0.121 A 
ATOM     15  C   LIG    1       25.942 -25.887   6.851  0.00  0.00    +0.049 A 
ATOM     16  C   LIG    1       25.988 -27.213   7.288  0.00  0.00    +0.049 A 
ATOM     17  C   LIG    1       25.153 -28.174   6.725  0.00  0.00    +0.130 A 
ATOM     18  C   LIG    1       24.246 -27.785   5.737  0.00  0.00    +0.049 A 
ATOM     19  C   LIG    1       24.214 -26.456   5.287  0.00  0.00    +0.049 A 
BRANCH  17  20
ATOM     20  O   LIG    1       25.333 -29.432   7.221  0.00  0.00    -0.406 OA
BRANCH  20  21
ATOM     21  C   LIG    1       25.215 -30.501   6.298  0.00  0.00    +0.575 C 
ATOM     22  F   LIG    1       23.923 -30.862   6.145  0.00  0.00    -0.133 F 
ATOM     23  F   LIG    1       25.898 -31.568   6.774  0.00  0.00    -0.133 F 
ATOM     24  F   LIG    1       25.739 -30.169   5.099  0.00  0.00    -0.133 F 
ENDBRANCH  20  21
ENDBRANCH  17  20
ENDBRANCH  13  14
ENDBRANCH  10  13
ENDBRANCH   4   7
BRANCH   1  25
ATOM     25  O   LIG    1       30.520 -18.528   7.174  0.00  0.00    -0.488 OA
BRANCH  25  26
ATOM     26  C   LIG    1       30.450 -17.499   8.162  0.00  0.00    +0.278 C 
BRANCH  26  28
ATOM     27  C   LIG    1       31.952 -19.276   9.181  0.00  0.00    +0.061 C 
ATOM     28  C   LIG    1       31.348 -17.873   9.356  0.00  0.00    +0.162 C 
ATOM     29  O   LIG    1       30.532 -17.907  10.582  0.00  0.00    -0.452 OA
ATOM     30  C   LIG    1       31.238 -17.277  11.502  0.00  0.00    +0.305 A 
ATOM     31  N   LIG    1       32.348 -16.653  11.034  0.00  0.00    -0.290 N 
ATOM     32  C   LIG    1       33.024 -16.100  12.044  0.00  0.00    +0.197 A 
ATOM     33  C   LIG    1       32.249 -16.453  13.143  0.00  0.00    +0.388 A 
ATOM     34  N   LIG    1       31.121 -17.198  12.799  0.00  0.00    -0.128 NA
ATOM     35  C   LIG    1       32.465 -16.820   9.602  0.00  0.00    +0.177 C 
BRANCH  33  36
ATOM     36  N   LIG    1       32.515 -16.160  14.525  0.00  0.00    +0.102 N 
ATOM     37  O   LIG    1       32.755 -14.999  14.838  0.00  0.00    -0.575 OA
ATOM     38  O   LIG    1       32.419 -17.145  15.314  0.00  0.00    +0.043 OA
ENDBRANCH  33  36
ENDBRANCH  26  28
ENDBRANCH  25  26
ENDBRANCH   1  25
TORSDOF 9
ENDMDL
MODEL 6
REMARK VINA RESULT:      -8.7      6.306     12.672
REMARK  Name = *****
REMARK                            x       y       z     vdW  Elec       q    Type
REMARK                         _______ _______ _______ _____ _____    ______ ____
ROOT
ATOM      1  C   LIG    1       25.105 -25.079   5.794  0.00  0.00    +0.121 A 
ATOM      2  C   LIG    1       24.210 -26.041   5.346  0.00  0.00    +0.047 A 
ATOM      3  C   LIG    1       24.276 -27.363   5.841  0.00  0.00    +0.027 A 
ATOM      4  C   LIG    1       25.230 -27.775   6.789  0.00  0.00    +0.030 A 
ATOM      5  C   LIG    1       26.152 -26.787   7.170  0.00  0.00    +0.027 A 
ATOM      6  C   LIG    1       26.082 -25.465   6.702  0.00  0.00    +0.047 A 
ENDROOT
BRANCH   4   7
ATOM      7  N   LIG    1       25.270 -29.066   7.298  0.00  0.00    -0.330 N 
ATOM      8  C   LIG    1       24.939 -30.239   6.499  0.00  0.00    +0.108 C 
ATOM      9  C   LIG    1       23.774 -30.951   7.169  0.00  0.00    +0.063 C 
ATOM     10  C   LIG    1       23.965 -31.151   8.688  0.00  0.00    +0.176 C 
ATOM     11  C   LIG    1       25.376 -30.749   9.133  0.00  0.00    +0.063 C 
ATOM     12  C   LIG    1       25.842 -29.380   8.613  0.00  0.00    +0.108 C 
BRANCH  10  13
ATOM     13  O   LIG    1       22.998 -30.434   9.476  0.00  0.00    -0.489 OA
BRANCH  13  14
ATOM     14  C   LIG    1       22.000 -31.170  10.065  0.00  0.00    +0.121 A 
ATOM     15  C   LIG    1       21.770 -32.535   9.877  0.00  0.00    +0.049 A 
ATOM     16  C   LIG    1       20.663 -33.162  10.454  0.00  0.00    +0.049 A 
ATOM     17  C   LIG    1       19.772 -32.439  11.243  0.00  0.00    +0.130 A 
ATOM     18  C   LIG    1       20.019 -31.085  11.474  0.00  0.00    +0.049 A 
ATOM     19  C   LIG    1       21.122 -30.453  10.879  0.00  0.00    +0.049 A 
BRANCH  17  20
ATOM     20  O   LIG    1       18.718 -33.170  11.709  0.00  0.00    -0.406 OA
BRANCH  20  21
ATOM     21  C   LIG    1       17.434 -32.805  11.235  0.00  0.00    +0.575 C 
ATOM     22  F   LIG    1       16.559 -33.823  11.387  0.00  0.00    -0.133 F 
ATOM     23  F   LIG    1       17.519 -32.517   9.916  0.00  0.00    -0.133 F 
ATOM     24  F   LIG    1       16.971 -31.710  11.873  0.00  0.00    -0.133 F 
ENDBRANCH  20  21
ENDBRANCH  17  20
ENDBRANCH  13  14
ENDBRANCH  10  13
ENDBRANCH   4   7
BRANCH   1  25
ATOM     25  O   LIG    1       25.131 -23.755   5.455  0.00  0.00    -0.488 OA
BRANCH  25  26
ATOM     26  C   LIG    1       24.210 -22.885   6.115  0.00  0.00    +0.278 C 
BRANCH  26  28
ATOM     27  C   LIG    1       24.010 -20.686   7.368  0.00  0.00    +0.061 C 
ATOM     28  C   LIG    1       24.970 -21.679   6.695  0.00  0.00    +0.162 C 
ATOM     29  O   LIG    1       25.636 -20.954   5.598  0.00  0.00    -0.452 OA
ATOM     30  C   LIG    1       26.855 -20.690   6.028  0.00  0.00    +0.305 A 
ATOM     31  N   LIG    1       27.184 -21.290   7.200  0.00  0.00    -0.290 N 
ATOM     32  C   LIG    1       28.407 -20.913   7.582  0.00  0.00    +0.197 A 
ATOM     33  C   LIG    1       28.773 -20.037   6.567  0.00  0.00    +0.388 A 
ATOM     34  N   LIG    1       27.791 -19.896   5.586  0.00  0.00    -0.128 NA
ATOM     35  C   LIG    1       26.093 -22.110   7.680  0.00  0.00    +0.177 C 
BRANCH  33  36
ATOM     36  N   LIG    1       29.994 -19.283   6.467  0.00  0.00    +0.102 N 
ATOM     37  O   LIG    1       31.020 -19.777   6.919  0.00  0.00    -0.575 OA
ATOM     38  O   LIG    1       29.897 -18.179   5.856  0.00  0.00    +0.043 OA
ENDBRANCH  33  36
ENDBRANCH  26  28
ENDBRANCH  25  26
ENDBRANCH   1  25
TORSDOF 9
ENDMDL
MODEL 7
REMARK VINA RESULT:      -8.7      5.410      7.357
REMARK  Name = *****
REMARK                            x       y       z     vdW  Elec       q    Type
REMARK                         _______ _______ _______ _____ _____    ______ ____
ROOT
ATOM      1  C   LIG    1       25.840 -30.164  10.571  0.00  0.00    +0.121 A 
ATOM      2  C   LIG    1       24.815 -30.437   9.675  0.00  0.00    +0.047 A 
ATOM      3  C   LIG    1       24.683 -29.681   8.489  0.00  0.00    +0.027 A 
ATOM      4  C   LIG    1       25.556 -28.631   8.153  0.00  0.00    +0.030 A 
ATOM      5  C   LIG    1       26.541 -28.350   9.113  0.00  0.00    +0.027 A 
ATOM      6  C   LIG    1       26.696 -29.108  10.285  0.00  0.00    +0.047 A 
ENDROOT
BRANCH   4   7
ATOM      7  N   LIG    1       25.443 -27.913   6.971  0.00  0.00    -0.330 N 
ATOM      8  C   LIG    1       26.595 -27.357   6.273  0.00  0.00    +0.108 C 
ATOM      9  C   LIG    1       26.408 -25.851   6.180  0.00  0.00    +0.063 C 
ATOM     10  C   LIG    1       25.005 -25.434   5.687  0.00  0.00    +0.176 C 
ATOM     11  C   LIG    1       24.188 -26.648   5.227  0.00  0.00    +0.063 C 
ATOM     12  C   LIG    1       24.187 -27.826   6.215  0.00  0.00    +0.108 C 
BRANCH  10  13
ATOM     13  O   LIG    1       24.254 -24.707   6.677  0.00  0.00    -0.489 OA
BRANCH  13  14
ATOM     14  C   LIG    1       24.092 -23.359   6.473  0.00  0.00    +0.121 A 
ATOM     15  C   LIG    1       23.393 -22.484   7.307  0.00  0.00    +0.049 A 
ATOM     16  C   LIG    1       23.210 -21.145   6.950  0.00  0.00    +0.049 A 
ATOM     17  C   LIG    1       23.735 -20.653   5.759  0.00  0.00    +0.130 A 
ATOM     18  C   LIG    1       24.474 -21.509   4.940  0.00  0.00    +0.049 A 
ATOM     19  C   LIG    1       24.641 -22.857   5.293  0.00  0.00    +0.049 A 
BRANCH  17  20
ATOM     20  O   LIG    1       23.446 -19.340   5.520  0.00  0.00    -0.406 OA
BRANCH  20  21
ATOM     21  C   LIG    1       22.520 -19.072   4.483  0.00  0.00    +0.575 C 
ATOM     22  F   LIG    1       23.145 -19.004   3.287  0.00  0.00    -0.133 F 
ATOM     23  F   LIG    1       21.930 -17.878   4.719  0.00  0.00    -0.133 F 
ATOM     24  F   LIG    1       21.554 -20.014   4.437  0.00  0.00    -0.133 F 
ENDBRANCH  20  21
ENDBRANCH  17  20
ENDBRANCH  13  14
ENDBRANCH  10  13
ENDBRANCH   4   7
BRANCH   1  25
ATOM     25  O   LIG    1       26.130 -30.839  11.723  0.00  0.00    -0.488 OA
BRANCH  25  26
ATOM     26  C   LIG    1       25.096 -30.955  12.701  0.00  0.00    +0.278 C 
BRANCH  26  28
ATOM     27  C   LIG    1       24.744 -30.315  15.133  0.00  0.00    +0.061 C 
ATOM     28  C   LIG    1       25.269 -29.855  13.763  0.00  0.00    +0.162 C 
ATOM     29  O   LIG    1       24.474 -28.677  13.373  0.00  0.00    -0.452 OA
ATOM     30  C   LIG    1       25.256 -27.633  13.572  0.00  0.00    +0.305 A 
ATOM     31  N   LIG    1       26.542 -27.939  13.873  0.00  0.00    -0.290 N 
ATOM     32  C   LIG    1       27.235 -26.823  14.117  0.00  0.00    +0.197 A 
ATOM     33  C   LIG    1       26.268 -25.838  13.956  0.00  0.00    +0.388 A 
ATOM     34  N   LIG    1       25.017 -26.351  13.614  0.00  0.00    -0.128 NA
ATOM     35  C   LIG    1       26.742 -29.371  13.873  0.00  0.00    +0.177 C 
BRANCH  33  36
ATOM     36  N   LIG    1       26.432 -24.421  14.136  0.00  0.00    +0.102 N 
ATOM     37  O   LIG    1       25.443 -23.704  14.034  0.00  0.00    -0.575 OA
ATOM     38  O   LIG    1       27.601 -24.048  14.445  0.00  0.00    +0.043 OA
ENDBRANCH  33  36
ENDBRANCH  26  28
ENDBRANCH  25  26
ENDBRANCH   1  25
TORSDOF 9
ENDMDL
MODEL 8
REMARK VINA RESULT:      -8.5      4.363     10.680
REMARK  Name = *****
REMARK                            x       y       z     vdW  Elec       q    Type
REMARK                         _______ _______ _______ _____ _____    ______ ____
ROOT
ATOM      1  C   LIG    1       24.867 -24.825   6.629  0.00  0.00    +0.121 A 
ATOM      2  C   LIG    1       23.978 -25.400   5.730  0.00  0.00    +0.047 A 
ATOM      3  C   LIG    1       24.006 -26.791   5.489  0.00  0.00    +0.027 A 
ATOM      4  C   LIG    1       24.915 -27.657   6.123  0.00  0.00    +0.030 A 
ATOM      5  C   LIG    1       25.834 -27.028   6.979  0.00  0.00    +0.027 A 
ATOM      6  C   LIG    1       25.801 -25.649   7.243  0.00  0.00    +0.047 A 
ENDROOT
BRANCH   4   7
ATOM      7  N   LIG    1       24.917 -29.028   5.909  0.00  0.00    -0.330 N 
ATOM      8  C   LIG    1       23.767 -29.874   6.201  0.00  0.00    +0.108 C 
ATOM      9  C   LIG    1       24.196 -30.917   7.221  0.00  0.00    +0.063 C 
ATOM     10  C   LIG    1       25.525 -31.617   6.864  0.00  0.00    +0.176 C 
ATOM     11  C   LIG    1       26.006 -31.225   5.461  0.00  0.00    +0.063 C 
ATOM     12  C   LIG    1       25.994 -29.714   5.183  0.00  0.00    +0.108 C 
BRANCH  10  13
ATOM     13  O   LIG    1       26.573 -31.353   7.815  0.00  0.00    -0.489 OA
BRANCH  13  14
ATOM     14  C   LIG    1       26.191 -30.978   9.079  0.00  0.00    +0.121 A 
ATOM     15  C   LIG    1       25.624 -31.812  10.044  0.00  0.00    +0.049 A 
ATOM     16  C   LIG    1       25.184 -31.298  11.267  0.00  0.00    +0.049 A 
ATOM     17  C   LIG    1       25.316 -29.942  11.553  0.00  0.00    +0.130 A 
ATOM     18  C   LIG    1       25.923 -29.109  10.612  0.00  0.00    +0.049 A 
ATOM     19  C   LIG    1       26.348 -29.624   9.378  0.00  0.00    +0.049 A 
BRANCH  17  20
ATOM     20  O   LIG    1       24.808 -29.574  12.766  0.00  0.00    -0.406 OA
BRANCH  20  21
ATOM     21  C   LIG    1       23.609 -28.821  12.750  0.00  0.00    +0.575 C 
ATOM     22  F   LIG    1       22.869 -29.122  11.660  0.00  0.00    -0.133 F 
ATOM     23  F   LIG    1       23.918 -27.505  12.700  0.00  0.00    -0.133 F 
ATOM     24  F   LIG    1       22.882 -29.039  13.866  0.00  0.00    -0.133 F 
ENDBRANCH  20  21
ENDBRANCH  17  20
ENDBRANCH  13  14
ENDBRANCH  10  13
ENDBRANCH   4   7
BRANCH   1  25
ATOM     25  O   LIG    1       24.924 -23.513   7.009  0.00  0.00    -0.488 OA
BRANCH  25  26
ATOM     26  C   LIG    1       25.569 -22.596   6.124  0.00  0.00    +0.278 C 
BRANCH  26  28
ATOM     27  C   LIG    1       25.340 -20.503   7.543  0.00  0.00    +0.061 C 
ATOM     28  C   LIG    1       26.316 -21.530   6.946  0.00  0.00    +0.162 C 
ATOM     29  O   LIG    1       27.230 -20.789   6.060  0.00  0.00    -0.452 OA
ATOM     30  C   LIG    1       28.370 -20.692   6.717  0.00  0.00    +0.305 A 
ATOM     31  N   LIG    1       28.427 -21.420   7.860  0.00  0.00    -0.290 N 
ATOM     32  C   LIG    1       29.589 -21.208   8.483  0.00  0.00    +0.197 A 
ATOM     33  C   LIG    1       30.209 -20.292   7.641  0.00  0.00    +0.388 A 
ATOM     34  N   LIG    1       29.436 -19.965   6.526  0.00  0.00    -0.128 NA
ATOM     35  C   LIG    1       27.200 -22.160   8.059  0.00  0.00    +0.177 C 
BRANCH  33  36
ATOM     36  N   LIG    1       31.489 -19.664   7.829  0.00  0.00    +0.102 N 
ATOM     37  O   LIG    1       31.990 -19.072   6.880  0.00  0.00    -0.575 OA
ATOM     38  O   LIG    1       31.960 -19.741   9.001  0.00  0.00    +0.043 OA
ENDBRANCH  33  36
ENDBRANCH  26  28
ENDBRANCH  25  26
ENDBRANCH   1  25
TORSDOF 9
ENDMDL
MODEL 9
REMARK VINA RESULT:      -8.3      5.461     10.719
REMARK  Name = *****
REMARK                            x       y       z     vdW  Elec       q    Type
REMARK                         _______ _______ _______ _____ _____    ______ ____
ROOT
ATOM      1  C   LIG    1       25.490 -28.557   7.794  0.00  0.00    +0.121 A 
ATOM      2  C   LIG    1       24.633 -29.587   8.159  0.00  0.00    +0.047 A 
ATOM      3  C   LIG    1       24.738 -30.185   9.434  0.00  0.00    +0.027 A 
ATOM      4  C   LIG    1       25.694 -29.788  10.387  0.00  0.00    +0.030 A 
ATOM      5  C   LIG    1       26.577 -28.784   9.956  0.00  0.00    +0.027 A 
ATOM      6  C   LIG    1       26.469 -28.167   8.699  0.00  0.00    +0.047 A 
ENDROOT
BRANCH   4   7
ATOM      7  N   LIG    1       25.772 -30.354  11.650  0.00  0.00    -0.330 N 
ATOM      8  C   LIG    1       24.922 -31.460  12.073  0.00  0.00    +0.108 C 
ATOM      9  C   LIG    1       24.124 -31.005  13.285  0.00  0.00    +0.063 C 
ATOM     10  C   LIG    1       24.984 -30.313  14.364  0.00  0.00    +0.176 C 
ATOM     11  C   LIG    1       26.480 -30.416  14.040  0.00  0.00    +0.063 C 
ATOM     12  C   LIG    1       26.847 -30.032  12.598  0.00  0.00    +0.108 C 
BRANCH  10  13
ATOM     13  O   LIG    1       24.637 -28.930  14.560  0.00  0.00    -0.489 OA
BRANCH  13  14
ATOM     14  C   LIG    1       23.304 -28.606  14.505  0.00  0.00    +0.121 A 
ATOM     15  C   LIG    1       22.307 -29.099  15.349  0.00  0.00    +0.049 A 
ATOM     16  C   LIG    1       20.964 -28.774  15.139  0.00  0.00    +0.049 A 
ATOM     17  C   LIG    1       20.595 -27.937  14.089  0.00  0.00    +0.130 A 
ATOM     18  C   LIG    1       21.590 -27.404  13.268  0.00  0.00    +0.049 A 
ATOM     19  C   LIG    1       22.936 -27.746  13.470  0.00  0.00    +0.049 A 
BRANCH  17  20
ATOM     20  O   LIG    1       19.249 -27.737  13.980  0.00  0.00    -0.406 OA
BRANCH  20  21
ATOM     21  C   LIG    1       18.768 -26.452  14.330  0.00  0.00    +0.575 C 
ATOM     22  F   LIG    1       17.537 -26.535  14.882  0.00  0.00    -0.133 F 
ATOM     23  F   LIG    1       18.678 -25.697  13.211  0.00  0.00    -0.133 F 
ATOM     24  F   LIG    1       19.608 -25.833  15.186  0.00  0.00    -0.133 F 
ENDBRANCH  20  21
ENDBRANCH  17  20
ENDBRANCH  13  14
ENDBRANCH  10  13
ENDBRANCH   4   7
BRANCH   1  25
ATOM     25  O   LIG    1       25.475 -27.845   6.627  0.00  0.00    -0.488 OA
BRANCH  25  26
ATOM     26  C   LIG    1       24.300 -27.090   6.328  0.00  0.00    +0.278 C 
BRANCH  26  28
ATOM     27  C   LIG    1       25.067 -25.568   4.446  0.00  0.00    +0.061 C 
ATOM     28  C   LIG    1       24.698 -25.656   5.935  0.00  0.00    +0.162 C 
ATOM     29  O   LIG    1       25.896 -25.261   6.698  0.00  0.00    -0.452 OA
ATOM     30  C   LIG    1       25.660 -24.035   7.128  0.00  0.00    +0.305 A 
ATOM     31  N   LIG    1       24.393 -23.597   6.922  0.00  0.00    -0.290 N 
ATOM     32  C   LIG    1       24.272 -22.332   7.332  0.00  0.00    +0.197 A 
ATOM     33  C   LIG    1       25.557 -22.045   7.778  0.00  0.00    +0.388 A 
ATOM     34  N   LIG    1       26.434 -23.122   7.648  0.00  0.00    -0.128 NA
ATOM     35  C   LIG    1       23.592 -24.622   6.290  0.00  0.00    +0.177 C 
BRANCH  33  36
ATOM     36  N   LIG    1       26.038 -20.795   8.302  0.00  0.00    +0.102 N 
ATOM     37  O   LIG    1       25.856 -20.555   9.490  0.00  0.00    -0.575 OA
ATOM     38  O   LIG    1       26.665 -20.070   7.476  0.00  0.00    +0.043 OA
ENDBRANCH  33  36
ENDBRANCH  26  28
ENDBRANCH  25  26
ENDBRANCH   1  25
TORSDOF 9
ENDMDL
