MODEL 1
REMARK VINA RESULT:      -0.9      0.000      0.000
REMARK  Name = *****
REMARK                            x       y       z     vdW  Elec       q    Type
REMARK                         _______ _______ _______ _____ _____    ______ ____
ROOT
ATOM      1  C   LIG    1       25.825 -19.602   4.412  0.00  0.00    +0.106 C 
ENDROOT
BRANCH   1   2
ATOM      2  C   LIG    1       24.551 -20.497   4.769  0.00  0.00    +0.026 C 
ATOM      3  C   LIG    1       23.612 -19.944   5.871  0.00  0.00    +0.007 C 
ATOM      4  C   LIG    1       22.709 -18.800   5.421  0.00  0.00    +0.000 C 
ATOM      5  C   LIG    1       21.878 -19.184   4.202  0.00  0.00    +0.000 C 
ATOM      6  C   LIG    1       22.719 -19.764   3.073  0.00  0.00    +0.000 C 
ATOM      7  C   LIG    1       23.660 -20.870   3.553  0.00  0.00    +0.007 C 
ENDBRANCH   1   2
BRANCH   1   8
ATOM      8  C   LIG    1       27.028 -19.875   5.340  0.00  0.00    -0.015 A 
ATOM      9  C   LIG    1       27.035 -20.932   6.267  0.00  0.00    +0.006 A 
ATOM     10  C   LIG    1       28.155 -21.203   7.061  0.00  0.00    +0.000 A 
ATOM     11  C   LIG    1       29.288 -20.399   6.970  0.00  0.00    +0.000 A 
ATOM     12  C   LIG    1       29.293 -19.319   6.100  0.00  0.00    +0.000 A 
ATOM     13  C   LIG    1       28.177 -19.057   5.298  0.00  0.00    +0.006 A 
ENDBRANCH   1   8
BRANCH   1  14
ATOM     14  O   LIG    1       26.165 -19.909   3.050  0.00  0.00    -0.382 OA
ATOM     15  H   LIG    1       25.326 -19.896   2.554  0.00  0.00    +0.211 HD
ENDBRANCH   1  14
BRANCH   1  16
ATOM     16  C   LIG    1       25.453 -18.060   4.470  0.00  0.00    +0.124 C 
BRANCH  16  21
ATOM     17  C   LIG    1       26.558 -13.709   5.446  0.00  0.00    +0.192 C 
ATOM     18  N   LIG    1       26.218 -14.445   4.153  0.00  0.00    +0.241 N 
ATOM     19  C   LIG    1       24.791 -15.038   4.300  0.00  0.00    +0.148 C 
ATOM     20  C   LIG    1       24.505 -16.108   3.230  0.00  0.00    +0.135 C 
ATOM     21  N   LIG    1       25.458 -17.232   3.220  0.00  0.00    -0.289 NA
ATOM     22  C   LIG    1       26.803 -16.672   2.955  0.00  0.00    +0.135 C 
ATOM     23  C   LIG    1       27.271 -15.561   3.930  0.00  0.00    +0.148 C 
ATOM     24  C   LIG    1       26.249 -13.442   3.006  0.00  0.00    +0.192 C 
ENDBRANCH  16  21
ENDBRANCH   1  16
TORSDOF 5
ENDMDL
MODEL 2
REMARK VINA RESULT:      -0.8      0.370      1.065
REMARK  Name = *****
REMARK                            x       y       z     vdW  Elec       q    Type
REMARK                         _______ _______ _______ _____ _____    ______ ____
ROOT
ATOM      1  C   LIG    1       25.873 -19.704   4.518  0.00  0.00    +0.106 C 
ENDROOT
BRANCH   1   2
ATOM      2  C   LIG    1       24.701 -20.673   5.006  0.00  0.00    +0.026 C 
ATOM      3  C   LIG    1       23.732 -20.095   6.069  0.00  0.00    +0.007 C 
ATOM      4  C   LIG    1       22.712 -19.099   5.524  0.00  0.00    +0.000 C 
ATOM      5  C   LIG    1       21.901 -19.693   4.379  0.00  0.00    +0.000 C 
ATOM      6  C   LIG    1       22.774 -20.311   3.295  0.00  0.00    +0.000 C 
ATOM      7  C   LIG    1       23.829 -21.262   3.864  0.00  0.00    +0.007 C 
ENDBRANCH   1   2
BRANCH   1   8
ATOM      8  C   LIG    1       27.161 -19.850   5.359  0.00  0.00    -0.015 A 
ATOM      9  C   LIG    1       28.227 -18.939   5.260  0.00  0.00    +0.006 A 
ATOM     10  C   LIG    1       29.363 -19.051   6.069  0.00  0.00    +0.000 A 
ATOM     11  C   LIG    1       29.474 -20.101   6.977  0.00  0.00    +0.000 A 
ATOM     12  C   LIG    1       28.460 -21.043   7.062  0.00  0.00    +0.000 A 
ATOM     13  C   LIG    1       27.320 -20.923   6.261  0.00  0.00    +0.006 A 
ENDBRANCH   1   8
BRANCH   1  14
ATOM     14  O   LIG    1       26.132 -20.044   3.146  0.00  0.00    -0.382 OA
ATOM     15  H   LIG    1       27.041 -19.744   2.961  0.00  0.00    +0.211 HD
ENDBRANCH   1  14
BRANCH   1  16
ATOM     16  C   LIG    1       25.392 -18.192   4.547  0.00  0.00    +0.124 C 
BRANCH  16  21
ATOM     17  C   LIG    1       26.270 -13.730   5.203  0.00  0.00    +0.192 C 
ATOM     18  N   LIG    1       25.850 -14.555   3.988  0.00  0.00    +0.241 N 
ATOM     19  C   LIG    1       24.495 -15.236   4.316  0.00  0.00    +0.148 C 
ATOM     20  C   LIG    1       24.177 -16.377   3.333  0.00  0.00    +0.135 C 
ATOM     21  N   LIG    1       25.204 -17.432   3.268  0.00  0.00    -0.289 NA
ATOM     22  C   LIG    1       26.468 -16.795   2.834  0.00  0.00    +0.135 C 
ATOM     23  C   LIG    1       26.953 -15.606   3.702  0.00  0.00    +0.148 C 
ATOM     24  C   LIG    1       25.685 -13.613   2.802  0.00  0.00    +0.192 C 
ENDBRANCH  16  21
ENDBRANCH   1  16
TORSDOF 5
ENDMDL
MODEL 3
REMARK VINA RESULT:      -0.5      2.234      7.035
REMARK  Name = *****
REMARK                            x       y       z     vdW  Elec       q    Type
REMARK                         _______ _______ _______ _____ _____    ______ ____
ROOT
ATOM      1  C   LIG    1       25.865 -15.228   3.620  0.00  0.00    +0.106 C 
ENDROOT
BRANCH   1   2
ATOM      2  C   LIG    1       27.096 -15.089   4.627  0.00  0.00    +0.026 C 
ATOM      3  C   LIG    1       28.476 -14.794   3.985  0.00  0.00    +0.007 C 
ATOM      4  C   LIG    1       28.665 -13.353   3.519  0.00  0.00    +0.000 C 
ATOM      5  C   LIG    1       28.416 -12.359   4.646  0.00  0.00    +0.000 C 
ATOM      6  C   LIG    1       27.088 -12.590   5.354  0.00  0.00    +0.000 C 
ATOM      7  C   LIG    1       26.889 -14.050   5.763  0.00  0.00    +0.007 C 
ENDBRANCH   1   2
BRANCH   1   8
ATOM      8  C   LIG    1       25.063 -13.917   3.468  0.00  0.00    -0.015 A 
ATOM      9  C   LIG    1       24.190 -13.453   4.467  0.00  0.00    +0.006 A 
ATOM     10  C   LIG    1       23.514 -12.234   4.340  0.00  0.00    +0.000 A 
ATOM     11  C   LIG    1       23.669 -11.464   3.191  0.00  0.00    +0.000 A 
ATOM     12  C   LIG    1       24.486 -11.920   2.167  0.00  0.00    +0.000 A 
ATOM     13  C   LIG    1       25.171 -13.132   2.301  0.00  0.00    +0.006 A 
ENDBRANCH   1   8
BRANCH   1  14
ATOM     14  O   LIG    1       26.421 -15.622   2.355  0.00  0.00    -0.382 OA
ATOM     15  H   LIG    1       25.873 -15.190   1.674  0.00  0.00    +0.211 HD
ENDBRANCH   1  14
BRANCH   1  16
ATOM     16  C   LIG    1       24.892 -16.391   4.091  0.00  0.00    +0.124 C 
BRANCH  16  21
ATOM     17  C   LIG    1       24.828 -20.374   6.380  0.00  0.00    +0.192 C 
ATOM     18  N   LIG    1       24.576 -19.991   4.924  0.00  0.00    +0.241 N 
ATOM     19  C   LIG    1       25.863 -19.319   4.375  0.00  0.00    +0.148 C 
ATOM     20  C   LIG    1       25.594 -18.558   3.064  0.00  0.00    +0.135 C 
ATOM     21  N   LIG    1       24.554 -17.518   3.162  0.00  0.00    -0.289 NA
ATOM     22  C   LIG    1       23.296 -18.187   3.566  0.00  0.00    +0.135 C 
ATOM     23  C   LIG    1       23.368 -19.020   4.872  0.00  0.00    +0.148 C 
ATOM     24  C   LIG    1       24.277 -21.261   4.137  0.00  0.00    +0.192 C 
ENDBRANCH  16  21
ENDBRANCH   1  16
TORSDOF 5
ENDMDL
MODEL 4
REMARK VINA RESULT:       0.8      1.041      1.744
REMARK  Name = *****
REMARK                            x       y       z     vdW  Elec       q    Type
REMARK                         _______ _______ _______ _____ _____    ______ ____
ROOT
ATOM      1  C   LIG    1       25.611 -18.956   3.600  0.00  0.00    +0.106 C 
ENDROOT
BRANCH   1   2
ATOM      2  C   LIG    1       24.134 -19.511   3.353  0.00  0.00    +0.026 C 
ATOM      3  C   LIG    1       23.650 -20.625   4.315  0.00  0.00    +0.007 C 
ATOM      4  C   LIG    1       23.258 -20.138   5.706  0.00  0.00    +0.000 C 
ATOM      5  C   LIG    1       22.202 -19.041   5.642  0.00  0.00    +0.000 C 
ATOM      6  C   LIG    1       22.582 -17.911   4.696  0.00  0.00    +0.000 C 
ATOM      7  C   LIG    1       23.029 -18.420   3.325  0.00  0.00    +0.007 C 
ENDBRANCH   1   2
BRANCH   1   8
ATOM      8  C   LIG    1       26.327 -19.661   4.773  0.00  0.00    -0.015 A 
ATOM      9  C   LIG    1       27.641 -19.337   5.152  0.00  0.00    +0.006 A 
ATOM     10  C   LIG    1       28.258 -19.943   6.252  0.00  0.00    +0.000 A 
ATOM     11  C   LIG    1       27.582 -20.917   6.982  0.00  0.00    +0.000 A 
ATOM     12  C   LIG    1       26.303 -21.293   6.603  0.00  0.00    +0.000 A 
ATOM     13  C   LIG    1       25.684 -20.677   5.510  0.00  0.00    +0.006 A 
ENDBRANCH   1   8
BRANCH   1  14
ATOM     14  O   LIG    1       26.332 -19.167   2.375  0.00  0.00    -0.382 OA
ATOM     15  H   LIG    1       26.542 -18.280   2.030  0.00  0.00    +0.211 HD
ENDBRANCH   1  14
BRANCH   1  16
ATOM     16  C   LIG    1       25.579 -17.391   3.865  0.00  0.00    +0.124 C 
BRANCH  16  21
ATOM     17  C   LIG    1       25.425 -13.120   5.552  0.00  0.00    +0.192 C 
ATOM     18  N   LIG    1       26.096 -13.749   4.333  0.00  0.00    +0.241 N 
ATOM     19  C   LIG    1       24.988 -14.378   3.447  0.00  0.00    +0.148 C 
ATOM     20  C   LIG    1       25.573 -15.357   2.413  0.00  0.00    +0.135 C 
ATOM     21  N   LIG    1       26.363 -16.459   2.991  0.00  0.00    -0.289 NA
ATOM     22  C   LIG    1       27.493 -15.852   3.734  0.00  0.00    +0.135 C 
ATOM     23  C   LIG    1       27.102 -14.821   4.824  0.00  0.00    +0.148 C 
ATOM     24  C   LIG    1       26.817 -12.650   3.562  0.00  0.00    +0.192 C 
ENDBRANCH  16  21
ENDBRANCH   1  16
TORSDOF 5
ENDMDL
MODEL 5
REMARK VINA RESULT:       1.2      1.236      2.457
REMARK  Name = *****
REMARK                            x       y       z     vdW  Elec       q    Type
REMARK                         _______ _______ _______ _____ _____    ______ ____
ROOT
ATOM      1  C   LIG    1       25.989 -18.560   3.785  0.00  0.00    +0.106 C 
ENDROOT
BRANCH   1   2
ATOM      2  C   LIG    1       24.611 -18.865   4.532  0.00  0.00    +0.026 C 
ATOM      3  C   LIG    1       23.368 -19.055   3.626  0.00  0.00    +0.007 C 
ATOM      4  C   LIG    1       23.302 -20.400   2.910  0.00  0.00    +0.000 C 
ATOM      5  C   LIG    1       23.389 -21.564   3.888  0.00  0.00    +0.000 C 
ATOM      6  C   LIG    1       24.572 -21.449   4.841  0.00  0.00    +0.000 C 
ATOM      7  C   LIG    1       24.656 -20.074   5.506  0.00  0.00    +0.007 C 
ENDBRANCH   1   2
BRANCH   1   8
ATOM      8  C   LIG    1       27.225 -18.857   4.663  0.00  0.00    -0.015 A 
ATOM      9  C   LIG    1       28.326 -17.985   4.726  0.00  0.00    +0.006 A 
ATOM     10  C   LIG    1       29.414 -18.239   5.569  0.00  0.00    +0.000 A 
ATOM     11  C   LIG    1       29.441 -19.393   6.347  0.00  0.00    +0.000 A 
ATOM     12  C   LIG    1       28.391 -20.296   6.269  0.00  0.00    +0.000 A 
ATOM     13  C   LIG    1       27.300 -20.035   5.436  0.00  0.00    +0.006 A 
ENDBRANCH   1   8
BRANCH   1  14
ATOM     14  O   LIG    1       26.002 -19.387   2.609  0.00  0.00    -0.382 OA
ATOM     15  H   LIG    1       25.327 -19.015   2.012  0.00  0.00    +0.211 HD
ENDBRANCH   1  14
BRANCH   1  16
ATOM     16  C   LIG    1       26.036 -17.049   3.301  0.00  0.00    +0.124 C 
BRANCH  16  21
ATOM     17  C   LIG    1       24.446 -13.004   1.812  0.00  0.00    +0.192 C 
ATOM     18  N   LIG    1       25.243 -13.436   3.041  0.00  0.00    +0.241 N 
ATOM     19  C   LIG    1       26.562 -14.090   2.552  0.00  0.00    +0.148 C 
ATOM     20  C   LIG    1       27.248 -14.895   3.669  0.00  0.00    +0.135 C 
ATOM     21  N   LIG    1       26.414 -15.959   4.258  0.00  0.00    -0.289 NA
ATOM     22  C   LIG    1       25.213 -15.312   4.834  0.00  0.00    +0.135 C 
ATOM     23  C   LIG    1       24.385 -14.439   3.855  0.00  0.00    +0.148 C 
ATOM     24  C   LIG    1       25.553 -12.197   3.872  0.00  0.00    +0.192 C 
ENDBRANCH  16  21
ENDBRANCH   1  16
TORSDOF 5
ENDMDL
MODEL 6
REMARK VINA RESULT:       1.3      2.398      6.317
REMARK  Name = *****
REMARK                            x       y       z     vdW  Elec       q    Type
REMARK                         _______ _______ _______ _____ _____    ______ ____
ROOT
ATOM      1  C   LIG    1       25.479 -14.870   4.178  0.00  0.00    +0.106 C 
ENDROOT
BRANCH   1   2
ATOM      2  C   LIG    1       24.599 -14.440   2.917  0.00  0.00    +0.026 C 
ATOM      3  C   LIG    1       23.319 -13.620   3.222  0.00  0.00    +0.007 C 
ATOM      4  C   LIG    1       23.571 -12.157   3.574  0.00  0.00    +0.000 C 
ATOM      5  C   LIG    1       24.372 -11.447   2.489  0.00  0.00    +0.000 C 
ATOM      6  C   LIG    1       25.640 -12.198   2.105  0.00  0.00    +0.000 C 
ATOM      7  C   LIG    1       25.378 -13.676   1.813  0.00  0.00    +0.007 C 
ENDBRANCH   1   2
BRANCH   1   8
ATOM      8  C   LIG    1       26.767 -14.030   4.324  0.00  0.00    -0.015 A 
ATOM      9  C   LIG    1       27.799 -14.069   3.370  0.00  0.00    +0.006 A 
ATOM     10  C   LIG    1       28.935 -13.260   3.486  0.00  0.00    +0.000 A 
ATOM     11  C   LIG    1       29.081 -12.414   4.581  0.00  0.00    +0.000 A 
ATOM     12  C   LIG    1       28.103 -12.389   5.563  0.00  0.00    +0.000 A 
ATOM     13  C   LIG    1       26.963 -13.189   5.440  0.00  0.00    +0.006 A 
ENDBRANCH   1   8
BRANCH   1  14
ATOM     14  O   LIG    1       24.640 -14.701   5.333  0.00  0.00    -0.382 OA
ATOM     15  H   LIG    1       24.599 -13.741   5.497  0.00  0.00    +0.211 HD
ENDBRANCH   1  14
BRANCH   1  16
ATOM     16  C   LIG    1       25.859 -16.409   4.092  0.00  0.00    +0.124 C 
BRANCH  16  21
ATOM     17  C   LIG    1       24.953 -20.485   6.008  0.00  0.00    +0.192 C 
ATOM     18  N   LIG    1       24.693 -19.889   4.627  0.00  0.00    +0.241 N 
ATOM     19  C   LIG    1       26.062 -19.499   4.008  0.00  0.00    +0.148 C 
ATOM     20  C   LIG    1       25.896 -18.552   2.806  0.00  0.00    +0.135 C 
ATOM     21  N   LIG    1       25.170 -17.304   3.106  0.00  0.00    -0.289 NA
ATOM     22  C   LIG    1       23.818 -17.681   3.579  0.00  0.00    +0.135 C 
ATOM     23  C   LIG    1       23.776 -18.649   4.790  0.00  0.00    +0.148 C 
ATOM     24  C   LIG    1       24.016 -20.947   3.766  0.00  0.00    +0.192 C 
ENDBRANCH  16  21
ENDBRANCH   1  16
TORSDOF 5
ENDMDL
