MODEL 1
REMARK VINA RESULT:      -3.0      0.000      0.000
REMARK  Name = *****
REMARK                            x       y       z     vdW  Elec       q    Type
REMARK                         _______ _______ _______ _____ _____    ______ ____
ROOT
ATOM      1  C   ALA A  1       25.106 -15.714   3.381  0.00  0.00    +0.233 C 
ATOM      2  N   UNK A  2       25.472 -14.474   3.863  0.00  0.00    -0.283 N 
ATOM      3  C   UNK A  2       26.853 -14.293   4.324  0.00  0.00    +0.080 C 
ATOM      4  C   UNK A  2       26.722 -13.328   5.511  0.00  0.00    +0.012 C 
ATOM      5  C   UNK A  2       28.000 -12.578   5.885  0.00  0.00    +0.005 C 
ATOM      6  C   UNK A  2       28.828 -12.131   4.684  0.00  0.00    +0.000 C 
ATOM      7  C   UNK A  2       29.086 -13.290   3.732  0.00  0.00    +0.002 C 
ATOM      8  C   UNK A  2       25.542 -12.441   5.106  0.00  0.00    +0.039 C 
ATOM      9  C   UNK A  2       27.772 -13.836   3.196  0.00  0.00    +0.023 C 
ATOM     10  C   UNK A  2       24.602 -13.394   4.349  0.00  0.00    +0.185 C 
ATOM     11  O   ALA A  1       25.852 -16.276   2.575  0.00  0.00    -0.274 OA
ENDROOT
BRANCH   1  12
ATOM     12  CA  ALA A  1       23.834 -16.430   3.892  0.00  0.00    +0.138 C 
ATOM     13  CB  ALA A  1       22.946 -15.585   4.804  0.00  0.00    +0.034 C 
BRANCH  12  14
ATOM     14  N   ALA A  1       24.163 -17.744   4.522  0.00  0.00    -0.294 NA
ATOM     15  H   ALA A  1       23.629 -17.815   5.393  0.00  0.00    +0.123 HD
BRANCH  14  16
ATOM     16  C   UNK A  0       23.797 -18.915   3.667  0.00  0.00    +0.164 C 
BRANCH  16  17
ATOM     17  C   UNK A  0       22.615 -19.696   4.244  0.00  0.00    +0.324 C 
ATOM     18  O   UNK A  0       21.489 -19.222   4.424  0.00  0.00    -0.249 OA
BRANCH  17  19
ATOM     19  O   UNK A  0       22.990 -20.955   4.572  0.00  0.00    -0.464 OA
BRANCH  19  20
ATOM     20  C   UNK A  0       22.556 -21.403   5.857  0.00  0.00    +0.229 C 
ATOM     21  C   UNK A  0       23.354 -20.688   6.925  0.00  0.00    +0.048 C 
ENDBRANCH  19  20
ENDBRANCH  17  19
ENDBRANCH  16  17
BRANCH  16  22
ATOM     22  C   UNK A  0       25.007 -19.839   3.427  0.00  0.00    +0.030 C 
BRANCH  22  24
ATOM     23  C   UNK A  0       26.518 -20.287   5.411  0.00  0.00    +0.004 C 
ATOM     24  C   UNK A  0       26.243 -19.381   4.224  0.00  0.00    -0.001 C 
ENDBRANCH  22  24
ENDBRANCH  16  22
ENDBRANCH  14  16
ENDBRANCH  12  14
ENDBRANCH   1  12
BRANCH  10  25
ATOM     25  C   UNK A  2       23.927 -12.639   3.189  0.00  0.00    +0.326 C 
ATOM     26  O   UNK A  2       23.570 -11.472   3.257  0.00  0.00    -0.249 OA
BRANCH  25  27
ATOM     27  O   UNK A  2       23.737 -13.373   2.064  0.00  0.00    -0.479 OA
ATOM     28  H   UNK A  2       23.721 -14.337   2.242  0.00  0.00    +0.295 HD
ENDBRANCH  25  27
ENDBRANCH  10  25
TORSDOF 10
ENDMDL
MODEL 2
REMARK VINA RESULT:      -1.7      1.309      2.373
REMARK  Name = *****
REMARK                            x       y       z     vdW  Elec       q    Type
REMARK                         _______ _______ _______ _____ _____    ______ ____
ROOT
ATOM      1  C   ALA A  1       24.839 -15.952   3.528  0.00  0.00    +0.233 C 
ATOM      2  N   UNK A  2       25.228 -14.667   3.845  0.00  0.00    -0.283 N 
ATOM      3  C   UNK A  2       26.573 -14.469   4.398  0.00  0.00    +0.080 C 
ATOM      4  C   UNK A  2       26.392 -13.323   5.405  0.00  0.00    +0.012 C 
ATOM      5  C   UNK A  2       27.671 -12.575   5.775  0.00  0.00    +0.005 C 
ATOM      6  C   UNK A  2       28.622 -12.357   4.603  0.00  0.00    +0.000 C 
ATOM      7  C   UNK A  2       28.899 -13.662   3.870  0.00  0.00    +0.002 C 
ATOM      8  C   UNK A  2       25.301 -12.467   4.759  0.00  0.00    +0.039 C 
ATOM      9  C   UNK A  2       27.608 -14.234   3.304  0.00  0.00    +0.023 C 
ATOM     10  C   UNK A  2       24.379 -13.489   4.074  0.00  0.00    +0.185 C 
ATOM     11  O   ALA A  1       25.620 -16.663   2.892  0.00  0.00    -0.274 OA
ENDROOT
BRANCH   1  12
ATOM     12  CA  ALA A  1       23.491 -16.527   4.023  0.00  0.00    +0.138 C 
ATOM     13  CB  ALA A  1       22.765 -15.662   5.052  0.00  0.00    +0.034 C 
BRANCH  12  14
ATOM     14  N   ALA A  1       23.641 -17.932   4.506  0.00  0.00    -0.294 NA
ATOM     15  H   ALA A  1       24.068 -17.899   5.435  0.00  0.00    +0.123 HD
BRANCH  14  16
ATOM     16  C   UNK A  0       22.337 -18.655   4.629  0.00  0.00    +0.164 C 
BRANCH  16  17
ATOM     17  C   UNK A  0       22.515 -20.055   5.219  0.00  0.00    +0.324 C 
ATOM     18  O   UNK A  0       21.786 -21.018   4.960  0.00  0.00    -0.249 OA
BRANCH  17  19
ATOM     19  O   UNK A  0       23.547 -20.075   6.096  0.00  0.00    -0.464 OA
BRANCH  19  20
ATOM     20  C   UNK A  0       24.511 -21.105   5.877  0.00  0.00    +0.229 C 
ATOM     21  C   UNK A  0       25.326 -20.766   4.648  0.00  0.00    +0.048 C 
ENDBRANCH  19  20
ENDBRANCH  17  19
ENDBRANCH  16  17
BRANCH  16  22
ATOM     22  C   UNK A  0       21.595 -18.714   3.280  0.00  0.00    +0.030 C 
BRANCH  22  24
ATOM     23  C   UNK A  0       19.351 -17.888   2.443  0.00  0.00    +0.004 C 
ATOM     24  C   UNK A  0       20.066 -18.749   3.469  0.00  0.00    -0.001 C 
ENDBRANCH  22  24
ENDBRANCH  16  22
ENDBRANCH  14  16
ENDBRANCH  12  14
ENDBRANCH   1  12
BRANCH  10  25
ATOM     25  C   UNK A  2       23.848 -12.902   2.754  0.00  0.00    +0.326 C 
ATOM     26  O   UNK A  2       24.081 -11.763   2.377  0.00  0.00    -0.249 OA
BRANCH  25  27
ATOM     27  O   UNK A  2       23.075 -13.745   2.024  0.00  0.00    -0.479 OA
ATOM     28  H   UNK A  2       22.270 -13.308   1.674  0.00  0.00    +0.295 HD
ENDBRANCH  25  27
ENDBRANCH  10  25
TORSDOF 10
ENDMDL
MODEL 3
REMARK VINA RESULT:      -1.5      1.671      2.712
REMARK  Name = *****
REMARK                            x       y       z     vdW  Elec       q    Type
REMARK                         _______ _______ _______ _____ _____    ______ ____
ROOT
ATOM      1  C   ALA A  1       26.070 -16.404   3.055  0.00  0.00    +0.233 C 
ATOM      2  N   UNK A  2       26.033 -15.144   3.616  0.00  0.00    -0.283 N 
ATOM      3  C   UNK A  2       27.251 -14.637   4.257  0.00  0.00    +0.080 C 
ATOM      4  C   UNK A  2       26.729 -13.816   5.445  0.00  0.00    +0.012 C 
ATOM      5  C   UNK A  2       27.706 -12.783   6.004  0.00  0.00    +0.005 C 
ATOM      6  C   UNK A  2       28.519 -12.061   4.934  0.00  0.00    +0.000 C 
ATOM      7  C   UNK A  2       29.188 -13.050   3.990  0.00  0.00    +0.002 C 
ATOM      8  C   UNK A  2       25.411 -13.246   4.917  0.00  0.00    +0.039 C 
ATOM      9  C   UNK A  2       28.140 -13.886   3.272  0.00  0.00    +0.023 C 
ATOM     10  C   UNK A  2       24.855 -14.362   4.017  0.00  0.00    +0.185 C 
ATOM     11  O   ALA A  1       27.028 -16.699   2.336  0.00  0.00    -0.274 OA
ENDROOT
BRANCH   1  12
ATOM     12  CA  ALA A  1       24.985 -17.458   3.376  0.00  0.00    +0.138 C 
ATOM     13  CB  ALA A  1       24.014 -17.061   4.486  0.00  0.00    +0.034 C 
BRANCH  12  14
ATOM     14  N   ALA A  1       25.588 -18.800   3.638  0.00  0.00    -0.294 NA
ATOM     15  H   ALA A  1       26.540 -18.652   3.981  0.00  0.00    +0.123 HD
BRANCH  14  16
ATOM     16  C   UNK A  0       24.847 -19.586   4.672  0.00  0.00    +0.164 C 
BRANCH  16  17
ATOM     17  C   UNK A  0       25.789 -20.178   5.721  0.00  0.00    +0.324 C 
ATOM     18  O   UNK A  0       25.443 -20.508   6.861  0.00  0.00    -0.249 OA
BRANCH  17  19
ATOM     19  O   UNK A  0       27.054 -20.242   5.244  0.00  0.00    -0.464 OA
BRANCH  19  20
ATOM     20  C   UNK A  0       28.081 -20.042   6.216  0.00  0.00    +0.229 C 
ATOM     21  C   UNK A  0       28.988 -18.922   5.754  0.00  0.00    +0.048 C 
ENDBRANCH  19  20
ENDBRANCH  17  19
ENDBRANCH  16  17
BRANCH  16  22
ATOM     22  C   UNK A  0       23.975 -20.683   4.029  0.00  0.00    +0.030 C 
BRANCH  22  24
ATOM     23  C   UNK A  0       21.795 -19.573   4.689  0.00  0.00    +0.004 C 
ATOM     24  C   UNK A  0       22.626 -20.841   4.757  0.00  0.00    -0.001 C 
ENDBRANCH  22  24
ENDBRANCH  16  22
ENDBRANCH  14  16
ENDBRANCH  12  14
ENDBRANCH   1  12
BRANCH  10  25
ATOM     25  C   UNK A  2       24.143 -13.738   2.802  0.00  0.00    +0.326 C 
ATOM     26  O   UNK A  2       24.725 -13.127   1.917  0.00  0.00    -0.249 OA
BRANCH  25  27
ATOM     27  O   UNK A  2       22.797 -13.902   2.782  0.00  0.00    -0.479 OA
ATOM     28  H   UNK A  2       22.532 -14.845   2.820  0.00  0.00    +0.295 HD
ENDBRANCH  25  27
ENDBRANCH  10  25
TORSDOF 10
ENDMDL
MODEL 4
REMARK VINA RESULT:      -1.2      2.469      4.144
REMARK  Name = *****
REMARK                            x       y       z     vdW  Elec       q    Type
REMARK                         _______ _______ _______ _____ _____    ______ ____
ROOT
ATOM      1  C   ALA A  1       24.017 -16.637   4.238  0.00  0.00    +0.233 C 
ATOM      2  N   UNK A  2       24.733 -15.592   3.690  0.00  0.00    -0.283 N 
ATOM      3  C   UNK A  2       24.022 -14.340   3.411  0.00  0.00    +0.080 C 
ATOM      4  C   UNK A  2       24.683 -13.819   2.127  0.00  0.00    +0.012 C 
ATOM      5  C   UNK A  2       24.504 -12.325   1.861  0.00  0.00    +0.005 C 
ATOM      6  C   UNK A  2       24.590 -11.460   3.115  0.00  0.00    +0.000 C 
ATOM      7  C   UNK A  2       23.661 -11.977   4.204  0.00  0.00    +0.002 C 
ATOM      8  C   UNK A  2       26.133 -14.284   2.273  0.00  0.00    +0.039 C 
ATOM      9  C   UNK A  2       24.052 -13.392   4.604  0.00  0.00    +0.023 C 
ATOM     10  C   UNK A  2       26.020 -15.644   2.983  0.00  0.00    +0.185 C 
ATOM     11  O   ALA A  1       23.271 -16.403   5.192  0.00  0.00    -0.274 OA
ENDROOT
BRANCH   1  12
ATOM     12  CA  ALA A  1       24.077 -18.057   3.628  0.00  0.00    +0.138 C 
ATOM     13  CB  ALA A  1       22.781 -18.858   3.741  0.00  0.00    +0.034 C 
BRANCH  12  14
ATOM     14  N   ALA A  1       25.239 -18.831   4.159  0.00  0.00    -0.294 NA
ATOM     15  H   ALA A  1       25.841 -18.179   4.668  0.00  0.00    +0.123 HD
BRANCH  14  16
ATOM     16  C   UNK A  0       24.840 -19.918   5.106  0.00  0.00    +0.164 C 
BRANCH  16  17
ATOM     17  C   UNK A  0       25.989 -20.314   6.035  0.00  0.00    +0.324 C 
ATOM     18  O   UNK A  0       25.908 -21.182   6.911  0.00  0.00    -0.249 OA
BRANCH  17  19
ATOM     19  O   UNK A  0       27.081 -19.551   5.795  0.00  0.00    -0.464 OA
BRANCH  19  20
ATOM     20  C   UNK A  0       28.325 -20.252   5.801  0.00  0.00    +0.229 C 
ATOM     21  C   UNK A  0       29.378 -19.385   6.457  0.00  0.00    +0.048 C 
ENDBRANCH  19  20
ENDBRANCH  17  19
ENDBRANCH  16  17
BRANCH  16  22
ATOM     22  C   UNK A  0       24.286 -21.145   4.356  0.00  0.00    +0.030 C 
BRANCH  22  24
ATOM     23  C   UNK A  0       22.706 -21.144   6.336  0.00  0.00    +0.004 C 
ATOM     24  C   UNK A  0       22.905 -21.568   4.892  0.00  0.00    -0.001 C 
ENDBRANCH  22  24
ENDBRANCH  16  22
ENDBRANCH  14  16
ENDBRANCH  12  14
ENDBRANCH   1  12
BRANCH  10  25
ATOM     25  C   UNK A  2       27.200 -15.818   3.956  0.00  0.00    +0.326 C 
ATOM     26  O   UNK A  2       27.681 -16.902   4.250  0.00  0.00    -0.249 OA
BRANCH  25  27
ATOM     27  O   UNK A  2       27.673 -14.665   4.491  0.00  0.00    -0.479 OA
ATOM     28  H   UNK A  2       26.957 -14.043   4.740  0.00  0.00    +0.295 HD
ENDBRANCH  25  27
ENDBRANCH  10  25
TORSDOF 10
ENDMDL
MODEL 5
REMARK VINA RESULT:      -1.0      2.172      3.598
REMARK  Name = *****
REMARK                            x       y       z     vdW  Elec       q    Type
REMARK                         _______ _______ _______ _____ _____    ______ ____
ROOT
ATOM      1  C   ALA A  1       25.011 -16.664   3.915  0.00  0.00    +0.233 C 
ATOM      2  N   UNK A  2       25.509 -15.412   3.617  0.00  0.00    -0.283 N 
ATOM      3  C   UNK A  2       24.570 -14.393   3.134  0.00  0.00    +0.080 C 
ATOM      4  C   UNK A  2       25.391 -13.587   2.117  0.00  0.00    +0.012 C 
ATOM      5  C   UNK A  2       24.860 -12.188   1.812  0.00  0.00    +0.005 C 
ATOM      6  C   UNK A  2       24.312 -11.455   3.033  0.00  0.00    +0.000 C 
ATOM      7  C   UNK A  2       23.304 -12.315   3.783  0.00  0.00    +0.002 C 
ATOM      8  C   UNK A  2       26.805 -13.633   2.701  0.00  0.00    +0.039 C 
ATOM      9  C   UNK A  2       23.965 -13.591   4.281  0.00  0.00    +0.023 C 
ATOM     10  C   UNK A  2       26.900 -15.029   3.339  0.00  0.00    +0.185 C 
ATOM     11  O   ALA A  1       23.984 -16.741   4.594  0.00  0.00    -0.274 OA
ENDROOT
BRANCH   1  12
ATOM     12  CA  ALA A  1       25.669 -17.945   3.351  0.00  0.00    +0.138 C 
ATOM     13  CB  ALA A  1       24.693 -18.952   2.746  0.00  0.00    +0.034 C 
BRANCH  12  14
ATOM     14  N   ALA A  1       26.559 -18.592   4.361  0.00  0.00    -0.294 NA
ATOM     15  H   ALA A  1       26.419 -18.111   5.254  0.00  0.00    +0.123 HD
BRANCH  14  16
ATOM     16  C   UNK A  0       26.255 -20.041   4.571  0.00  0.00    +0.164 C 
BRANCH  16  17
ATOM     17  C   UNK A  0       24.994 -20.244   5.414  0.00  0.00    +0.324 C 
ATOM     18  O   UNK A  0       24.934 -20.053   6.633  0.00  0.00    -0.249 OA
BRANCH  17  19
ATOM     19  O   UNK A  0       23.978 -20.705   4.648  0.00  0.00    -0.464 OA
BRANCH  19  20
ATOM     20  C   UNK A  0       22.687 -20.653   5.256  0.00  0.00    +0.229 C 
ATOM     21  C   UNK A  0       21.936 -19.454   4.718  0.00  0.00    +0.048 C 
ENDBRANCH  19  20
ENDBRANCH  17  19
ENDBRANCH  16  17
BRANCH  16  22
ATOM     22  C   UNK A  0       27.456 -20.787   5.185  0.00  0.00    +0.030 C 
BRANCH  22  24
ATOM     23  C   UNK A  0       28.946 -19.962   7.061  0.00  0.00    +0.004 C 
ATOM     24  C   UNK A  0       28.583 -19.819   5.593  0.00  0.00    -0.001 C 
ENDBRANCH  22  24
ENDBRANCH  16  22
ENDBRANCH  14  16
ENDBRANCH  12  14
ENDBRANCH   1  12
BRANCH  10  25
ATOM     25  C   UNK A  2       27.739 -14.951   4.628  0.00  0.00    +0.326 C 
ATOM     26  O   UNK A  2       27.773 -13.970   5.356  0.00  0.00    -0.249 OA
BRANCH  25  27
ATOM     27  O   UNK A  2       28.466 -16.063   4.905  0.00  0.00    -0.479 OA
ATOM     28  H   UNK A  2       29.430 -15.885   4.931  0.00  0.00    +0.295 HD
ENDBRANCH  25  27
ENDBRANCH  10  25
TORSDOF 10
ENDMDL
