MODEL 1
REMARK VINA RESULT:      -5.7      0.000      0.000
REMARK  Name = *****
REMARK                            x       y       z     vdW  Elec       q    Type
REMARK                         _______ _______ _______ _____ _____    ______ ____
ROOT
ATOM      1  C   LIG    1       26.611 -17.361   4.045  0.00  0.00    +0.158 C 
ENDROOT
BRANCH   1   2
ATOM      2  C   LIG    1       26.806 -15.884   3.742  0.00  0.00    -0.017 A 
ATOM      3  C   LIG    1       25.741 -15.108   3.249  0.00  0.00    +0.023 A 
ATOM      4  C   LIG    1       25.895 -13.739   2.959  0.00  0.00    +0.078 A 
ATOM      5  C   LIG    1       27.155 -13.148   3.140  0.00  0.00    +0.129 A 
ATOM      6  C   LIG    1       28.228 -13.909   3.604  0.00  0.00    +0.046 A 
ATOM      7  C   LIG    1       28.051 -15.261   3.902  0.00  0.00    +0.010 A 
BRANCH   4   8
ATOM      8  C   LIG    1       24.695 -13.009   2.455  0.00  0.00    +0.245 C 
ATOM      9  O   LIG    1       24.792 -11.922   1.881  0.00  0.00    -0.270 OA
ATOM     10  N   LIG    1       23.475 -13.578   2.653  0.00  0.00    -0.325 N 
ATOM     11  H   LIG    1       22.646 -13.107   2.325  0.00  0.00    +0.145 HD
ATOM     12  H   LIG    1       23.399 -14.476   3.121  0.00  0.00    +0.145 HD
ENDBRANCH   4   8
BRANCH   5  13
ATOM     13  O   LIG    1       27.366 -11.822   2.855  0.00  0.00    -0.506 OA
ATOM     14  H   LIG    1       28.222 -11.735   2.401  0.00  0.00    +0.292 HD
ENDBRANCH   5  13
ENDBRANCH   1   2
BRANCH   1  15
ATOM     15  O   LIG    1       26.059 -18.050   2.916  0.00  0.00    -0.386 OA
ATOM     16  H   LIG    1       26.774 -18.577   2.524  0.00  0.00    +0.210 HD
ENDBRANCH   1  15
BRANCH   1  17
ATOM     17  C   LIG    1       27.893 -18.094   4.529  0.00  0.00    +0.117 C 
BRANCH  17  18
ATOM     18  N   LIG    1       27.734 -19.546   4.727  0.00  0.00    -0.311 NA
ATOM     19  H   LIG    1       26.744 -19.790   4.672  0.00  0.00    +0.122 HD
BRANCH  18  21
ATOM     20  C   LIG    1       29.315 -18.989   6.516  0.00  0.00    +0.024 C 
ATOM     21  C   LIG    1       28.313 -20.029   5.992  0.00  0.00    +0.051 C 
BRANCH  21  22
ATOM     22  C   LIG    1       27.245 -20.346   7.061  0.00  0.00    +0.023 C 
BRANCH  22  23
ATOM     23  C   LIG    1       26.326 -21.517   6.685  0.00  0.00    +0.036 C 
BRANCH  23  24
ATOM     24  C   LIG    1       25.060 -21.037   6.022  0.00  0.00    -0.047 A 
ATOM     25  C   LIG    1       23.968 -20.626   6.795  0.00  0.00    +0.003 A 
ATOM     26  C   LIG    1       22.809 -20.150   6.182  0.00  0.00    +0.000 A 
ATOM     27  C   LIG    1       22.737 -20.071   4.792  0.00  0.00    +0.000 A 
ATOM     28  C   LIG    1       23.815 -20.488   4.014  0.00  0.00    +0.000 A 
ATOM     29  C   LIG    1       24.972 -20.972   4.626  0.00  0.00    +0.003 A 
ENDBRANCH  23  24
ENDBRANCH  22  23
ENDBRANCH  21  22
ENDBRANCH  18  21
ENDBRANCH  17  18
ENDBRANCH   1  17
TORSDOF 10
ENDMDL
MODEL 2
REMARK VINA RESULT:      -5.6      3.047      7.210
REMARK  Name = *****
REMARK                            x       y       z     vdW  Elec       q    Type
REMARK                         _______ _______ _______ _____ _____    ______ ____
ROOT
ATOM      1  C   LIG    1       23.640 -19.987   4.403  0.00  0.00    +0.158 C 
ENDROOT
BRANCH   1   2
ATOM      2  C   LIG    1       24.955 -20.242   5.120  0.00  0.00    -0.017 A 
ATOM      3  C   LIG    1       26.064 -19.405   4.900  0.00  0.00    +0.023 A 
ATOM      4  C   LIG    1       27.294 -19.620   5.550  0.00  0.00    +0.078 A 
ATOM      5  C   LIG    1       27.418 -20.717   6.416  0.00  0.00    +0.129 A 
ATOM      6  C   LIG    1       26.336 -21.571   6.627  0.00  0.00    +0.046 A 
ATOM      7  C   LIG    1       25.119 -21.332   5.985  0.00  0.00    +0.010 A 
BRANCH   4   8
ATOM      8  C   LIG    1       28.399 -18.661   5.253  0.00  0.00    +0.245 C 
ATOM      9  O   LIG    1       29.393 -18.575   5.977  0.00  0.00    -0.270 OA
ATOM     10  N   LIG    1       28.277 -17.870   4.153  0.00  0.00    -0.325 N 
ATOM     11  H   LIG    1       29.006 -17.211   3.929  0.00  0.00    +0.145 HD
ATOM     12  H   LIG    1       27.459 -17.947   3.557  0.00  0.00    +0.145 HD
ENDBRANCH   4   8
BRANCH   5  13
ATOM     13  O   LIG    1       28.599 -20.984   7.062  0.00  0.00    -0.506 OA
ATOM     14  H   LIG    1       29.044 -20.141   7.257  0.00  0.00    +0.292 HD
ENDBRANCH   5  13
ENDBRANCH   1   2
BRANCH   1  15
ATOM     15  O   LIG    1       22.537 -20.530   5.140  0.00  0.00    -0.386 OA
ATOM     16  H   LIG    1       22.344 -21.404   4.765  0.00  0.00    +0.210 HD
ENDBRANCH   1  15
BRANCH   1  17
ATOM     17  C   LIG    1       23.364 -18.494   4.073  0.00  0.00    +0.117 C 
BRANCH  17  18
ATOM     18  N   LIG    1       22.317 -17.863   4.898  0.00  0.00    -0.311 NA
ATOM     19  H   LIG    1       21.430 -18.345   4.745  0.00  0.00    +0.122 HD
BRANCH  18  21
ATOM     20  C   LIG    1       22.014 -15.691   5.992  0.00  0.00    +0.024 C 
ATOM     21  C   LIG    1       22.169 -16.420   4.649  0.00  0.00    +0.051 C 
BRANCH  21  22
ATOM     22  C   LIG    1       23.340 -15.826   3.836  0.00  0.00    +0.023 C 
BRANCH  22  23
ATOM     23  C   LIG    1       23.693 -14.384   4.227  0.00  0.00    +0.036 C 
BRANCH  23  24
ATOM     24  C   LIG    1       25.170 -14.119   4.091  0.00  0.00    -0.047 A 
ATOM     25  C   LIG    1       25.793 -14.205   2.841  0.00  0.00    +0.003 A 
ATOM     26  C   LIG    1       27.153 -13.926   2.709  0.00  0.00    +0.000 A 
ATOM     27  C   LIG    1       27.899 -13.550   3.823  0.00  0.00    +0.000 A 
ATOM     28  C   LIG    1       27.291 -13.472   5.075  0.00  0.00    +0.000 A 
ATOM     29  C   LIG    1       25.932 -13.758   5.210  0.00  0.00    +0.003 A 
ENDBRANCH  23  24
ENDBRANCH  22  23
ENDBRANCH  21  22
ENDBRANCH  18  21
ENDBRANCH  17  18
ENDBRANCH   1  17
TORSDOF 10
ENDMDL
MODEL 3
REMARK VINA RESULT:      -5.2      2.254      4.153
REMARK  Name = *****
REMARK                            x       y       z     vdW  Elec       q    Type
REMARK                         _______ _______ _______ _____ _____    ______ ____
ROOT
ATOM      1  C   LIG    1       23.186 -15.827   4.901  0.00  0.00    +0.158 C 
ENDROOT
BRANCH   1   2
ATOM      2  C   LIG    1       23.999 -14.800   4.130  0.00  0.00    -0.017 A 
ATOM      3  C   LIG    1       25.403 -14.784   4.221  0.00  0.00    +0.023 A 
ATOM      4  C   LIG    1       26.179 -13.842   3.519  0.00  0.00    +0.078 A 
ATOM      5  C   LIG    1       25.527 -12.879   2.735  0.00  0.00    +0.129 A 
ATOM      6  C   LIG    1       24.134 -12.864   2.654  0.00  0.00    +0.046 A 
ATOM      7  C   LIG    1       23.382 -13.817   3.344  0.00  0.00    +0.010 A 
BRANCH   4   8
ATOM      8  C   LIG    1       27.661 -13.927   3.677  0.00  0.00    +0.245 C 
ATOM      9  O   LIG    1       28.395 -12.970   3.422  0.00  0.00    -0.270 OA
ATOM     10  N   LIG    1       28.189 -15.105   4.107  0.00  0.00    -0.325 N 
ATOM     11  H   LIG    1       29.187 -15.193   4.220  0.00  0.00    +0.145 HD
ATOM     12  H   LIG    1       27.581 -15.890   4.320  0.00  0.00    +0.145 HD
ENDBRANCH   4   8
BRANCH   5  13
ATOM     13  O   LIG    1       26.233 -11.926   2.045  0.00  0.00    -0.506 OA
ATOM     14  H   LIG    1       26.166 -12.120   1.093  0.00  0.00    +0.292 HD
ENDBRANCH   5  13
ENDBRANCH   1   2
BRANCH   1  15
ATOM     15  O   LIG    1       21.994 -15.241   5.441  0.00  0.00    -0.386 OA
ATOM     16  H   LIG    1       22.002 -15.405   6.397  0.00  0.00    +0.210 HD
ENDBRANCH   1  15
BRANCH   1  17
ATOM     17  C   LIG    1       22.821 -17.101   4.089  0.00  0.00    +0.117 C 
BRANCH  17  18
ATOM     18  N   LIG    1       22.029 -18.099   4.831  0.00  0.00    -0.311 NA
ATOM     19  H   LIG    1       22.084 -17.899   5.831  0.00  0.00    +0.122 HD
BRANCH  18  21
ATOM     20  C   LIG    1       23.242 -19.528   3.252  0.00  0.00    +0.024 C 
ATOM     21  C   LIG    1       22.437 -19.486   4.559  0.00  0.00    +0.051 C 
BRANCH  21  22
ATOM     22  C   LIG    1       23.241 -20.116   5.717  0.00  0.00    +0.023 C 
BRANCH  22  23
ATOM     23  C   LIG    1       24.275 -21.154   5.258  0.00  0.00    +0.036 C 
BRANCH  23  24
ATOM     24  C   LIG    1       25.677 -20.741   5.627  0.00  0.00    -0.047 A 
ATOM     25  C   LIG    1       26.311 -21.306   6.739  0.00  0.00    +0.003 A 
ATOM     26  C   LIG    1       27.621 -20.950   7.061  0.00  0.00    +0.000 A 
ATOM     27  C   LIG    1       28.310 -20.034   6.268  0.00  0.00    +0.000 A 
ATOM     28  C   LIG    1       27.682 -19.458   5.165  0.00  0.00    +0.000 A 
ATOM     29  C   LIG    1       26.369 -19.808   4.846  0.00  0.00    +0.003 A 
ENDBRANCH  23  24
ENDBRANCH  22  23
ENDBRANCH  21  22
ENDBRANCH  18  21
ENDBRANCH  17  18
ENDBRANCH   1  17
TORSDOF 10
ENDMDL
MODEL 4
REMARK VINA RESULT:      -5.2      2.865      6.991
REMARK  Name = *****
REMARK                            x       y       z     vdW  Elec       q    Type
REMARK                         _______ _______ _______ _____ _____    ______ ____
ROOT
ATOM      1  C   LIG    1       28.352 -19.256   5.880  0.00  0.00    +0.158 C 
ENDROOT
BRANCH   1   2
ATOM      2  C   LIG    1       26.966 -19.881   5.891  0.00  0.00    -0.017 A 
ATOM      3  C   LIG    1       26.162 -19.860   4.738  0.00  0.00    +0.023 A 
ATOM      4  C   LIG    1       24.875 -20.430   4.722  0.00  0.00    +0.078 A 
ATOM      5  C   LIG    1       24.377 -21.004   5.901  0.00  0.00    +0.129 A 
ATOM      6  C   LIG    1       25.151 -21.011   7.062  0.00  0.00    +0.046 A 
ATOM      7  C   LIG    1       26.432 -20.456   7.052  0.00  0.00    +0.010 A 
BRANCH   4   8
ATOM      8  C   LIG    1       24.115 -20.365   3.439  0.00  0.00    +0.245 C 
ATOM      9  O   LIG    1       23.674 -19.300   3.002  0.00  0.00    -0.270 OA
ATOM     10  N   LIG    1       23.913 -21.526   2.759  0.00  0.00    -0.325 N 
ATOM     11  H   LIG    1       23.401 -21.513   1.891  0.00  0.00    +0.145 HD
ATOM     12  H   LIG    1       24.282 -22.400   3.120  0.00  0.00    +0.145 HD
ENDBRANCH   4   8
BRANCH   5  13
ATOM     13  O   LIG    1       23.122 -21.557   5.948  0.00  0.00    -0.506 OA
ATOM     14  H   LIG    1       22.688 -21.418   5.088  0.00  0.00    +0.292 HD
ENDBRANCH   5  13
ENDBRANCH   1   2
BRANCH   1  15
ATOM     15  O   LIG    1       29.323 -20.165   5.347  0.00  0.00    -0.386 OA
ATOM     16  H   LIG    1       30.198 -19.827   5.594  0.00  0.00    +0.210 HD
ENDBRANCH   1  15
BRANCH   1  17
ATOM     17  C   LIG    1       28.440 -17.898   5.129  0.00  0.00    +0.117 C 
BRANCH  17  18
ATOM     18  N   LIG    1       27.768 -17.874   3.817  0.00  0.00    -0.311 NA
ATOM     19  H   LIG    1       28.428 -18.163   3.093  0.00  0.00    +0.122 HD
BRANCH  18  21
ATOM     20  C   LIG    1       25.652 -16.695   3.443  0.00  0.00    +0.024 C 
ATOM     21  C   LIG    1       27.182 -16.565   3.486  0.00  0.00    +0.051 C 
BRANCH  21  22
ATOM     22  C   LIG    1       27.609 -15.449   4.464  0.00  0.00    +0.023 C 
BRANCH  22  23
ATOM     23  C   LIG    1       27.740 -14.069   3.806  0.00  0.00    +0.036 C 
BRANCH  23  24
ATOM     24  C   LIG    1       26.393 -13.427   3.591  0.00  0.00    -0.047 A 
ATOM     25  C   LIG    1       25.983 -13.054   2.306  0.00  0.00    +0.003 A 
ATOM     26  C   LIG    1       24.724 -12.492   2.103  0.00  0.00    +0.000 A 
ATOM     27  C   LIG    1       23.860 -12.306   3.180  0.00  0.00    +0.000 A 
ATOM     28  C   LIG    1       24.263 -12.664   4.465  0.00  0.00    +0.000 A 
ATOM     29  C   LIG    1       25.527 -13.219   4.671  0.00  0.00    +0.003 A 
ENDBRANCH  23  24
ENDBRANCH  22  23
ENDBRANCH  21  22
ENDBRANCH  18  21
ENDBRANCH  17  18
ENDBRANCH   1  17
TORSDOF 10
ENDMDL
MODEL 5
REMARK VINA RESULT:      -5.0      1.717      2.312
REMARK  Name = *****
REMARK                            x       y       z     vdW  Elec       q    Type
REMARK                         _______ _______ _______ _____ _____    ______ ____
ROOT
ATOM      1  C   LIG    1       27.995 -17.766   4.211  0.00  0.00    +0.158 C 
ENDROOT
BRANCH   1   2
ATOM      2  C   LIG    1       27.308 -16.440   3.931  0.00  0.00    -0.017 A 
ATOM      3  C   LIG    1       27.962 -15.224   4.201  0.00  0.00    +0.023 A 
ATOM      4  C   LIG    1       27.348 -13.982   3.953  0.00  0.00    +0.078 A 
ATOM      5  C   LIG    1       26.038 -13.965   3.452  0.00  0.00    +0.129 A 
ATOM      6  C   LIG    1       25.365 -15.161   3.202  0.00  0.00    +0.046 A 
ATOM      7  C   LIG    1       25.997 -16.383   3.439  0.00  0.00    +0.010 A 
BRANCH   4   8
ATOM      8  C   LIG    1       28.140 -12.756   4.263  0.00  0.00    +0.245 C 
ATOM      9  O   LIG    1       28.521 -11.990   3.375  0.00  0.00    -0.270 OA
ATOM     10  N   LIG    1       28.441 -12.504   5.565  0.00  0.00    -0.325 N 
ATOM     11  H   LIG    1       28.977 -11.685   5.804  0.00  0.00    +0.145 HD
ATOM     12  H   LIG    1       28.121 -13.135   6.295  0.00  0.00    +0.145 HD
ENDBRANCH   4   8
BRANCH   5  13
ATOM     13  O   LIG    1       25.384 -12.783   3.209  0.00  0.00    -0.506 OA
ATOM     14  H   LIG    1       26.016 -12.051   3.318  0.00  0.00    +0.292 HD
ENDBRANCH   5  13
ENDBRANCH   1   2
BRANCH   1  15
ATOM     15  O   LIG    1       29.145 -17.585   5.048  0.00  0.00    -0.386 OA
ATOM     16  H   LIG    1       28.880 -17.001   5.775  0.00  0.00    +0.210 HD
ENDBRANCH   1  15
BRANCH   1  17
ATOM     17  C   LIG    1       27.070 -18.856   4.822  0.00  0.00    +0.117 C 
BRANCH  17  18
ATOM     18  N   LIG    1       27.661 -20.204   4.882  0.00  0.00    -0.311 NA
ATOM     19  H   LIG    1       27.145 -20.828   4.260  0.00  0.00    +0.122 HD
BRANCH  18  21
ATOM     20  C   LIG    1       28.763 -19.998   7.062  0.00  0.00    +0.024 C 
ATOM     21  C   LIG    1       27.710 -20.760   6.244  0.00  0.00    +0.051 C 
BRANCH  21  22
ATOM     22  C   LIG    1       26.340 -20.731   6.955  0.00  0.00    +0.023 C 
BRANCH  22  23
ATOM     23  C   LIG    1       25.263 -21.571   6.255  0.00  0.00    +0.036 C 
BRANCH  23  24
ATOM     24  C   LIG    1       24.301 -20.705   5.482  0.00  0.00    -0.047 A 
ATOM     25  C   LIG    1       23.190 -20.139   6.117  0.00  0.00    +0.003 A 
ATOM     26  C   LIG    1       22.319 -19.310   5.411  0.00  0.00    +0.000 A 
ATOM     27  C   LIG    1       22.556 -19.034   4.066  0.00  0.00    +0.000 A 
ATOM     28  C   LIG    1       23.653 -19.602   3.421  0.00  0.00    +0.000 A 
ATOM     29  C   LIG    1       24.521 -20.438   4.125  0.00  0.00    +0.003 A 
ENDBRANCH  23  24
ENDBRANCH  22  23
ENDBRANCH  21  22
ENDBRANCH  18  21
ENDBRANCH  17  18
ENDBRANCH   1  17
TORSDOF 10
ENDMDL
MODEL 6
REMARK VINA RESULT:      -4.8      1.312      2.107
REMARK  Name = *****
REMARK                            x       y       z     vdW  Elec       q    Type
REMARK                         _______ _______ _______ _____ _____    ______ ____
ROOT
ATOM      1  C   LIG    1       25.714 -18.370   3.616  0.00  0.00    +0.158 C 
ENDROOT
BRANCH   1   2
ATOM      2  C   LIG    1       26.198 -16.929   3.630  0.00  0.00    -0.017 A 
ATOM      3  C   LIG    1       25.344 -15.884   3.231  0.00  0.00    +0.023 A 
ATOM      4  C   LIG    1       25.768 -14.541   3.233  0.00  0.00    +0.078 A 
ATOM      5  C   LIG    1       27.086 -14.250   3.614  0.00  0.00    +0.129 A 
ATOM      6  C   LIG    1       27.953 -15.276   3.988  0.00  0.00    +0.046 A 
ATOM      7  C   LIG    1       27.510 -16.600   3.995  0.00  0.00    +0.010 A 
BRANCH   4   8
ATOM      8  C   LIG    1       24.774 -13.513   2.805  0.00  0.00    +0.245 C 
ATOM      9  O   LIG    1       25.097 -12.556   2.099  0.00  0.00    -0.270 OA
ATOM     10  N   LIG    1       23.488 -13.656   3.226  0.00  0.00    -0.325 N 
ATOM     11  H   LIG    1       22.796 -12.975   2.955  0.00  0.00    +0.145 HD
ATOM     12  H   LIG    1       23.225 -14.449   3.804  0.00  0.00    +0.145 HD
ENDBRANCH   4   8
BRANCH   5  13
ATOM     13  O   LIG    1       27.557 -12.961   3.616  0.00  0.00    -0.506 OA
ATOM     14  H   LIG    1       27.453 -12.594   4.512  0.00  0.00    +0.292 HD
ENDBRANCH   5  13
ENDBRANCH   1   2
BRANCH   1  15
ATOM     15  O   LIG    1       25.720 -18.903   2.285  0.00  0.00    -0.386 OA
ATOM     16  H   LIG    1       26.615 -18.783   1.932  0.00  0.00    +0.210 HD
ENDBRANCH   1  15
BRANCH   1  17
ATOM     17  C   LIG    1       26.497 -19.322   4.563  0.00  0.00    +0.117 C 
BRANCH  17  18
ATOM     18  N   LIG    1       25.901 -20.662   4.720  0.00  0.00    -0.311 NA
ATOM     19  H   LIG    1       24.972 -20.671   4.296  0.00  0.00    +0.122 HD
BRANCH  18  21
ATOM     20  C   LIG    1       26.964 -20.442   6.919  0.00  0.00    +0.024 C 
ATOM     21  C   LIG    1       25.832 -21.108   6.121  0.00  0.00    +0.051 C 
BRANCH  21  22
ATOM     22  C   LIG    1       24.462 -20.826   6.776  0.00  0.00    +0.023 C 
BRANCH  22  23
ATOM     23  C   LIG    1       23.282 -21.481   6.045  0.00  0.00    +0.036 C 
BRANCH  23  24
ATOM     24  C   LIG    1       22.468 -20.465   5.285  0.00  0.00    -0.047 A 
ATOM     25  C   LIG    1       22.856 -19.121   5.262  0.00  0.00    +0.003 A 
ATOM     26  C   LIG    1       22.122 -18.187   4.531  0.00  0.00    +0.000 A 
ATOM     27  C   LIG    1       21.001 -18.591   3.810  0.00  0.00    +0.000 A 
ATOM     28  C   LIG    1       20.600 -19.925   3.835  0.00  0.00    +0.000 A 
ATOM     29  C   LIG    1       21.329 -20.860   4.572  0.00  0.00    +0.003 A 
ENDBRANCH  23  24
ENDBRANCH  22  23
ENDBRANCH  21  22
ENDBRANCH  18  21
ENDBRANCH  17  18
ENDBRANCH   1  17
TORSDOF 10
ENDMDL
MODEL 7
REMARK VINA RESULT:      -4.5      3.311      7.859
REMARK  Name = *****
REMARK                            x       y       z     vdW  Elec       q    Type
REMARK                         _______ _______ _______ _____ _____    ______ ____
ROOT
ATOM      1  C   LIG    1       22.512 -16.114   4.455  0.00  0.00    +0.158 C 
ENDROOT
BRANCH   1   2
ATOM      2  C   LIG    1       23.201 -17.464   4.337  0.00  0.00    -0.017 A 
ATOM      3  C   LIG    1       22.615 -18.617   4.888  0.00  0.00    +0.023 A 
ATOM      4  C   LIG    1       23.233 -19.879   4.794  0.00  0.00    +0.078 A 
ATOM      5  C   LIG    1       24.482 -19.973   4.162  0.00  0.00    +0.129 A 
ATOM      6  C   LIG    1       25.090 -18.835   3.632  0.00  0.00    +0.046 A 
ATOM      7  C   LIG    1       24.453 -17.595   3.720  0.00  0.00    +0.010 A 
BRANCH   4   8
ATOM      8  C   LIG    1       22.514 -21.037   5.401  0.00  0.00    +0.245 C 
ATOM      9  O   LIG    1       22.901 -21.565   6.446  0.00  0.00    -0.270 OA
ATOM     10  N   LIG    1       21.410 -21.508   4.759  0.00  0.00    -0.325 N 
ATOM     11  H   LIG    1       20.906 -22.291   5.144  0.00  0.00    +0.145 HD
ATOM     12  H   LIG    1       21.092 -21.068   3.901  0.00  0.00    +0.145 HD
ENDBRANCH   4   8
BRANCH   5  13
ATOM     13  O   LIG    1       25.138 -21.174   4.058  0.00  0.00    -0.506 OA
ATOM     14  H   LIG    1       25.231 -21.397   3.115  0.00  0.00    +0.292 HD
ENDBRANCH   5  13
ENDBRANCH   1   2
BRANCH   1  15
ATOM     15  O   LIG    1       21.911 -15.953   5.746  0.00  0.00    -0.386 OA
ATOM     16  H   LIG    1       22.601 -16.123   6.407  0.00  0.00    +0.210 HD
ENDBRANCH   1  15
BRANCH   1  17
ATOM     17  C   LIG    1       23.425 -14.894   4.148  0.00  0.00    +0.117 C 
BRANCH  17  18
ATOM     18  N   LIG    1       23.063 -14.145   2.931  0.00  0.00    -0.311 NA
ATOM     19  H   LIG    1       23.229 -14.730   2.111  0.00  0.00    +0.122 HD
BRANCH  18  21
ATOM     20  C   LIG    1       24.028 -12.284   4.203  0.00  0.00    +0.024 C 
ATOM     21  C   LIG    1       23.776 -12.863   2.802  0.00  0.00    +0.051 C 
BRANCH  21  22
ATOM     22  C   LIG    1       25.099 -12.986   2.015  0.00  0.00    +0.023 C 
BRANCH  22  23
ATOM     23  C   LIG    1       26.022 -14.099   2.531  0.00  0.00    +0.036 C 
BRANCH  23  24
ATOM     24  C   LIG    1       26.979 -13.585   3.577  0.00  0.00    -0.047 A 
ATOM     25  C   LIG    1       28.147 -12.915   3.199  0.00  0.00    +0.003 A 
ATOM     26  C   LIG    1       29.015 -12.409   4.166  0.00  0.00    +0.000 A 
ATOM     27  C   LIG    1       28.718 -12.561   5.518  0.00  0.00    +0.000 A 
ATOM     28  C   LIG    1       27.562 -13.237   5.905  0.00  0.00    +0.000 A 
ATOM     29  C   LIG    1       26.696 -13.750   4.938  0.00  0.00    +0.003 A 
ENDBRANCH  23  24
ENDBRANCH  22  23
ENDBRANCH  21  22
ENDBRANCH  18  21
ENDBRANCH  17  18
ENDBRANCH   1  17
TORSDOF 10
ENDMDL
MODEL 8
REMARK VINA RESULT:      -3.9      2.862      7.520
REMARK  Name = *****
REMARK                            x       y       z     vdW  Elec       q    Type
REMARK                         _______ _______ _______ _____ _____    ______ ____
ROOT
ATOM      1  C   LIG    1       22.345 -15.742   4.742  0.00  0.00    +0.158 C 
ENDROOT
BRANCH   1   2
ATOM      2  C   LIG    1       22.679 -17.207   4.517  0.00  0.00    -0.017 A 
ATOM      3  C   LIG    1       23.981 -17.596   4.154  0.00  0.00    +0.023 A 
ATOM      4  C   LIG    1       24.317 -18.946   3.938  0.00  0.00    +0.078 A 
ATOM      5  C   LIG    1       23.314 -19.919   4.059  0.00  0.00    +0.129 A 
ATOM      6  C   LIG    1       22.011 -19.548   4.393  0.00  0.00    +0.046 A 
ATOM      7  C   LIG    1       21.702 -18.206   4.620  0.00  0.00    +0.010 A 
BRANCH   4   8
ATOM      8  C   LIG    1       25.732 -19.247   3.571  0.00  0.00    +0.245 C 
ATOM      9  O   LIG    1       26.293 -18.677   2.633  0.00  0.00    -0.270 OA
ATOM     10  N   LIG    1       26.395 -20.183   4.304  0.00  0.00    -0.325 N 
ATOM     11  H   LIG    1       27.351 -20.408   4.078  0.00  0.00    +0.145 HD
ATOM     12  H   LIG    1       25.931 -20.646   5.080  0.00  0.00    +0.145 HD
ENDBRANCH   4   8
BRANCH   5  13
ATOM     13  O   LIG    1       23.581 -21.248   3.841  0.00  0.00    -0.506 OA
ATOM     14  H   LIG    1       23.862 -21.649   4.682  0.00  0.00    +0.292 HD
ENDBRANCH   5  13
ENDBRANCH   1   2
BRANCH   1  15
ATOM     15  O   LIG    1       21.924 -15.511   6.093  0.00  0.00    -0.386 OA
ATOM     16  H   LIG    1       21.713 -16.375   6.479  0.00  0.00    +0.210 HD
ENDBRANCH   1  15
BRANCH   1  17
ATOM     17  C   LIG    1       23.489 -14.755   4.375  0.00  0.00    +0.117 C 
BRANCH  17  18
ATOM     18  N   LIG    1       23.144 -13.772   3.333  0.00  0.00    -0.311 NA
ATOM     19  H   LIG    1       23.513 -14.087   2.434  0.00  0.00    +0.122 HD
BRANCH  18  21
ATOM     20  C   LIG    1       24.259 -12.400   5.031  0.00  0.00    +0.024 C 
ATOM     21  C   LIG    1       23.618 -12.412   3.635  0.00  0.00    +0.051 C 
BRANCH  21  22
ATOM     22  C   LIG    1       24.603 -11.868   2.577  0.00  0.00    +0.023 C 
BRANCH  22  23
ATOM     23  C   LIG    1       25.365 -12.966   1.822  0.00  0.00    +0.036 C 
BRANCH  23  24
ATOM     24  C   LIG    1       26.419 -13.605   2.690  0.00  0.00    -0.047 A 
ATOM     25  C   LIG    1       27.433 -12.828   3.261  0.00  0.00    +0.003 A 
ATOM     26  C   LIG    1       28.388 -13.413   4.092  0.00  0.00    +0.000 A 
ATOM     27  C   LIG    1       28.332 -14.778   4.366  0.00  0.00    +0.000 A 
ATOM     28  C   LIG    1       27.333 -15.563   3.793  0.00  0.00    +0.000 A 
ATOM     29  C   LIG    1       26.381 -14.980   2.955  0.00  0.00    +0.003 A 
ENDBRANCH  23  24
ENDBRANCH  22  23
ENDBRANCH  21  22
ENDBRANCH  18  21
ENDBRANCH  17  18
ENDBRANCH   1  17
TORSDOF 10
ENDMDL
MODEL 9
REMARK VINA RESULT:      -3.7      2.522      4.396
REMARK  Name = *****
REMARK                            x       y       z     vdW  Elec       q    Type
REMARK                         _______ _______ _______ _____ _____    ______ ____
ROOT
ATOM      1  C   LIG    1       23.744 -13.613   3.663  0.00  0.00    +0.158 C 
ENDROOT
BRANCH   1   2
ATOM      2  C   LIG    1       25.258 -13.566   3.537  0.00  0.00    -0.017 A 
ATOM      3  C   LIG    1       26.060 -13.259   4.651  0.00  0.00    +0.023 A 
ATOM      4  C   LIG    1       27.464 -13.206   4.562  0.00  0.00    +0.078 A 
ATOM      5  C   LIG    1       28.069 -13.438   3.318  0.00  0.00    +0.129 A 
ATOM      6  C   LIG    1       27.289 -13.719   2.197  0.00  0.00    +0.046 A 
ATOM      7  C   LIG    1       25.898 -13.783   2.310  0.00  0.00    +0.010 A 
BRANCH   4   8
ATOM      8  C   LIG    1       28.216 -12.886   5.810  0.00  0.00    +0.245 C 
ATOM      9  O   LIG    1       28.035 -13.516   6.854  0.00  0.00    -0.270 OA
ATOM     10  N   LIG    1       29.112 -11.862   5.769  0.00  0.00    -0.325 N 
ATOM     11  H   LIG    1       29.632 -11.621   6.598  0.00  0.00    +0.145 HD
ATOM     12  H   LIG    1       29.261 -11.349   4.906  0.00  0.00    +0.145 HD
ENDBRANCH   4   8
BRANCH   5  13
ATOM     13  O   LIG    1       29.433 -13.381   3.169  0.00  0.00    -0.506 OA
ATOM     14  H   LIG    1       29.819 -13.019   3.985  0.00  0.00    +0.292 HD
ENDBRANCH   5  13
ENDBRANCH   1   2
BRANCH   1  15
ATOM     15  O   LIG    1       23.122 -13.698   2.375  0.00  0.00    -0.386 OA
ATOM     16  H   LIG    1       23.171 -12.815   1.975  0.00  0.00    +0.210 HD
ENDBRANCH   1  15
BRANCH   1  17
ATOM     17  C   LIG    1       23.208 -14.750   4.578  0.00  0.00    +0.117 C 
BRANCH  17  18
ATOM     18  N   LIG    1       23.436 -16.113   4.064  0.00  0.00    -0.311 NA
ATOM     19  H   LIG    1       23.225 -16.139   3.065  0.00  0.00    +0.122 HD
BRANCH  18  21
ATOM     20  C   LIG    1       21.576 -16.461   5.622  0.00  0.00    +0.024 C 
ATOM     21  C   LIG    1       22.665 -17.142   4.780  0.00  0.00    +0.051 C 
BRANCH  21  22
ATOM     22  C   LIG    1       22.046 -18.196   3.836  0.00  0.00    +0.023 C 
BRANCH  22  23
ATOM     23  C   LIG    1       21.928 -19.592   4.463  0.00  0.00    +0.036 C 
BRANCH  23  24
ATOM     24  C   LIG    1       23.215 -20.012   5.126  0.00  0.00    -0.047 A 
ATOM     25  C   LIG    1       23.219 -20.439   6.459  0.00  0.00    +0.003 A 
ATOM     26  C   LIG    1       24.404 -20.860   7.061  0.00  0.00    +0.000 A 
ATOM     27  C   LIG    1       25.592 -20.868   6.334  0.00  0.00    +0.000 A 
ATOM     28  C   LIG    1       25.601 -20.434   5.010  0.00  0.00    +0.000 A 
ATOM     29  C   LIG    1       24.417 -20.005   4.408  0.00  0.00    +0.003 A 
ENDBRANCH  23  24
ENDBRANCH  22  23
ENDBRANCH  21  22
ENDBRANCH  18  21
ENDBRANCH  17  18
ENDBRANCH   1  17
TORSDOF 10
ENDMDL
