MODEL 1
REMARK VINA RESULT:      -4.5      0.000      0.000
REMARK  Name = *****
REMARK                            x       y       z     vdW  Elec       q    Type
REMARK                         _______ _______ _______ _____ _____    ______ ____
ROOT
ATOM      1  C   LIG    1       24.364 -13.459   4.083  0.00  0.00    +0.147 C 
ATOM      2  O   LIG    1       23.638 -14.457   4.163  0.00  0.00    -0.296 OA
ENDROOT
BRANCH   1   3
ATOM      3  C   LIG    1       23.963 -12.268   3.230  0.00  0.00    +0.152 C 
BRANCH   3   4
ATOM      4  N   LIG    1       24.161 -12.579   1.815  0.00  0.00    -0.324 NA
ATOM      5  H   LIG    1       24.563 -13.517   1.729  0.00  0.00    +0.119 HD
ATOM      6  H   LIG    1       23.250 -12.638   1.358  0.00  0.00    +0.119 HD
ENDBRANCH   3   4
ENDBRANCH   1   3
BRANCH   1   7
ATOM      7  C   LIG    1       25.703 -13.403   4.795  0.00  0.00    +0.086 C 
BRANCH   7   8
ATOM      8  C   LIG    1       26.703 -14.412   4.238  0.00  0.00    +0.128 C 
BRANCH   8   9
ATOM      9  C   LIG    1       27.311 -14.006   2.916  0.00  0.00    +0.305 C 
ATOM     10  O   LIG    1       26.802 -14.281   1.834  0.00  0.00    -0.251 OA
BRANCH   9  11
ATOM     11  O   LIG    1       28.434 -13.268   3.001  0.00  0.00    -0.481 OA
ATOM     12  H   LIG    1       29.232 -13.702   2.607  0.00  0.00    +0.295 HD
ENDBRANCH   9  11
ENDBRANCH   8   9
ENDBRANCH   7   8
ENDBRANCH   1   7
TORSDOF 6
ENDMDL
MODEL 2
REMARK VINA RESULT:      -4.3      2.205      3.738
REMARK  Name = *****
REMARK                            x       y       z     vdW  Elec       q    Type
REMARK                         _______ _______ _______ _____ _____    ______ ____
ROOT
ATOM      1  C   LIG    1       26.586 -14.207   3.122  0.00  0.00    +0.147 C 
ATOM      2  O   LIG    1       26.823 -14.183   1.908  0.00  0.00    -0.296 OA
ENDROOT
BRANCH   1   3
ATOM      3  C   LIG    1       27.584 -13.653   4.123  0.00  0.00    +0.152 C 
BRANCH   3   4
ATOM      4  N   LIG    1       28.737 -13.093   3.420  0.00  0.00    -0.324 NA
ATOM      5  H   LIG    1       29.450 -12.824   4.103  0.00  0.00    +0.119 HD
ATOM      6  H   LIG    1       29.171 -13.826   2.859  0.00  0.00    +0.119 HD
ENDBRANCH   3   4
ENDBRANCH   1   3
BRANCH   1   7
ATOM      7  C   LIG    1       25.313 -14.833   3.660  0.00  0.00    +0.086 C 
BRANCH   7   8
ATOM      8  C   LIG    1       24.373 -13.804   4.281  0.00  0.00    +0.128 C 
BRANCH   8   9
ATOM      9  C   LIG    1       23.953 -12.707   3.331  0.00  0.00    +0.305 C 
ATOM     10  O   LIG    1       23.739 -11.554   3.694  0.00  0.00    -0.251 OA
BRANCH   9  11
ATOM     11  O   LIG    1       23.878 -13.064   2.035  0.00  0.00    -0.481 OA
ATOM     12  H   LIG    1       23.062 -13.576   1.805  0.00  0.00    +0.295 HD
ENDBRANCH   9  11
ENDBRANCH   8   9
ENDBRANCH   7   8
ENDBRANCH   1   7
TORSDOF 6
ENDMDL
MODEL 3
REMARK VINA RESULT:      -4.2      1.526      2.301
REMARK  Name = *****
REMARK                            x       y       z     vdW  Elec       q    Type
REMARK                         _______ _______ _______ _____ _____    ______ ____
ROOT
ATOM      1  C   LIG    1       25.949 -13.950   2.949  0.00  0.00    +0.147 C 
ATOM      2  O   LIG    1       26.389 -14.186   1.818  0.00  0.00    -0.296 OA
ENDROOT
BRANCH   1   3
ATOM      3  C   LIG    1       24.717 -13.084   3.142  0.00  0.00    +0.152 C 
BRANCH   3   4
ATOM      4  N   LIG    1       24.133 -12.750   1.844  0.00  0.00    -0.324 NA
ATOM      5  H   LIG    1       24.140 -11.734   1.722  0.00  0.00    +0.119 HD
ATOM      6  H   LIG    1       24.739 -13.110   1.106  0.00  0.00    +0.119 HD
ENDBRANCH   3   4
ENDBRANCH   1   3
BRANCH   1   7
ATOM      7  C   LIG    1       26.648 -14.477   4.189  0.00  0.00    +0.086 C 
BRANCH   7   8
ATOM      8  C   LIG    1       27.131 -13.359   5.107  0.00  0.00    +0.128 C 
BRANCH   8   9
ATOM      9  C   LIG    1       28.467 -12.776   4.712  0.00  0.00    +0.305 C 
ATOM     10  O   LIG    1       29.043 -13.071   3.669  0.00  0.00    -0.251 OA
BRANCH   9  11
ATOM     11  O   LIG    1       28.970 -11.861   5.561  0.00  0.00    -0.481 OA
ATOM     12  H   LIG    1       29.247 -12.232   6.436  0.00  0.00    +0.295 HD
ENDBRANCH   9  11
ENDBRANCH   8   9
ENDBRANCH   7   8
ENDBRANCH   1   7
TORSDOF 6
ENDMDL
MODEL 4
REMARK VINA RESULT:      -4.1      1.867      2.372
REMARK  Name = *****
REMARK                            x       y       z     vdW  Elec       q    Type
REMARK                         _______ _______ _______ _____ _____    ______ ____
ROOT
ATOM      1  C   LIG    1       25.237 -14.206   4.081  0.00  0.00    +0.147 C 
ATOM      2  O   LIG    1       24.013 -14.374   4.135  0.00  0.00    -0.296 OA
ENDROOT
BRANCH   1   3
ATOM      3  C   LIG    1       26.113 -15.107   3.228  0.00  0.00    +0.152 C 
BRANCH   3   4
ATOM      4  N   LIG    1       26.590 -14.375   2.056  0.00  0.00    -0.324 NA
ATOM      5  H   LIG    1       27.525 -14.004   2.248  0.00  0.00    +0.119 HD
ATOM      6  H   LIG    1       26.718 -15.030   1.285  0.00  0.00    +0.119 HD
ENDBRANCH   3   4
ENDBRANCH   1   3
BRANCH   1   7
ATOM      7  C   LIG    1       25.917 -13.123   4.899  0.00  0.00    +0.086 C 
BRANCH   7   8
ATOM      8  C   LIG    1       27.294 -13.547   5.400  0.00  0.00    +0.128 C 
BRANCH   8   9
ATOM      9  C   LIG    1       28.434 -12.758   4.799  0.00  0.00    +0.305 C 
ATOM     10  O   LIG    1       28.810 -12.905   3.640  0.00  0.00    -0.251 OA
BRANCH   9  11
ATOM     11  O   LIG    1       28.985 -11.835   5.608  0.00  0.00    -0.481 OA
ATOM     12  H   LIG    1       29.661 -11.262   5.165  0.00  0.00    +0.295 HD
ENDBRANCH   9  11
ENDBRANCH   8   9
ENDBRANCH   7   8
ENDBRANCH   1   7
TORSDOF 6
ENDMDL
MODEL 5
REMARK VINA RESULT:      -4.0      2.665      3.872
REMARK  Name = *****
REMARK                            x       y       z     vdW  Elec       q    Type
REMARK                         _______ _______ _______ _____ _____    ______ ____
ROOT
ATOM      1  C   LIG    1       27.400 -13.582   4.396  0.00  0.00    +0.147 C 
ATOM      2  O   LIG    1       26.911 -13.600   5.532  0.00  0.00    -0.296 OA
ENDROOT
BRANCH   1   3
ATOM      3  C   LIG    1       28.658 -12.785   4.100  0.00  0.00    +0.152 C 
BRANCH   3   4
ATOM      4  N   LIG    1       28.998 -11.945   5.247  0.00  0.00    -0.324 NA
ATOM      5  H   LIG    1       29.020 -12.522   6.093  0.00  0.00    +0.119 HD
ATOM      6  H   LIG    1       29.952 -11.603   5.136  0.00  0.00    +0.119 HD
ENDBRANCH   3   4
ENDBRANCH   1   3
BRANCH   1   7
ATOM      7  C   LIG    1       26.737 -14.317   3.246  0.00  0.00    +0.086 C 
BRANCH   7   8
ATOM      8  C   LIG    1       25.813 -13.416   2.432  0.00  0.00    +0.128 C 
BRANCH   8   9
ATOM      9  C   LIG    1       24.423 -13.284   3.008  0.00  0.00    +0.305 C 
ATOM     10  O   LIG    1       23.952 -14.087   3.808  0.00  0.00    -0.251 OA
BRANCH   9  11
ATOM     11  O   LIG    1       23.742 -12.189   2.624  0.00  0.00    -0.481 OA
ATOM     12  H   LIG    1       24.009 -11.361   3.097  0.00  0.00    +0.295 HD
ENDBRANCH   9  11
ENDBRANCH   8   9
ENDBRANCH   7   8
ENDBRANCH   1   7
TORSDOF 6
ENDMDL
MODEL 6
REMARK VINA RESULT:      -4.0      1.137      1.585
REMARK  Name = *****
REMARK                            x       y       z     vdW  Elec       q    Type
REMARK                         _______ _______ _______ _____ _____    ______ ____
ROOT
ATOM      1  C   LIG    1       24.234 -12.404   4.226  0.00  0.00    +0.147 C 
ATOM      2  O   LIG    1       23.969 -11.813   5.280  0.00  0.00    -0.296 OA
ENDROOT
BRANCH   1   3
ATOM      3  C   LIG    1       23.904 -11.784   2.880  0.00  0.00    +0.152 C 
BRANCH   3   4
ATOM      4  N   LIG    1       24.139 -12.756   1.813  0.00  0.00    -0.324 NA
ATOM      5  H   LIG    1       23.346 -12.744   1.166  0.00  0.00    +0.119 HD
ATOM      6  H   LIG    1       24.939 -12.451   1.258  0.00  0.00    +0.119 HD
ENDBRANCH   3   4
ENDBRANCH   1   3
BRANCH   1   7
ATOM      7  C   LIG    1       24.855 -13.789   4.238  0.00  0.00    +0.086 C 
BRANCH   7   8
ATOM      8  C   LIG    1       26.333 -13.763   4.616  0.00  0.00    +0.128 C 
BRANCH   8   9
ATOM      9  C   LIG    1       27.268 -13.855   3.433  0.00  0.00    +0.305 C 
ATOM     10  O   LIG    1       28.468 -13.606   3.509  0.00  0.00    -0.251 OA
BRANCH   9  11
ATOM     11  O   LIG    1       26.707 -14.283   2.287  0.00  0.00    -0.481 OA
ATOM     12  H   LIG    1       27.200 -15.022   1.848  0.00  0.00    +0.295 HD
ENDBRANCH   9  11
ENDBRANCH   8   9
ENDBRANCH   7   8
ENDBRANCH   1   7
TORSDOF 6
ENDMDL
MODEL 7
REMARK VINA RESULT:      -3.9      6.558      7.640
REMARK  Name = *****
REMARK                            x       y       z     vdW  Elec       q    Type
REMARK                         _______ _______ _______ _____ _____    ______ ____
ROOT
ATOM      1  C   LIG    1       24.878 -20.906   5.524  0.00  0.00    +0.147 C 
ATOM      2  O   LIG    1       24.812 -21.572   4.483  0.00  0.00    -0.296 OA
ENDROOT
BRANCH   1   3
ATOM      3  C   LIG    1       26.218 -20.587   6.162  0.00  0.00    +0.152 C 
BRANCH   3   4
ATOM      4  N   LIG    1       27.159 -20.126   5.143  0.00  0.00    -0.324 NA
ATOM      5  H   LIG    1       26.700 -19.429   4.551  0.00  0.00    +0.119 HD
ATOM      6  H   LIG    1       27.922 -19.625   5.599  0.00  0.00    +0.119 HD
ENDBRANCH   3   4
ENDBRANCH   1   3
BRANCH   1   7
ATOM      7  C   LIG    1       23.623 -20.422   6.227  0.00  0.00    +0.086 C 
BRANCH   7   8
ATOM      8  C   LIG    1       22.478 -20.150   5.256  0.00  0.00    +0.128 C 
BRANCH   8   9
ATOM      9  C   LIG    1       22.651 -18.890   4.442  0.00  0.00    +0.305 C 
ATOM     10  O   LIG    1       22.080 -17.837   4.711  0.00  0.00    -0.251 OA
BRANCH   9  11
ATOM     11  O   LIG    1       23.521 -18.980   3.419  0.00  0.00    -0.481 OA
ATOM     12  H   LIG    1       24.390 -18.537   3.589  0.00  0.00    +0.295 HD
ENDBRANCH   9  11
ENDBRANCH   8   9
ENDBRANCH   7   8
ENDBRANCH   1   7
TORSDOF 6
ENDMDL
MODEL 8
REMARK VINA RESULT:      -3.9      6.797      7.251
REMARK  Name = *****
REMARK                            x       y       z     vdW  Elec       q    Type
REMARK                         _______ _______ _______ _____ _____    ______ ____
ROOT
ATOM      1  C   LIG    1       22.540 -20.272   5.282  0.00  0.00    +0.147 C 
ATOM      2  O   LIG    1       21.789 -21.192   4.934  0.00  0.00    -0.296 OA
ENDROOT
BRANCH   1   3
ATOM      3  C   LIG    1       22.527 -18.938   4.557  0.00  0.00    +0.152 C 
BRANCH   3   4
ATOM      4  N   LIG    1       23.675 -18.849   3.656  0.00  0.00    -0.324 NA
ATOM      5  H   LIG    1       23.346 -18.638   2.710  0.00  0.00    +0.119 HD
ATOM      6  H   LIG    1       24.245 -18.047   3.924  0.00  0.00    +0.119 HD
ENDBRANCH   3   4
ENDBRANCH   1   3
BRANCH   1   7
ATOM      7  C   LIG    1       23.533 -20.457   6.414  0.00  0.00    +0.086 C 
BRANCH   7   8
ATOM      8  C   LIG    1       24.714 -21.337   6.018  0.00  0.00    +0.128 C 
BRANCH   8   9
ATOM      9  C   LIG    1       26.002 -20.575   5.808  0.00  0.00    +0.305 C 
ATOM     10  O   LIG    1       26.764 -20.284   6.725  0.00  0.00    -0.251 OA
BRANCH   9  11
ATOM     11  O   LIG    1       26.291 -20.276   4.528  0.00  0.00    -0.481 OA
ATOM     12  H   LIG    1       25.700 -20.717   3.867  0.00  0.00    +0.295 HD
ENDBRANCH   9  11
ENDBRANCH   8   9
ENDBRANCH   7   8
ENDBRANCH   1   7
TORSDOF 6
ENDMDL
MODEL 9
REMARK VINA RESULT:      -3.9      1.479      1.677
REMARK  Name = *****
REMARK                            x       y       z     vdW  Elec       q    Type
REMARK                         _______ _______ _______ _____ _____    ______ ____
ROOT
ATOM      1  C   LIG    1       24.574 -14.193   3.660  0.00  0.00    +0.147 C 
ATOM      2  O   LIG    1       23.686 -14.591   4.423  0.00  0.00    -0.296 OA
ENDROOT
BRANCH   1   3
ATOM      3  C   LIG    1       24.356 -12.979   2.774  0.00  0.00    +0.152 C 
BRANCH   3   4
ATOM      4  N   LIG    1       23.816 -11.875   3.565  0.00  0.00    -0.324 NA
ATOM      5  H   LIG    1       23.960 -10.996   3.060  0.00  0.00    +0.119 HD
ATOM      6  H   LIG    1       22.803 -11.980   3.632  0.00  0.00    +0.119 HD
ENDBRANCH   3   4
ENDBRANCH   1   3
BRANCH   1   7
ATOM      7  C   LIG    1       25.897 -14.928   3.545  0.00  0.00    +0.086 C 
BRANCH   7   8
ATOM      8  C   LIG    1       26.968 -14.098   2.844  0.00  0.00    +0.128 C 
BRANCH   8   9
ATOM      9  C   LIG    1       27.970 -13.471   3.784  0.00  0.00    +0.305 C 
ATOM     10  O   LIG    1       27.690 -13.131   4.930  0.00  0.00    -0.251 OA
BRANCH   9  11
ATOM     11  O   LIG    1       29.220 -13.353   3.298  0.00  0.00    -0.481 OA
ATOM     12  H   LIG    1       29.260 -13.043   2.358  0.00  0.00    +0.295 HD
ENDBRANCH   9  11
ENDBRANCH   8   9
ENDBRANCH   7   8
ENDBRANCH   1   7
TORSDOF 6
ENDMDL
