MODEL 1
REMARK VINA RESULT:      -7.1      0.000      0.000
REMARK  Name = *****
REMARK                            x       y       z     vdW  Elec       q    Type
REMARK                         _______ _______ _______ _____ _____    ______ ____
ROOT
ATOM      1  C   LIG    1       29.244 -20.921   6.576  0.00  0.00    +0.399 C 
ENDROOT
BRANCH   1   2
ATOM      2  C   LIG    1       30.082 -19.997   7.403  0.00  0.00    +0.075 A 
ATOM      3  C   LIG    1       31.024 -20.436   8.303  0.00  0.00    +0.129 A 
ATOM      4  N   LIG    1       31.657 -19.625   9.156  0.00  0.00    -0.218 NA
ATOM      5  C   LIG    1       31.375 -18.311   9.080  0.00  0.00    +0.128 A 
ATOM      6  C   LIG    1       32.029 -17.392  10.066  0.00  0.00    +0.088 C 
ATOM      7  N   LIG    1       30.510 -17.778   8.207  0.00  0.00    -0.240 NA
ATOM      8  C   LIG    1       29.882 -18.630   7.380  0.00  0.00    +0.126 A 
BRANCH   3   9
ATOM      9  N   LIG    1       31.385 -21.783   8.399  0.00  0.00    -0.343 N 
ATOM     10  H   LIG    1       32.371 -21.879   8.635  0.00  0.00    +0.144 HD
ATOM     11  H   LIG    1       30.858 -22.149   9.198  0.00  0.00    +0.144 HD
ENDBRANCH   3   9
ENDBRANCH   1   2
BRANCH   1  14
ATOM     12  C   LIG    1       26.857 -19.827   5.116  0.00  0.00    +0.122 C 
ATOM     13  C   LIG    1       26.729 -20.535   6.416  0.00  0.00    +0.192 A 
ATOM     14  N   LIG    1       27.863 -20.974   7.098  0.00  0.00    -0.190 N 
ATOM     15  C   LIG    1       27.617 -21.518   8.282  0.00  0.00    +0.357 A 
ATOM     16  S   LIG    1       25.942 -21.574   8.607  0.00  0.00    -0.027 S 
ATOM     17  C   LIG    1       25.561 -20.854   7.095  0.00  0.00    +0.064 A 
BRANCH  17  18
ATOM     18  C   LIG    1       24.119 -20.617   6.712  0.00  0.00    +0.076 C 
BRANCH  18  19
ATOM     19  C   LIG    1       23.392 -21.889   6.265  0.00  0.00    +0.161 C 
BRANCH  19  20
ATOM     20  O   LIG    1       24.064 -22.498   5.167  0.00  0.00    -0.395 OA
ATOM     21  H   LIG    1       24.978 -22.678   5.455  0.00  0.00    +0.209 HD
ENDBRANCH  19  20
ENDBRANCH  18  19
ENDBRANCH  17  18
ENDBRANCH   1  14
TORSDOF 6
ENDMDL
MODEL 2
REMARK VINA RESULT:      -6.7      3.912      7.212
REMARK  Name = *****
REMARK                            x       y       z     vdW  Elec       q    Type
REMARK                         _______ _______ _______ _____ _____    ______ ____
ROOT
ATOM      1  C   LIG    1       24.689 -22.156   7.511  0.00  0.00    +0.399 C 
ENDROOT
BRANCH   1   2
ATOM      2  C   LIG    1       24.703 -23.545   6.954  0.00  0.00    +0.075 A 
ATOM      3  C   LIG    1       23.562 -24.234   6.618  0.00  0.00    +0.129 A 
ATOM      4  N   LIG    1       23.560 -25.525   6.274  0.00  0.00    -0.218 NA
ATOM      5  C   LIG    1       24.751 -26.150   6.218  0.00  0.00    +0.128 A 
ATOM      6  C   LIG    1       24.766 -27.612   5.892  0.00  0.00    +0.088 C 
ATOM      7  N   LIG    1       25.923 -25.555   6.479  0.00  0.00    -0.240 NA
ATOM      8  C   LIG    1       25.879 -24.261   6.839  0.00  0.00    +0.126 A 
BRANCH   3   9
ATOM      9  N   LIG    1       22.302 -23.627   6.620  0.00  0.00    -0.343 N 
ATOM     10  H   LIG    1       22.008 -23.406   7.569  0.00  0.00    +0.144 HD
ATOM     11  H   LIG    1       22.433 -22.731   6.140  0.00  0.00    +0.144 HD
ENDBRANCH   3   9
ENDBRANCH   1   2
BRANCH   1  14
ATOM     12  C   LIG    1       27.251 -20.744   8.196  0.00  0.00    +0.122 C 
ATOM     13  C   LIG    1       26.609 -20.609   6.863  0.00  0.00    +0.192 A 
ATOM     14  N   LIG    1       25.387 -21.227   6.599  0.00  0.00    -0.190 N 
ATOM     15  C   LIG    1       24.884 -20.962   5.401  0.00  0.00    +0.357 A 
ATOM     16  S   LIG    1       25.929 -19.967   4.491  0.00  0.00    -0.027 S 
ATOM     17  C   LIG    1       27.087 -19.916   5.759  0.00  0.00    +0.064 A 
BRANCH  17  18
ATOM     18  C   LIG    1       28.374 -19.147   5.579  0.00  0.00    +0.076 C 
BRANCH  18  19
ATOM     19  C   LIG    1       29.552 -19.742   6.358  0.00  0.00    +0.161 C 
BRANCH  19  20
ATOM     20  O   LIG    1       30.678 -18.872   6.317  0.00  0.00    -0.395 OA
ATOM     21  H   LIG    1       30.416 -18.043   6.760  0.00  0.00    +0.209 HD
ENDBRANCH  19  20
ENDBRANCH  18  19
ENDBRANCH  17  18
ENDBRANCH   1  14
TORSDOF 6
ENDMDL
MODEL 3
REMARK VINA RESULT:      -6.7      1.355      1.701
REMARK  Name = *****
REMARK                            x       y       z     vdW  Elec       q    Type
REMARK                         _______ _______ _______ _____ _____    ______ ____
ROOT
ATOM      1  C   LIG    1       29.035 -21.411   7.959  0.00  0.00    +0.399 C 
ENDROOT
BRANCH   1   2
ATOM      2  C   LIG    1       29.950 -20.268   8.268  0.00  0.00    +0.075 A 
ATOM      3  C   LIG    1       31.258 -20.434   8.659  0.00  0.00    +0.129 A 
ATOM      4  N   LIG    1       32.027 -19.429   9.089  0.00  0.00    -0.218 NA
ATOM      5  C   LIG    1       31.487 -18.196   9.089  0.00  0.00    +0.128 A 
ATOM      6  C   LIG    1       32.312 -17.065   9.622  0.00  0.00    +0.088 C 
ATOM      7  N   LIG    1       30.241 -17.923   8.682  0.00  0.00    -0.240 NA
ATOM      8  C   LIG    1       29.495 -18.964   8.274  0.00  0.00    +0.126 A 
BRANCH   3   9
ATOM      9  N   LIG    1       31.883 -21.684   8.643  0.00  0.00    -0.343 N 
ATOM     10  H   LIG    1       32.413 -21.814   7.783  0.00  0.00    +0.144 HD
ATOM     11  H   LIG    1       32.567 -21.654   9.404  0.00  0.00    +0.144 HD
ENDBRANCH   3   9
ENDBRANCH   1   2
BRANCH   1  14
ATOM     12  C   LIG    1       26.133 -22.151   8.206  0.00  0.00    +0.122 C 
ATOM     13  C   LIG    1       26.631 -21.266   7.121  0.00  0.00    +0.192 A 
ATOM     14  N   LIG    1       27.994 -20.994   6.998  0.00  0.00    -0.190 N 
ATOM     15  C   LIG    1       28.315 -20.257   5.943  0.00  0.00    +0.357 A 
ATOM     16  S   LIG    1       26.930 -19.800   5.056  0.00  0.00    -0.027 S 
ATOM     17  C   LIG    1       25.884 -20.615   6.149  0.00  0.00    +0.064 A 
BRANCH  17  18
ATOM     18  C   LIG    1       24.390 -20.587   5.930  0.00  0.00    +0.076 C 
BRANCH  18  19
ATOM     19  C   LIG    1       23.952 -21.282   4.637  0.00  0.00    +0.161 C 
BRANCH  19  20
ATOM     20  O   LIG    1       24.566 -22.561   4.515  0.00  0.00    -0.395 OA
ATOM     21  H   LIG    1       24.922 -22.792   5.394  0.00  0.00    +0.209 HD
ENDBRANCH  19  20
ENDBRANCH  18  19
ENDBRANCH  17  18
ENDBRANCH   1  14
TORSDOF 6
ENDMDL
MODEL 4
REMARK VINA RESULT:      -6.6      1.034      1.732
REMARK  Name = *****
REMARK                            x       y       z     vdW  Elec       q    Type
REMARK                         _______ _______ _______ _____ _____    ______ ____
ROOT
ATOM      1  C   LIG    1       28.748 -20.978   6.482  0.00  0.00    +0.399 C 
ENDROOT
BRANCH   1   2
ATOM      2  C   LIG    1       29.571 -20.014   7.277  0.00  0.00    +0.075 A 
ATOM      3  C   LIG    1       29.938 -18.774   6.811  0.00  0.00    +0.129 A 
ATOM      4  N   LIG    1       30.802 -17.978   7.447  0.00  0.00    -0.218 NA
ATOM      5  C   LIG    1       31.291 -18.414   8.623  0.00  0.00    +0.128 A 
ATOM      6  C   LIG    1       32.306 -17.565   9.324  0.00  0.00    +0.088 C 
ATOM      7  N   LIG    1       30.959 -19.584   9.185  0.00  0.00    -0.240 NA
ATOM      8  C   LIG    1       30.101 -20.362   8.504  0.00  0.00    +0.126 A 
BRANCH   3   9
ATOM      9  N   LIG    1       29.432 -18.252   5.616  0.00  0.00    -0.343 N 
ATOM     10  H   LIG    1       28.416 -18.311   5.595  0.00  0.00    +0.144 HD
ATOM     11  H   LIG    1       29.665 -17.255   5.636  0.00  0.00    +0.144 HD
ENDBRANCH   3   9
ENDBRANCH   1   2
BRANCH   1  14
ATOM     12  C   LIG    1       26.370 -19.890   5.002  0.00  0.00    +0.122 C 
ATOM     13  C   LIG    1       26.234 -20.588   6.307  0.00  0.00    +0.192 A 
ATOM     14  N   LIG    1       27.364 -21.024   6.998  0.00  0.00    -0.190 N 
ATOM     15  C   LIG    1       27.111 -21.559   8.185  0.00  0.00    +0.357 A 
ATOM     16  S   LIG    1       25.435 -21.609   8.503  0.00  0.00    -0.027 S 
ATOM     17  C   LIG    1       25.062 -20.899   6.983  0.00  0.00    +0.064 A 
BRANCH  17  18
ATOM     18  C   LIG    1       23.623 -20.661   6.592  0.00  0.00    +0.076 C 
BRANCH  18  19
ATOM     19  C   LIG    1       22.946 -21.895   5.985  0.00  0.00    +0.161 C 
BRANCH  19  20
ATOM     20  O   LIG    1       22.021 -21.519   4.971  0.00  0.00    -0.395 OA
ATOM     21  H   LIG    1       21.374 -20.916   5.383  0.00  0.00    +0.209 HD
ENDBRANCH  19  20
ENDBRANCH  18  19
ENDBRANCH  17  18
ENDBRANCH   1  14
TORSDOF 6
ENDMDL
MODEL 5
REMARK VINA RESULT:      -6.4      4.877      7.023
REMARK  Name = *****
REMARK                            x       y       z     vdW  Elec       q    Type
REMARK                         _______ _______ _______ _____ _____    ______ ____
ROOT
ATOM      1  C   LIG    1       24.422 -21.739   7.399  0.00  0.00    +0.399 C 
ENDROOT
BRANCH   1   2
ATOM      2  C   LIG    1       24.576 -23.155   6.939  0.00  0.00    +0.075 A 
ATOM      3  C   LIG    1       23.509 -23.986   6.690  0.00  0.00    +0.129 A 
ATOM      4  N   LIG    1       23.640 -25.291   6.436  0.00  0.00    -0.218 NA
ATOM      5  C   LIG    1       24.891 -25.785   6.381  0.00  0.00    +0.128 A 
ATOM      6  C   LIG    1       25.060 -27.256   6.156  0.00  0.00    +0.088 C 
ATOM      7  N   LIG    1       25.997 -25.050   6.560  0.00  0.00    -0.240 NA
ATOM      8  C   LIG    1       25.820 -23.745   6.832  0.00  0.00    +0.126 A 
BRANCH   3   9
ATOM      9  N   LIG    1       22.190 -23.520   6.695  0.00  0.00    -0.343 N 
ATOM     10  H   LIG    1       21.540 -24.275   6.905  0.00  0.00    +0.144 HD
ATOM     11  H   LIG    1       22.138 -22.864   7.480  0.00  0.00    +0.144 HD
ENDBRANCH   3   9
ENDBRANCH   1   2
BRANCH   1  14
ATOM     12  C   LIG    1       26.561 -20.579   5.635  0.00  0.00    +0.122 C 
ATOM     13  C   LIG    1       25.115 -20.350   5.377  0.00  0.00    +0.192 A 
ATOM     14  N   LIG    1       24.151 -20.849   6.252  0.00  0.00    -0.190 N 
ATOM     15  C   LIG    1       22.906 -20.507   5.952  0.00  0.00    +0.357 A 
ATOM     16  S   LIG    1       22.840 -19.582   4.519  0.00  0.00    -0.027 S 
ATOM     17  C   LIG    1       24.544 -19.670   4.310  0.00  0.00    +0.064 A 
BRANCH  17  18
ATOM     18  C   LIG    1       25.195 -19.012   3.116  0.00  0.00    +0.076 C 
BRANCH  18  19
ATOM     19  C   LIG    1       25.761 -17.622   3.423  0.00  0.00    +0.161 C 
BRANCH  19  20
ATOM     20  O   LIG    1       27.146 -17.698   3.744  0.00  0.00    -0.395 OA
ATOM     21  H   LIG    1       27.636 -17.320   2.990  0.00  0.00    +0.209 HD
ENDBRANCH  19  20
ENDBRANCH  18  19
ENDBRANCH  17  18
ENDBRANCH   1  14
TORSDOF 6
ENDMDL
MODEL 6
REMARK VINA RESULT:      -6.4      2.958      4.588
REMARK  Name = *****
REMARK                            x       y       z     vdW  Elec       q    Type
REMARK                         _______ _______ _______ _____ _____    ______ ____
ROOT
ATOM      1  C   LIG    1       24.948 -21.302   7.149  0.00  0.00    +0.399 C 
ENDROOT
BRANCH   1   2
ATOM      2  C   LIG    1       26.277 -20.626   7.027  0.00  0.00    +0.075 A 
ATOM      3  C   LIG    1       26.826 -20.254   5.822  0.00  0.00    +0.129 A 
ATOM      4  N   LIG    1       28.076 -19.799   5.696  0.00  0.00    -0.218 NA
ATOM      5  C   LIG    1       28.799 -19.664   6.823  0.00  0.00    +0.128 A 
ATOM      6  C   LIG    1       30.222 -19.211   6.698  0.00  0.00    +0.088 C 
ATOM      7  N   LIG    1       28.341 -19.951   8.048  0.00  0.00    -0.240 NA
ATOM      8  C   LIG    1       27.085 -20.423   8.129  0.00  0.00    +0.126 A 
BRANCH   3   9
ATOM      9  N   LIG    1       26.109 -20.336   4.625  0.00  0.00    -0.343 N 
ATOM     10  H   LIG    1       26.339 -19.558   4.010  0.00  0.00    +0.144 HD
ATOM     11  H   LIG    1       26.451 -21.184   4.162  0.00  0.00    +0.144 HD
ENDBRANCH   3   9
ENDBRANCH   1   2
BRANCH   1  14
ATOM     12  C   LIG    1       22.633 -23.143   6.620  0.00  0.00    +0.122 C 
ATOM     13  C   LIG    1       24.039 -23.624   6.615  0.00  0.00    +0.192 A 
ATOM     14  N   LIG    1       25.085 -22.756   6.928  0.00  0.00    -0.190 N 
ATOM     15  C   LIG    1       26.281 -23.327   6.966  0.00  0.00    +0.357 A 
ATOM     16  S   LIG    1       26.196 -24.982   6.557  0.00  0.00    -0.027 S 
ATOM     17  C   LIG    1       24.497 -24.899   6.314  0.00  0.00    +0.064 A 
BRANCH  17  18
ATOM     18  C   LIG    1       23.733 -26.129   5.884  0.00  0.00    +0.076 C 
BRANCH  18  19
ATOM     19  C   LIG    1       24.553 -27.419   5.984  0.00  0.00    +0.161 C 
BRANCH  19  20
ATOM     20  O   LIG    1       23.796 -28.538   5.534  0.00  0.00    -0.395 OA
ATOM     21  H   LIG    1       23.792 -28.508   4.559  0.00  0.00    +0.209 HD
ENDBRANCH  19  20
ENDBRANCH  18  19
ENDBRANCH  17  18
ENDBRANCH   1  14
TORSDOF 6
ENDMDL
MODEL 7
REMARK VINA RESULT:      -6.3      3.405      6.780
REMARK  Name = *****
REMARK                            x       y       z     vdW  Elec       q    Type
REMARK                         _______ _______ _______ _____ _____    ______ ____
ROOT
ATOM      1  C   LIG    1       27.366 -21.642   6.952  0.00  0.00    +0.399 C 
ENDROOT
BRANCH   1   2
ATOM      2  C   LIG    1       26.029 -21.172   6.471  0.00  0.00    +0.075 A 
ATOM      3  C   LIG    1       25.000 -20.832   7.319  0.00  0.00    +0.129 A 
ATOM      4  N   LIG    1       23.761 -20.568   6.897  0.00  0.00    -0.218 NA
ATOM      5  C   LIG    1       23.542 -20.598   5.569  0.00  0.00    +0.128 A 
ATOM      6  C   LIG    1       22.146 -20.363   5.078  0.00  0.00    +0.088 C 
ATOM      7  N   LIG    1       24.487 -20.870   4.659  0.00  0.00    -0.240 NA
ATOM      8  C   LIG    1       25.716 -21.148   5.126  0.00  0.00    +0.126 A 
BRANCH   3   9
ATOM      9  N   LIG    1       25.179 -20.747   8.703  0.00  0.00    -0.343 N 
ATOM     10  H   LIG    1       25.040 -21.654   9.143  0.00  0.00    +0.144 HD
ATOM     11  H   LIG    1       26.166 -20.507   8.834  0.00  0.00    +0.144 HD
ENDBRANCH   3   9
ENDBRANCH   1   2
BRANCH   1  14
ATOM     12  C   LIG    1       29.843 -21.442   8.640  0.00  0.00    +0.122 C 
ATOM     13  C   LIG    1       29.561 -20.484   7.539  0.00  0.00    +0.192 A 
ATOM     14  N   LIG    1       28.370 -20.568   6.817  0.00  0.00    -0.190 N 
ATOM     15  C   LIG    1       28.205 -19.608   5.917  0.00  0.00    +0.357 A 
ATOM     16  S   LIG    1       29.552 -18.561   5.866  0.00  0.00    -0.027 S 
ATOM     17  C   LIG    1       30.370 -19.452   7.086  0.00  0.00    +0.064 A 
BRANCH  17  18
ATOM     18  C   LIG    1       31.747 -19.028   7.538  0.00  0.00    +0.076 C 
BRANCH  18  19
ATOM     19  C   LIG    1       31.727 -18.096   8.754  0.00  0.00    +0.161 C 
BRANCH  19  20
ATOM     20  O   LIG    1       32.410 -16.879   8.472  0.00  0.00    -0.395 OA
ATOM     21  H   LIG    1       32.200 -16.259   9.196  0.00  0.00    +0.209 HD
ENDBRANCH  19  20
ENDBRANCH  18  19
ENDBRANCH  17  18
ENDBRANCH   1  14
TORSDOF 6
ENDMDL
MODEL 8
REMARK VINA RESULT:      -6.2      3.650      6.955
REMARK  Name = *****
REMARK                            x       y       z     vdW  Elec       q    Type
REMARK                         _______ _______ _______ _____ _____    ______ ____
ROOT
ATOM      1  C   LIG    1       26.047 -21.319   5.918  0.00  0.00    +0.399 C 
ENDROOT
BRANCH   1   2
ATOM      2  C   LIG    1       24.887 -20.480   5.483  0.00  0.00    +0.075 A 
ATOM      3  C   LIG    1       23.712 -20.394   6.191  0.00  0.00    +0.129 A 
ATOM      4  N   LIG    1       22.620 -19.778   5.727  0.00  0.00    -0.218 NA
ATOM      5  C   LIG    1       22.714 -19.181   4.525  0.00  0.00    +0.128 A 
ATOM      6  C   LIG    1       21.486 -18.535   3.960  0.00  0.00    +0.088 C 
ATOM      7  N   LIG    1       23.827 -19.166   3.779  0.00  0.00    -0.240 NA
ATOM      8  C   LIG    1       24.897 -19.812   4.274  0.00  0.00    +0.126 A 
BRANCH   3   9
ATOM      9  N   LIG    1       23.568 -20.962   7.461  0.00  0.00    -0.343 N 
ATOM     10  H   LIG    1       24.147 -20.476   8.143  0.00  0.00    +0.144 HD
ATOM     11  H   LIG    1       22.595 -20.786   7.727  0.00  0.00    +0.144 HD
ENDBRANCH   3   9
ENDBRANCH   1   2
BRANCH   1  14
ATOM     12  C   LIG    1       26.886 -20.676   8.732  0.00  0.00    +0.122 C 
ATOM     13  C   LIG    1       27.656 -20.203   7.552  0.00  0.00    +0.192 A 
ATOM     14  N   LIG    1       27.203 -20.465   6.259  0.00  0.00    -0.190 N 
ATOM     15  C   LIG    1       27.937 -19.920   5.298  0.00  0.00    +0.357 A 
ATOM     16  S   LIG    1       29.283 -19.086   5.937  0.00  0.00    -0.027 S 
ATOM     17  C   LIG    1       28.850 -19.496   7.549  0.00  0.00    +0.064 A 
BRANCH  17  18
ATOM     18  C   LIG    1       29.712 -19.040   8.702  0.00  0.00    +0.076 C 
BRANCH  18  19
ATOM     19  C   LIG    1       31.188 -18.869   8.327  0.00  0.00    +0.161 C 
BRANCH  19  20
ATOM     20  O   LIG    1       32.026 -19.591   9.222  0.00  0.00    -0.395 OA
ATOM     21  H   LIG    1       32.463 -18.936   9.798  0.00  0.00    +0.209 HD
ENDBRANCH  19  20
ENDBRANCH  18  19
ENDBRANCH  17  18
ENDBRANCH   1  14
TORSDOF 6
ENDMDL
MODEL 9
REMARK VINA RESULT:      -6.2      3.685      6.916
REMARK  Name = *****
REMARK                            x       y       z     vdW  Elec       q    Type
REMARK                         _______ _______ _______ _____ _____    ______ ____
ROOT
ATOM      1  C   LIG    1       25.192 -21.149   6.565  0.00  0.00    +0.399 C 
ENDROOT
BRANCH   1   2
ATOM      2  C   LIG    1       25.330 -22.610   6.269  0.00  0.00    +0.075 A 
ATOM      3  C   LIG    1       24.866 -23.191   5.113  0.00  0.00    +0.129 A 
ATOM      4  N   LIG    1       24.843 -24.513   4.916  0.00  0.00    -0.218 NA
ATOM      5  C   LIG    1       25.344 -25.290   5.893  0.00  0.00    +0.128 A 
ATOM      6  C   LIG    1       25.273 -26.776   5.719  0.00  0.00    +0.088 C 
ATOM      7  N   LIG    1       25.862 -24.820   7.035  0.00  0.00    -0.240 NA
ATOM      8  C   LIG    1       25.850 -23.486   7.201  0.00  0.00    +0.126 A 
BRANCH   3   9
ATOM      9  N   LIG    1       24.371 -22.432   4.048  0.00  0.00    -0.343 N 
ATOM     10  H   LIG    1       24.221 -23.013   3.226  0.00  0.00    +0.144 HD
ATOM     11  H   LIG    1       23.446 -22.113   4.351  0.00  0.00    +0.144 HD
ENDBRANCH   3   9
ENDBRANCH   1   2
BRANCH   1  14
ATOM     12  C   LIG    1       26.629 -20.388   9.091  0.00  0.00    +0.122 C 
ATOM     13  C   LIG    1       27.239 -20.196   7.749  0.00  0.00    +0.192 A 
ATOM     14  N   LIG    1       26.518 -20.501   6.594  0.00  0.00    -0.190 N 
ATOM     15  C   LIG    1       27.145 -20.209   5.463  0.00  0.00    +0.357 A 
ATOM     16  S   LIG    1       28.706 -19.585   5.756  0.00  0.00    -0.027 S 
ATOM     17  C   LIG    1       28.515 -19.734   7.457  0.00  0.00    +0.064 A 
BRANCH  17  18
ATOM     18  C   LIG    1       29.638 -19.333   8.383  0.00  0.00    +0.076 C 
BRANCH  18  19
ATOM     19  C   LIG    1       30.778 -20.356   8.432  0.00  0.00    +0.161 C 
BRANCH  19  20
ATOM     20  O   LIG    1       31.899 -19.833   9.138  0.00  0.00    -0.395 OA
ATOM     21  H   LIG    1       32.682 -19.969   8.573  0.00  0.00    +0.209 HD
ENDBRANCH  19  20
ENDBRANCH  18  19
ENDBRANCH  17  18
ENDBRANCH   1  14
TORSDOF 6
ENDMDL
