MODEL 1
REMARK VINA RESULT:      -4.2      0.000      0.000
REMARK  Name = *****
REMARK                            x       y       z     vdW  Elec       q    Type
REMARK                         _______ _______ _______ _____ _____    ______ ____
ROOT
ATOM      1  P   LIG    1       24.835 -19.735   4.185  0.00  0.00    +0.516 P 
ATOM      2  F   LIG    1       25.827 -18.626   3.603  0.00  0.00    -0.133 F 
ATOM      3  O   LIG    1       24.732 -20.798   3.082  0.00  0.00    -0.223 OA
ENDROOT
BRANCH   1   4
ATOM      4  O   LIG    1       23.486 -18.915   3.476  0.00  0.00    -0.281 OA
BRANCH   4   6
ATOM      5  C   LIG    1       22.545 -19.672   5.521  0.00  0.00    +0.038 C 
ATOM      6  C   LIG    1       22.340 -18.773   4.306  0.00  0.00    +0.124 C 
ATOM      7  C   LIG    1       22.160 -17.323   4.744  0.00  0.00    +0.038 C 
ENDBRANCH   4   6
ENDBRANCH   1   4
BRANCH   1   8
ATOM      8  O   LIG    1       26.183 -20.555   4.894  0.00  0.00    -0.281 OA
BRANCH   8   9
ATOM      9  C   LIG    1       26.284 -20.394   6.316  0.00  0.00    +0.124 C 
ATOM     10  C   LIG    1       27.744 -20.310   6.749  0.00  0.00    +0.038 C 
ATOM     11  C   LIG    1       25.589 -21.571   6.986  0.00  0.00    +0.038 C 
ENDBRANCH   8   9
ENDBRANCH   1   8
TORSDOF 4
ENDMDL
MODEL 2
REMARK VINA RESULT:      -4.2      1.043      4.253
REMARK  Name = *****
REMARK                            x       y       z     vdW  Elec       q    Type
REMARK                         _______ _______ _______ _____ _____    ______ ____
ROOT
ATOM      1  P   LIG    1       24.840 -19.681   4.143  0.00  0.00    +0.516 P 
ATOM      2  F   LIG    1       24.703 -20.885   3.100  0.00  0.00    -0.133 F 
ATOM      3  O   LIG    1       25.771 -18.668   3.463  0.00  0.00    -0.223 OA
ENDROOT
BRANCH   1   4
ATOM      4  O   LIG    1       26.228 -20.436   4.847  0.00  0.00    -0.281 OA
BRANCH   4   6
ATOM      5  C   LIG    1       25.655 -21.572   6.852  0.00  0.00    +0.038 C 
ATOM      6  C   LIG    1       26.336 -20.342   6.262  0.00  0.00    +0.124 C 
ATOM      7  C   LIG    1       27.798 -20.286   6.695  0.00  0.00    +0.038 C 
ENDBRANCH   4   6
ENDBRANCH   1   4
BRANCH   1   8
ATOM      8  O   LIG    1       23.452 -18.926   3.440  0.00  0.00    -0.281 OA
BRANCH   8   9
ATOM      9  C   LIG    1       22.331 -18.818   4.329  0.00  0.00    +0.124 C 
ATOM     10  C   LIG    1       22.112 -17.369   4.752  0.00  0.00    +0.038 C 
ATOM     11  C   LIG    1       22.590 -19.701   5.541  0.00  0.00    +0.038 C 
ENDBRANCH   8   9
ENDBRANCH   1   8
TORSDOF 4
ENDMDL
MODEL 3
REMARK VINA RESULT:      -4.1      1.974      2.379
REMARK  Name = *****
REMARK                            x       y       z     vdW  Elec       q    Type
REMARK                         _______ _______ _______ _____ _____    ______ ____
ROOT
ATOM      1  P   LIG    1       24.667 -20.668   5.893  0.00  0.00    +0.516 P 
ATOM      2  F   LIG    1       24.557 -21.535   4.554  0.00  0.00    -0.133 F 
ATOM      3  O   LIG    1       23.898 -21.470   6.952  0.00  0.00    -0.223 OA
ENDROOT
BRANCH   1   4
ATOM      4  O   LIG    1       23.198 -19.846   5.494  0.00  0.00    -0.281 OA
BRANCH   4   6
ATOM      5  C   LIG    1       21.842 -18.523   4.062  0.00  0.00    +0.038 C 
ATOM      6  C   LIG    1       23.071 -19.423   4.142  0.00  0.00    +0.124 C 
ATOM      7  C   LIG    1       24.314 -18.665   3.688  0.00  0.00    +0.038 C 
ENDBRANCH   4   6
ENDBRANCH   1   4
BRANCH   1   8
ATOM      8  O   LIG    1       26.136 -21.490   6.291  0.00  0.00    -0.281 OA
BRANCH   8   9
ATOM      9  C   LIG    1       27.218 -20.616   6.645  0.00  0.00    +0.124 C 
ATOM     10  C   LIG    1       27.585 -19.708   5.476  0.00  0.00    +0.038 C 
ATOM     11  C   LIG    1       28.410 -21.468   7.062  0.00  0.00    +0.038 C 
ENDBRANCH   8   9
ENDBRANCH   1   8
TORSDOF 4
ENDMDL
MODEL 4
REMARK VINA RESULT:      -4.1      6.349      7.637
REMARK  Name = *****
REMARK                            x       y       z     vdW  Elec       q    Type
REMARK                         _______ _______ _______ _____ _____    ______ ____
ROOT
ATOM      1  P   LIG    1       25.701 -14.263   3.289  0.00  0.00    +0.516 P 
ATOM      2  F   LIG    1       25.147 -15.729   3.604  0.00  0.00    -0.133 F 
ATOM      3  O   LIG    1       26.124 -14.305   1.814  0.00  0.00    -0.223 OA
ENDROOT
BRANCH   1   4
ATOM      4  O   LIG    1       27.299 -14.762   3.727  0.00  0.00    -0.281 OA
BRANCH   4   6
ATOM      5  C   LIG    1       28.676 -12.834   3.893  0.00  0.00    +0.038 C 
ATOM      6  C   LIG    1       27.969 -13.938   4.674  0.00  0.00    +0.124 C 
ATOM      7  C   LIG    1       26.982 -13.335   5.668  0.00  0.00    +0.038 C 
ENDBRANCH   4   6
ENDBRANCH   1   4
BRANCH   1   8
ATOM      8  O   LIG    1       24.104 -13.765   2.850  0.00  0.00    -0.281 OA
BRANCH   8   9
ATOM      9  C   LIG    1       23.840 -12.374   3.084  0.00  0.00    +0.124 C 
ATOM     10  C   LIG    1       24.707 -11.499   2.183  0.00  0.00    +0.038 C 
ATOM     11  C   LIG    1       24.110 -12.072   4.551  0.00  0.00    +0.038 C 
ENDBRANCH   8   9
ENDBRANCH   1   8
TORSDOF 4
ENDMDL
MODEL 5
REMARK VINA RESULT:      -4.1      6.274      6.903
REMARK  Name = *****
REMARK                            x       y       z     vdW  Elec       q    Type
REMARK                         _______ _______ _______ _____ _____    ______ ____
ROOT
ATOM      1  P   LIG    1       26.379 -13.523   2.995  0.00  0.00    +0.516 P 
ATOM      2  F   LIG    1       26.957 -12.118   2.496  0.00  0.00    -0.133 F 
ATOM      3  O   LIG    1       26.582 -14.481   1.812  0.00  0.00    -0.223 OA
ENDROOT
BRANCH   1   4
ATOM      4  O   LIG    1       24.821 -13.119   2.360  0.00  0.00    -0.281 OA
BRANCH   4   6
ATOM      5  C   LIG    1       23.854 -14.463   4.062  0.00  0.00    +0.038 C 
ATOM      6  C   LIG    1       23.744 -13.153   3.288  0.00  0.00    +0.124 C 
ATOM      7  C   LIG    1       23.810 -11.966   4.243  0.00  0.00    +0.038 C 
ENDBRANCH   4   6
ENDBRANCH   1   4
BRANCH   1   8
ATOM      8  O   LIG    1       27.937 -13.927   3.630  0.00  0.00    -0.281 OA
BRANCH   8   9
ATOM      9  C   LIG    1       28.170 -13.442   4.960  0.00  0.00    +0.124 C 
ATOM     10  C   LIG    1       26.859 -13.324   5.731  0.00  0.00    +0.038 C 
ATOM     11  C   LIG    1       28.864 -12.090   4.866  0.00  0.00    +0.038 C 
ENDBRANCH   8   9
ENDBRANCH   1   8
TORSDOF 4
ENDMDL
MODEL 6
REMARK VINA RESULT:      -3.9      2.100      4.788
REMARK  Name = *****
REMARK                            x       y       z     vdW  Elec       q    Type
REMARK                         _______ _______ _______ _____ _____    ______ ____
ROOT
ATOM      1  P   LIG    1       25.324 -20.468   5.781  0.00  0.00    +0.516 P 
ATOM      2  F   LIG    1       25.282 -21.428   7.058  0.00  0.00    -0.133 F 
ATOM      3  O   LIG    1       25.008 -21.379   4.586  0.00  0.00    -0.223 OA
ENDROOT
BRANCH   1   4
ATOM      4  O   LIG    1       27.004 -20.816   5.561  0.00  0.00    -0.281 OA
BRANCH   4   6
ATOM      5  C   LIG    1       28.839 -21.143   7.033  0.00  0.00    +0.038 C 
ATOM      6  C   LIG    1       27.900 -20.113   6.413  0.00  0.00    +0.124 C 
ATOM      7  C   LIG    1       28.696 -19.074   5.629  0.00  0.00    +0.038 C 
ENDBRANCH   4   6
ENDBRANCH   1   4
BRANCH   1   8
ATOM      8  O   LIG    1       23.643 -20.120   6.000  0.00  0.00    -0.281 OA
BRANCH   8   9
ATOM      9  C   LIG    1       22.895 -20.054   4.777  0.00  0.00    +0.124 C 
ATOM     10  C   LIG    1       22.357 -18.645   4.547  0.00  0.00    +0.038 C 
ATOM     11  C   LIG    1       21.756 -21.061   4.854  0.00  0.00    +0.038 C 
ENDBRANCH   8   9
ENDBRANCH   1   8
TORSDOF 4
ENDMDL
MODEL 7
REMARK VINA RESULT:      -3.8      5.684      7.226
REMARK  Name = *****
REMARK                            x       y       z     vdW  Elec       q    Type
REMARK                         _______ _______ _______ _____ _____    ______ ____
ROOT
ATOM      1  P   LIG    1       26.147 -14.435   3.144  0.00  0.00    +0.516 P 
ATOM      2  F   LIG    1       25.860 -16.007   3.081  0.00  0.00    -0.133 F 
ATOM      3  O   LIG    1       26.838 -14.102   1.814  0.00  0.00    -0.223 OA
ENDROOT
BRANCH   1   4
ATOM      4  O   LIG    1       27.702 -14.737   3.839  0.00  0.00    -0.281 OA
BRANCH   4   6
ATOM      5  C   LIG    1       28.806 -12.649   4.082  0.00  0.00    +0.038 C 
ATOM      6  C   LIG    1       28.135 -13.803   4.821  0.00  0.00    +0.124 C 
ATOM      7  C   LIG    1       26.958 -13.293   5.645  0.00  0.00    +0.038 C 
ENDBRANCH   4   6
ENDBRANCH   1   4
BRANCH   1   8
ATOM      8  O   LIG    1       24.592 -14.133   2.448  0.00  0.00    -0.281 OA
BRANCH   8   9
ATOM      9  C   LIG    1       23.639 -13.578   3.365  0.00  0.00    +0.124 C 
ATOM     10  C   LIG    1       24.044 -12.167   3.780  0.00  0.00    +0.038 C 
ATOM     11  C   LIG    1       23.548 -14.493   4.579  0.00  0.00    +0.038 C 
ENDBRANCH   8   9
ENDBRANCH   1   8
TORSDOF 4
ENDMDL
MODEL 8
REMARK VINA RESULT:      -3.8      1.819      4.909
REMARK  Name = *****
REMARK                            x       y       z     vdW  Elec       q    Type
REMARK                         _______ _______ _______ _____ _____    ______ ____
ROOT
ATOM      1  P   LIG    1       25.343 -20.158   5.503  0.00  0.00    +0.516 P 
ATOM      2  F   LIG    1       24.291 -20.299   6.699  0.00  0.00    -0.133 F 
ATOM      3  O   LIG    1       25.473 -21.570   4.917  0.00  0.00    -0.223 OA
ENDROOT
BRANCH   1   4
ATOM      4  O   LIG    1       26.640 -20.522   6.588  0.00  0.00    -0.281 OA
BRANCH   4   6
ATOM      5  C   LIG    1       28.216 -19.131   5.482  0.00  0.00    +0.038 C 
ATOM      6  C   LIG    1       27.943 -20.533   6.016  0.00  0.00    +0.124 C 
ATOM      7  C   LIG    1       28.991 -20.919   7.055  0.00  0.00    +0.038 C 
ENDBRANCH   4   6
ENDBRANCH   1   4
BRANCH   1   8
ATOM      8  O   LIG    1       24.045 -19.793   4.418  0.00  0.00    -0.281 OA
BRANCH   8   9
ATOM      9  C   LIG    1       22.770 -19.647   5.060  0.00  0.00    +0.124 C 
ATOM     10  C   LIG    1       21.883 -20.856   4.784  0.00  0.00    +0.038 C 
ATOM     11  C   LIG    1       22.117 -18.369   4.549  0.00  0.00    +0.038 C 
ENDBRANCH   8   9
ENDBRANCH   1   8
TORSDOF 4
ENDMDL
MODEL 9
REMARK VINA RESULT:      -3.5      2.263      4.744
REMARK  Name = *****
REMARK                            x       y       z     vdW  Elec       q    Type
REMARK                         _______ _______ _______ _____ _____    ______ ____
ROOT
ATOM      1  P   LIG    1       23.266 -20.380   5.506  0.00  0.00    +0.516 P 
ATOM      2  F   LIG    1       23.284 -20.006   7.061  0.00  0.00    -0.133 F 
ATOM      3  O   LIG    1       22.306 -21.572   5.394  0.00  0.00    -0.223 OA
ENDROOT
BRANCH   1   4
ATOM      4  O   LIG    1       24.568 -21.493   5.749  0.00  0.00    -0.281 OA
BRANCH   4   6
ATOM      5  C   LIG    1       25.707 -19.881   4.428  0.00  0.00    +0.038 C 
ATOM      6  C   LIG    1       25.869 -21.001   5.450  0.00  0.00    +0.124 C 
ATOM      7  C   LIG    1       26.556 -20.477   6.707  0.00  0.00    +0.038 C 
ENDBRANCH   4   6
ENDBRANCH   1   4
BRANCH   1   8
ATOM      8  O   LIG    1       21.964 -19.267   5.264  0.00  0.00    -0.281 OA
BRANCH   8   9
ATOM      9  C   LIG    1       22.105 -18.448   4.094  0.00  0.00    +0.124 C 
ATOM     10  C   LIG    1       22.578 -17.046   4.467  0.00  0.00    +0.038 C 
ATOM     11  C   LIG    1       20.761 -18.392   3.380  0.00  0.00    +0.038 C 
ENDBRANCH   8   9
ENDBRANCH   1   8
TORSDOF 4
ENDMDL
