MODEL 1
REMARK VINA RESULT:      25.3      0.000      0.000
REMARK  Name = *****
REMARK                            x       y       z     vdW  Elec       q    Type
REMARK                         _______ _______ _______ _____ _____    ______ ____
ROOT
ATOM      1  C   LIG    1       18.424 -33.432   9.520  0.00  0.00    +0.014 C 
ATOM      2  C   LIG    1       19.854 -32.936   9.773  0.00  0.00    +0.037 C 
ATOM      3  C   LIG    1       20.391 -33.292  11.209  0.00  0.00    +0.127 C 
ATOM      4  C   LIG    1       21.238 -32.256  12.030  0.00  0.00    +0.056 C 
ATOM      5  C   LIG    1       20.418 -31.550  13.122  0.00  0.00    +0.014 C 
ATOM      6  C   LIG    1       22.062 -31.204  11.253  0.00  0.00    +0.179 C 
ATOM      7  C   LIG    1       23.110 -31.820  10.337  0.00  0.00    +0.052 C 
ATOM      8  O   LIG    1       21.150 -30.324  10.565  0.00  0.00    -0.461 OA
ATOM      9  C   LIG    1       21.496 -29.018  10.433  0.00  0.00    +0.310 C 
ATOM     10  O   LIG    1       22.635 -28.575  10.559  0.00  0.00    -0.251 OA
ATOM     11  C   LIG    1       20.267 -28.136  10.302  0.00  0.00    +0.152 C 
ATOM     12  C   LIG    1       19.690 -27.739  11.680  0.00  0.00    +0.128 C 
ATOM     13  C   LIG    1       20.802 -27.511  12.707  0.00  0.00    +0.063 C 
ATOM     14  C   LIG    1       20.423 -27.198  14.149  0.00  0.00    +0.119 C 
ATOM     15  C   LIG    1       21.647 -26.812  15.019  0.00  0.00    +0.062 C 
ATOM     16  C   LIG    1       22.851 -27.792  15.094  0.00  0.00    +0.117 C 
ATOM     17  C   LIG    1       23.619 -27.938  13.773  0.00  0.00    +0.034 C 
ATOM     18  C   LIG    1       25.085 -28.380  13.861  0.00  0.00    +0.036 C 
ATOM     19  C   LIG    1       25.629 -28.730  12.449  0.00  0.00    +0.143 C 
ATOM     20  C   LIG    1       27.150 -29.016  12.465  0.00  0.00    +0.150 C 
ATOM     21  C   LIG    1       27.858 -28.864  11.107  0.00  0.00    +0.108 C 
ATOM     22  C   LIG    1       27.155 -29.623   9.999  0.00  0.00    +0.138 C 
ATOM     23  O   LIG    1       26.690 -30.752  10.197  0.00  0.00    -0.297 OA
ATOM     24  C   LIG    1       27.029 -28.943   8.643  0.00  0.00    +0.106 C 
ATOM     25  C   LIG    1       25.709 -29.293   7.933  0.00  0.00    +0.138 C 
ATOM     26  C   LIG    1       25.232 -28.278   6.852  0.00  0.00    +0.155 C 
ATOM     27  C   LIG    1       25.153 -26.822   7.384  0.00  0.00    +0.134 C 
ATOM     28  C   LIG    1       24.089 -25.858   6.791  0.00  0.00    +0.068 C 
ATOM     29  C   LIG    1       24.551 -24.651   5.938  0.00  0.00    +0.147 C 
ATOM     30  C   LIG    1       24.964 -25.153   4.586  0.00  0.00    +0.004 C 
ATOM     31  C   LIG    1       26.185 -25.543   4.188  0.00  0.00    -0.002 C 
ATOM     32  C   LIG    1       26.249 -26.514   3.112  0.00  0.00    -0.000 C 
ATOM     33  C   LIG    1       26.963 -27.634   3.315  0.00  0.00    +0.000 C 
ATOM     34  C   LIG    1       26.460 -28.903   2.827  0.00  0.00    +0.000 C 
ATOM     35  C   LIG    1       26.682 -30.022   3.535  0.00  0.00    -0.000 C 
ATOM     36  C   LIG    1       25.854 -31.200   3.411  0.00  0.00    -0.004 C 
ATOM     37  C   LIG    1       25.938 -32.219   4.280  0.00  0.00    -0.026 C 
ATOM     38  C   LIG    1       25.009 -33.403   4.274  0.00  0.00    +0.031 C 
ATOM     39  C   LIG    1       24.568 -33.825   5.684  0.00  0.00    +0.031 C 
ATOM     40  C   LIG    1       23.433 -33.033   6.287  0.00  0.00    -0.026 C 
ATOM     41  C   LIG    1       22.463 -33.628   7.002  0.00  0.00    -0.005 C 
ATOM     42  C   LIG    1       21.460 -32.926   7.777  0.00  0.00    -0.004 C 
ATOM     43  C   LIG    1       20.752 -33.571   8.721  0.00  0.00    -0.021 C 
ENDROOT
BRANCH   3  44
ATOM     44  O   LIG    1       19.351 -33.825  12.042  0.00  0.00    -0.391 OA
ATOM     45  H   LIG    1       18.873 -33.071  12.434  0.00  0.00    +0.210 HD
ENDBRANCH   3  44
BRANCH  12  46
ATOM     46  O   LIG    1       18.791 -28.757  12.111  0.00  0.00    -0.391 OA
ATOM     47  H   LIG    1       18.903 -29.525  11.508  0.00  0.00    +0.210 HD
ENDBRANCH  12  46
BRANCH  14  48
ATOM     48  O   LIG    1       19.757 -28.337  14.698  0.00  0.00    -0.392 OA
ATOM     49  H   LIG    1       20.196 -28.525  15.559  0.00  0.00    +0.210 HD
ENDBRANCH  14  48
BRANCH  16  50
ATOM     50  O   LIG    1       22.354 -29.069  15.500  0.00  0.00    -0.392 OA
ATOM     51  H   LIG    1       21.394 -29.072  15.330  0.00  0.00    +0.210 HD
ENDBRANCH  16  50
BRANCH  19  52
ATOM     52  O   LIG    1       25.335 -27.678  11.531  0.00  0.00    -0.389 OA
ATOM     53  H   LIG    1       25.001 -26.919  12.063  0.00  0.00    +0.210 HD
ENDBRANCH  19  52
BRANCH  20  54
ATOM     54  O   LIG    1       27.388 -30.322  13.000  0.00  0.00    -0.389 OA
ATOM     55  H   LIG    1       26.519 -30.767  13.058  0.00  0.00    +0.210 HD
ENDBRANCH  20  54
BRANCH  25  56
ATOM     56  O   LIG    1       24.663 -29.376   8.913  0.00  0.00    -0.391 OA
ATOM     57  H   LIG    1       24.492 -28.453   9.204  0.00  0.00    +0.210 HD
ENDBRANCH  25  56
BRANCH  26  58
ATOM     58  C   LIG    1       23.917 -28.741   6.239  0.00  0.00    +0.313 C 
ATOM     59  O   LIG    1       23.155 -29.526   6.778  0.00  0.00    -0.251 OA
BRANCH  58  60
ATOM     60  O   LIG    1       23.686 -28.291   4.981  0.00  0.00    -0.480 OA
ATOM     61  H   LIG    1       24.385 -27.645   4.701  0.00  0.00    +0.295 HD
ENDBRANCH  58  60
ENDBRANCH  26  58
BRANCH  27  62
ATOM     62  O   LIG    1       26.481 -26.281   7.305  0.00  0.00    -0.391 OA
ATOM     63  H   LIG    1       26.414 -25.311   7.436  0.00  0.00    +0.210 HD
ENDBRANCH  27  62
BRANCH  29  64
ATOM     64  O   LIG    1       25.528 -23.938   6.687  0.00  0.00    -0.341 OA
BRANCH  64  65
ATOM     65  C   LIG    1       26.019 -22.693   6.173  0.00  0.00    +0.281 C 
ATOM     66  C   LIG    1       25.231 -21.408   6.581  0.00  0.00    +0.189 C 
ATOM     67  C   LIG    1       25.665 -20.929   7.980  0.00  0.00    +0.116 C 
ATOM     68  C   LIG    1       27.153 -20.525   7.897  0.00  0.00    +0.162 C 
ATOM     69  C   LIG    1       27.921 -21.339   6.830  0.00  0.00    +0.148 C 
ATOM     70  C   LIG    1       29.386 -21.479   7.238  0.00  0.00    +0.040 C 
ATOM     71  O   LIG    1       27.382 -22.649   6.654  0.00  0.00    -0.343 OA
BRANCH  67  72
ATOM     72  N   LIG    1       25.415 -21.928   9.039  0.00  0.00    -0.323 NA
ATOM     73  H   LIG    1       25.144 -22.808   8.591  0.00  0.00    +0.119 HD
ATOM     74  H   LIG    1       26.308 -22.149   9.495  0.00  0.00    +0.119 HD
ENDBRANCH  67  72
BRANCH  66  75
ATOM     75  O   LIG    1       23.810 -21.500   6.488  0.00  0.00    -0.385 OA
ATOM     76  H   LIG    1       23.473 -20.623   6.235  0.00  0.00    +0.210 HD
ENDBRANCH  66  75
BRANCH  68  77
ATOM     77  O   LIG    1       27.242 -19.135   7.547  0.00  0.00    -0.388 OA
ATOM     78  H   LIG    1       26.366 -18.741   7.713  0.00  0.00    +0.210 HD
ENDBRANCH  68  77
ENDBRANCH  64  65
ENDBRANCH  29  64
TORSDOF 15
ENDMDL
