MODEL 1
REMARK VINA RESULT:      -8.3      0.000      0.000
REMARK  Name = *****
REMARK                            x       y       z     vdW  Elec       q    Type
REMARK                         _______ _______ _______ _____ _____    ______ ____
ROOT
ATOM      1  C   LIG    1       29.993 -18.837   6.723  0.00  0.00    +0.036 C 
ATOM      2  C   LIG    1       29.260 -19.653   7.788  0.00  0.00    +0.140 C 
ENDROOT
BRANCH   2   3
ATOM      3  C   LIG    1       27.853 -20.004   7.345  0.00  0.00    +0.013 A 
ATOM      4  S   LIG    1       27.459 -19.979   5.679  0.00  0.00    -0.091 S 
ATOM      5  C   LIG    1       25.826 -20.441   5.962  0.00  0.00    +0.020 A 
ATOM      6  C   LIG    1       25.580 -20.632   7.323  0.00  0.00    -0.011 A 
ATOM      7  C   LIG    1       24.274 -21.009   7.720  0.00  0.00    +0.009 A 
ATOM      8  C   LIG    1       23.261 -21.170   6.768  0.00  0.00    +0.001 A 
ATOM      9  C   LIG    1       23.531 -20.976   5.420  0.00  0.00    +0.001 A 
ATOM     10  C   LIG    1       24.813 -20.619   4.998  0.00  0.00    +0.015 A 
ATOM     11  C   LIG    1       26.764 -20.395   8.100  0.00  0.00    +0.021 A 
ENDBRANCH   2   3
BRANCH   2  12
ATOM     12  N   LIG    1       29.984 -20.881   8.162  0.00  0.00    -0.160 N 
ATOM     13  C   LIG    1       31.243 -20.874   8.725  0.00  0.00    +0.323 C 
ATOM     14  O   LIG    1       31.784 -19.896   9.224  0.00  0.00    -0.251 OA
ATOM     15  N   LIG    1       31.850 -22.097   8.743  0.00  0.00    -0.312 N 
ATOM     16  H   LIG    1       32.808 -22.099   9.053  0.00  0.00    +0.146 HD
ATOM     17  H   LIG    1       31.605 -22.703   7.974  0.00  0.00    +0.146 HD
BRANCH  12  18
ATOM     18  O   LIG    1       29.642 -22.030   7.401  0.00  0.00    -0.291 OA
ATOM     19  H   LIG    1       29.732 -21.663   6.500  0.00  0.00    +0.242 HD
ENDBRANCH  12  18
ENDBRANCH   2  12
TORSDOF 3
ENDMDL
MODEL 2
REMARK VINA RESULT:      -7.7      1.715      2.123
REMARK  Name = *****
REMARK                            x       y       z     vdW  Elec       q    Type
REMARK                         _______ _______ _______ _____ _____    ______ ____
ROOT
ATOM      1  C   LIG    1       30.355 -21.375   8.728  0.00  0.00    +0.036 C 
ATOM      2  C   LIG    1       29.953 -20.241   7.786  0.00  0.00    +0.140 C 
ENDROOT
BRANCH   2   3
ATOM      3  C   LIG    1       28.498 -20.353   7.375  0.00  0.00    +0.013 A 
ATOM      4  S   LIG    1       28.053 -20.057   5.748  0.00  0.00    -0.091 S 
ATOM      5  C   LIG    1       26.384 -20.348   6.053  0.00  0.00    +0.020 A 
ATOM      6  C   LIG    1       26.163 -20.688   7.388  0.00  0.00    -0.011 A 
ATOM      7  C   LIG    1       24.833 -20.951   7.801  0.00  0.00    +0.009 A 
ATOM      8  C   LIG    1       23.776 -20.857   6.889  0.00  0.00    +0.001 A 
ATOM      9  C   LIG    1       24.022 -20.519   5.566  0.00  0.00    +0.001 A 
ATOM     10  C   LIG    1       25.324 -20.270   5.127  0.00  0.00    +0.015 A 
ATOM     11  C   LIG    1       27.393 -20.704   8.128  0.00  0.00    +0.021 A 
ENDBRANCH   2   3
BRANCH   2  12
ATOM     12  N   LIG    1       30.205 -18.907   8.360  0.00  0.00    -0.160 N 
ATOM     13  C   LIG    1       31.415 -18.254   8.250  0.00  0.00    +0.323 C 
ATOM     14  O   LIG    1       32.305 -18.551   7.463  0.00  0.00    -0.251 OA
ATOM     15  N   LIG    1       31.538 -17.171   9.072  0.00  0.00    -0.312 N 
ATOM     16  H   LIG    1       32.448 -16.741   9.085  0.00  0.00    +0.146 HD
ATOM     17  H   LIG    1       31.041 -17.244   9.947  0.00  0.00    +0.146 HD
BRANCH  12  18
ATOM     18  O   LIG    1       29.422 -18.592   9.502  0.00  0.00    -0.291 OA
ATOM     19  H   LIG    1       29.800 -17.720   9.725  0.00  0.00    +0.242 HD
ENDBRANCH  12  18
ENDBRANCH   2  12
TORSDOF 3
ENDMDL
MODEL 3
REMARK VINA RESULT:      -7.6      3.843      6.097
REMARK  Name = *****
REMARK                            x       y       z     vdW  Elec       q    Type
REMARK                         _______ _______ _______ _____ _____    ______ ____
ROOT
ATOM      1  C   LIG    1       25.600 -23.935   7.039  0.00  0.00    +0.036 C 
ATOM      2  C   LIG    1       25.331 -22.433   6.949  0.00  0.00    +0.140 C 
ENDROOT
BRANCH   2   3
ATOM      3  C   LIG    1       26.621 -21.638   6.954  0.00  0.00    +0.013 A 
ATOM      4  S   LIG    1       26.808 -20.321   5.876  0.00  0.00    -0.091 S 
ATOM      5  C   LIG    1       28.398 -19.968   6.433  0.00  0.00    +0.020 A 
ATOM      6  C   LIG    1       28.784 -20.839   7.452  0.00  0.00    -0.011 A 
ATOM      7  C   LIG    1       30.076 -20.683   8.013  0.00  0.00    +0.009 A 
ATOM      8  C   LIG    1       30.937 -19.687   7.541  0.00  0.00    +0.001 A 
ATOM      9  C   LIG    1       30.528 -18.831   6.528  0.00  0.00    +0.001 A 
ATOM     10  C   LIG    1       29.256 -18.952   5.967  0.00  0.00    +0.015 A 
ATOM     11  C   LIG    1       27.741 -21.780   7.751  0.00  0.00    +0.021 A 
ENDBRANCH   2   3
BRANCH   2  12
ATOM     12  N   LIG    1       24.527 -22.070   5.768  0.00  0.00    -0.160 N 
ATOM     13  C   LIG    1       23.364 -21.332   5.844  0.00  0.00    +0.323 C 
ATOM     14  O   LIG    1       23.011 -20.674   6.814  0.00  0.00    -0.251 OA
ATOM     15  N   LIG    1       22.628 -21.336   4.694  0.00  0.00    -0.312 N 
ATOM     16  H   LIG    1       21.727 -20.892   4.757  0.00  0.00    +0.146 HD
ATOM     17  H   LIG    1       22.696 -22.184   4.150  0.00  0.00    +0.146 HD
BRANCH  12  18
ATOM     18  O   LIG    1       24.629 -22.972   4.677  0.00  0.00    -0.291 OA
ATOM     19  H   LIG    1       25.309 -22.513   4.147  0.00  0.00    +0.242 HD
ENDBRANCH  12  18
ENDBRANCH   2  12
TORSDOF 3
ENDMDL
MODEL 4
REMARK VINA RESULT:      -7.5      3.899      6.301
REMARK  Name = *****
REMARK                            x       y       z     vdW  Elec       q    Type
REMARK                         _______ _______ _______ _____ _____    ______ ____
ROOT
ATOM      1  C   LIG    1       24.306 -22.199   7.349  0.00  0.00    +0.036 C 
ATOM      2  C   LIG    1       24.848 -21.230   6.300  0.00  0.00    +0.140 C 
ENDROOT
BRANCH   2   3
ATOM      3  C   LIG    1       26.303 -20.889   6.559  0.00  0.00    +0.013 A 
ATOM      4  S   LIG    1       27.162 -21.724   7.782  0.00  0.00    -0.091 S 
ATOM      5  C   LIG    1       28.613 -20.843   7.495  0.00  0.00    +0.020 A 
ATOM      6  C   LIG    1       28.453 -19.925   6.457  0.00  0.00    -0.011 A 
ATOM      7  C   LIG    1       29.560 -19.114   6.104  0.00  0.00    +0.009 A 
ATOM      8  C   LIG    1       30.772 -19.230   6.793  0.00  0.00    +0.001 A 
ATOM      9  C   LIG    1       30.907 -20.153   7.820  0.00  0.00    +0.001 A 
ATOM     10  C   LIG    1       29.837 -20.976   8.180  0.00  0.00    +0.015 A 
ATOM     11  C   LIG    1       27.123 -19.980   5.918  0.00  0.00    +0.021 A 
ENDBRANCH   2   3
BRANCH   2  12
ATOM     12  N   LIG    1       24.695 -21.737   4.924  0.00  0.00    -0.160 N 
ATOM     13  C   LIG    1       24.012 -21.054   3.940  0.00  0.00    +0.323 C 
ATOM     14  O   LIG    1       23.700 -19.871   3.992  0.00  0.00    -0.251 OA
ATOM     15  N   LIG    1       23.744 -21.801   2.828  0.00  0.00    -0.312 N 
ATOM     16  H   LIG    1       23.158 -21.357   2.141  0.00  0.00    +0.146 HD
ATOM     17  H   LIG    1       23.600 -22.784   3.004  0.00  0.00    +0.146 HD
BRANCH  12  18
ATOM     18  O   LIG    1       24.725 -23.151   4.803  0.00  0.00    -0.291 OA
ATOM     19  H   LIG    1       24.068 -23.388   5.486  0.00  0.00    +0.242 HD
ENDBRANCH  12  18
ENDBRANCH   2  12
TORSDOF 3
ENDMDL
MODEL 5
REMARK VINA RESULT:      -7.4      1.947      2.285
REMARK  Name = *****
REMARK                            x       y       z     vdW  Elec       q    Type
REMARK                         _______ _______ _______ _____ _____    ______ ____
ROOT
ATOM      1  C   LIG    1       29.558 -18.451   5.565  0.00  0.00    +0.036 C 
ATOM      2  C   LIG    1       29.167 -18.998   6.938  0.00  0.00    +0.140 C 
ENDROOT
BRANCH   2   3
ATOM      3  C   LIG    1       28.076 -20.045   6.827  0.00  0.00    +0.013 A 
ATOM      4  S   LIG    1       28.130 -21.432   7.829  0.00  0.00    -0.091 S 
ATOM      5  C   LIG    1       26.684 -22.085   7.161  0.00  0.00    +0.020 A 
ATOM      6  C   LIG    1       26.147 -21.242   6.188  0.00  0.00    -0.011 A 
ATOM      7  C   LIG    1       24.955 -21.645   5.537  0.00  0.00    +0.009 A 
ATOM      8  C   LIG    1       24.349 -22.864   5.859  0.00  0.00    +0.001 A 
ATOM      9  C   LIG    1       24.901 -23.684   6.833  0.00  0.00    +0.001 A 
ATOM     10  C   LIG    1       26.067 -23.306   7.502  0.00  0.00    +0.015 A 
ATOM     11  C   LIG    1       26.951 -20.064   6.024  0.00  0.00    +0.021 A 
ENDBRANCH   2   3
BRANCH   2  12
ATOM     12  N   LIG    1       30.315 -19.552   7.678  0.00  0.00    -0.160 N 
ATOM     13  C   LIG    1       30.661 -19.147   8.949  0.00  0.00    +0.323 C 
ATOM     14  O   LIG    1       29.938 -18.512   9.706  0.00  0.00    -0.251 OA
ATOM     15  N   LIG    1       31.898 -19.567   9.349  0.00  0.00    -0.312 N 
ATOM     16  H   LIG    1       32.215 -19.198  10.230  0.00  0.00    +0.146 HD
ATOM     17  H   LIG    1       32.575 -19.657   8.607  0.00  0.00    +0.146 HD
BRANCH  12  18
ATOM     18  O   LIG    1       31.372 -20.036   6.862  0.00  0.00    -0.291 OA
ATOM     19  H   LIG    1       32.123 -19.564   7.269  0.00  0.00    +0.242 HD
ENDBRANCH  12  18
ENDBRANCH   2  12
TORSDOF 3
ENDMDL
MODEL 6
REMARK VINA RESULT:      -7.3      3.924      6.050
REMARK  Name = *****
REMARK                            x       y       z     vdW  Elec       q    Type
REMARK                         _______ _______ _______ _____ _____    ______ ____
ROOT
ATOM      1  C   LIG    1       23.451 -20.378   5.904  0.00  0.00    +0.036 C 
ATOM      2  C   LIG    1       24.466 -21.492   5.645  0.00  0.00    +0.140 C 
ENDROOT
BRANCH   2   3
ATOM      3  C   LIG    1       25.875 -21.047   5.987  0.00  0.00    +0.013 A 
ATOM      4  S   LIG    1       26.726 -21.828   7.250  0.00  0.00    -0.091 S 
ATOM      5  C   LIG    1       28.120 -20.839   7.049  0.00  0.00    +0.020 A 
ATOM      6  C   LIG    1       27.950 -19.925   6.009  0.00  0.00    -0.011 A 
ATOM      7  C   LIG    1       29.010 -19.031   5.722  0.00  0.00    +0.009 A 
ATOM      8  C   LIG    1       30.188 -19.064   6.476  0.00  0.00    +0.001 A 
ATOM      9  C   LIG    1       30.335 -19.985   7.504  0.00  0.00    +0.001 A 
ATOM     10  C   LIG    1       29.312 -20.888   7.799  0.00  0.00    +0.015 A 
ATOM     11  C   LIG    1       26.658 -20.073   5.397  0.00  0.00    +0.021 A 
ENDBRANCH   2   3
BRANCH   2  12
ATOM     12  N   LIG    1       24.147 -22.733   6.373  0.00  0.00    -0.160 N 
ATOM     13  C   LIG    1       24.358 -23.991   5.850  0.00  0.00    +0.323 C 
ATOM     14  O   LIG    1       25.062 -24.239   4.879  0.00  0.00    -0.251 OA
ATOM     15  N   LIG    1       23.750 -24.993   6.550  0.00  0.00    -0.312 N 
ATOM     16  H   LIG    1       23.803 -25.907   6.130  0.00  0.00    +0.146 HD
ATOM     17  H   LIG    1       22.884 -24.732   6.998  0.00  0.00    +0.146 HD
BRANCH  12  18
ATOM     18  O   LIG    1       23.096 -22.614   7.321  0.00  0.00    -0.291 OA
ATOM     19  H   LIG    1       22.340 -22.498   6.714  0.00  0.00    +0.242 HD
ENDBRANCH  12  18
ENDBRANCH   2  12
TORSDOF 3
ENDMDL
MODEL 7
REMARK VINA RESULT:      -7.2      4.430      5.682
REMARK  Name = *****
REMARK                            x       y       z     vdW  Elec       q    Type
REMARK                         _______ _______ _______ _____ _____    ______ ____
ROOT
ATOM      1  C   LIG    1       23.322 -20.949   7.413  0.00  0.00    +0.036 C 
ATOM      2  C   LIG    1       24.755 -21.459   7.558  0.00  0.00    +0.140 C 
ENDROOT
BRANCH   2   3
ATOM      3  C   LIG    1       24.885 -22.890   7.075  0.00  0.00    +0.013 A 
ATOM      4  S   LIG    1       23.494 -23.732   6.539  0.00  0.00    -0.091 S 
ATOM      5  C   LIG    1       24.380 -25.167   6.194  0.00  0.00    +0.020 A 
ATOM      6  C   LIG    1       25.738 -25.004   6.468  0.00  0.00    -0.011 A 
ATOM      7  C   LIG    1       26.603 -26.103   6.242  0.00  0.00    +0.009 A 
ATOM      8  C   LIG    1       26.096 -27.318   5.769  0.00  0.00    +0.001 A 
ATOM      9  C   LIG    1       24.741 -27.454   5.501  0.00  0.00    +0.001 A 
ATOM     10  C   LIG    1       23.868 -26.383   5.700  0.00  0.00    +0.015 A 
ATOM     11  C   LIG    1       26.012 -23.682   6.956  0.00  0.00    +0.021 A 
ENDBRANCH   2   3
BRANCH   2  12
ATOM     12  N   LIG    1       25.736 -20.608   6.859  0.00  0.00    -0.160 N 
ATOM     13  C   LIG    1       25.825 -20.532   5.485  0.00  0.00    +0.323 C 
ATOM     14  O   LIG    1       24.967 -20.918   4.702  0.00  0.00    -0.251 OA
ATOM     15  N   LIG    1       26.959 -19.916   5.036  0.00  0.00    -0.312 N 
ATOM     16  H   LIG    1       27.097 -19.940   4.039  0.00  0.00    +0.146 HD
ATOM     17  H   LIG    1       27.769 -20.039   5.625  0.00  0.00    +0.146 HD
BRANCH  12  18
ATOM     18  O   LIG    1       26.932 -20.361   7.582  0.00  0.00    -0.291 OA
ATOM     19  H   LIG    1       27.333 -19.679   7.010  0.00  0.00    +0.242 HD
ENDBRANCH  12  18
ENDBRANCH   2  12
TORSDOF 3
ENDMDL
MODEL 8
REMARK VINA RESULT:      -7.2      5.872      6.893
REMARK  Name = *****
REMARK                            x       y       z     vdW  Elec       q    Type
REMARK                         _______ _______ _______ _____ _____    ______ ____
ROOT
ATOM      1  C   LIG    1       26.085 -27.016   4.598  0.00  0.00    +0.036 C 
ATOM      2  C   LIG    1       25.842 -26.856   6.098  0.00  0.00    +0.140 C 
ENDROOT
BRANCH   2   3
ATOM      3  C   LIG    1       25.399 -25.447   6.441  0.00  0.00    +0.013 A 
ATOM      4  S   LIG    1       23.754 -25.009   6.256  0.00  0.00    -0.091 S 
ATOM      5  C   LIG    1       24.027 -23.395   6.789  0.00  0.00    +0.020 A 
ATOM      6  C   LIG    1       25.365 -23.190   7.127  0.00  0.00    -0.011 A 
ATOM      7  C   LIG    1       25.752 -21.905   7.578  0.00  0.00    +0.009 A 
ATOM      8  C   LIG    1       24.812 -20.872   7.668  0.00  0.00    +0.001 A 
ATOM      9  C   LIG    1       23.486 -21.102   7.330  0.00  0.00    +0.001 A 
ATOM     10  C   LIG    1       23.073 -22.363   6.895  0.00  0.00    +0.015 A 
ATOM     11  C   LIG    1       26.135 -24.388   6.938  0.00  0.00    +0.021 A 
ENDBRANCH   2   3
BRANCH   2  12
ATOM     12  N   LIG    1       24.864 -27.826   6.624  0.00  0.00    -0.160 N 
ATOM     13  C   LIG    1       25.122 -28.651   7.698  0.00  0.00    +0.323 C 
ATOM     14  O   LIG    1       26.039 -28.502   8.495  0.00  0.00    -0.251 OA
ATOM     15  N   LIG    1       24.213 -29.658   7.856  0.00  0.00    -0.312 N 
ATOM     16  H   LIG    1       24.435 -30.333   8.568  0.00  0.00    +0.146 HD
ATOM     17  H   LIG    1       23.804 -29.998   6.998  0.00  0.00    +0.146 HD
BRANCH  12  18
ATOM     18  O   LIG    1       23.933 -28.310   5.667  0.00  0.00    -0.291 OA
ATOM     19  H   LIG    1       24.025 -27.619   4.984  0.00  0.00    +0.242 HD
ENDBRANCH  12  18
ENDBRANCH   2  12
TORSDOF 3
ENDMDL
MODEL 9
REMARK VINA RESULT:      -7.1      3.835      4.591
REMARK  Name = *****
REMARK                            x       y       z     vdW  Elec       q    Type
REMARK                         _______ _______ _______ _____ _____    ______ ____
ROOT
ATOM      1  C   LIG    1       25.200 -20.319   4.993  0.00  0.00    +0.036 C 
ATOM      2  C   LIG    1       25.765 -20.972   6.253  0.00  0.00    +0.140 C 
ENDROOT
BRANCH   2   3
ATOM      3  C   LIG    1       25.566 -22.475   6.235  0.00  0.00    +0.013 A 
ATOM      4  S   LIG    1       24.424 -23.165   5.161  0.00  0.00    -0.091 S 
ATOM      5  C   LIG    1       24.748 -24.768   5.698  0.00  0.00    +0.020 A 
ATOM      6  C   LIG    1       25.737 -24.785   6.681  0.00  0.00    -0.011 A 
ATOM      7  C   LIG    1       26.112 -26.035   7.232  0.00  0.00    +0.009 A 
ATOM      8  C   LIG    1       25.491 -27.213   6.803  0.00  0.00    +0.001 A 
ATOM      9  C   LIG    1       24.511 -27.170   5.821  0.00  0.00    +0.001 A 
ATOM     10  C   LIG    1       24.133 -25.954   5.250  0.00  0.00    +0.015 A 
ATOM     11  C   LIG    1       26.209 -23.458   6.963  0.00  0.00    +0.021 A 
ENDBRANCH   2   3
BRANCH   2  12
ATOM     12  N   LIG    1       27.190 -20.663   6.465  0.00  0.00    -0.160 N 
ATOM     13  C   LIG    1       27.692 -20.197   7.661  0.00  0.00    +0.323 C 
ATOM     14  O   LIG    1       27.106 -20.243   8.735  0.00  0.00    -0.251 OA
ATOM     15  N   LIG    1       28.966 -19.711   7.578  0.00  0.00    -0.312 N 
ATOM     16  H   LIG    1       29.316 -19.271   8.413  0.00  0.00    +0.146 HD
ATOM     17  H   LIG    1       29.201 -19.289   6.692  0.00  0.00    +0.146 HD
BRANCH  12  18
ATOM     18  O   LIG    1       27.896 -20.279   5.294  0.00  0.00    -0.291 OA
ATOM     19  H   LIG    1       27.191 -20.399   4.630  0.00  0.00    +0.242 HD
ENDBRANCH  12  18
ENDBRANCH   2  12
TORSDOF 3
ENDMDL
