MODEL 1
REMARK VINA RESULT:      70.0      0.000      0.000
REMARK  Name = *****
REMARK                            x       y       z     vdW  Elec       q    Type
REMARK                         _______ _______ _______ _____ _____    ______ ____
ROOT
ATOM      1  C   LIG    1       26.710 -19.383   4.845  0.00  0.00    +0.264 C 
ATOM      2  C   LIG    1       27.959 -18.721   4.178  0.00  0.00    +0.257 C 
ATOM      3  O   LIG    1       28.793 -19.407   3.579  0.00  0.00    -0.272 OA
ATOM      4  N   LIG    1       28.174 -17.358   4.392  0.00  0.00    -0.288 N 
ATOM      5  C   LIG    1       29.474 -17.137   5.047  0.00  0.00    +0.133 C 
ATOM      6  C   LIG    1       27.995 -16.392   3.270  0.00  0.00    +0.187 C 
ATOM      7  C   LIG    1       27.802 -14.973   3.885  0.00  0.00    +0.329 C 
ATOM      8  O   LIG    1       28.752 -14.217   4.042  0.00  0.00    -0.249 OA
ATOM      9  O   LIG    1       26.526 -14.710   4.330  0.00  0.00    -0.450 OA
ATOM     10  C   LIG    1       26.357 -13.428   4.996  0.00  0.00    +0.264 C 
ATOM     11  C   LIG    1       25.103 -12.634   4.516  0.00  0.00    +0.257 C 
ATOM     12  O   LIG    1       25.219 -11.495   4.055  0.00  0.00    -0.272 OA
ATOM     13  N   LIG    1       23.842 -13.180   4.784  0.00  0.00    -0.288 N 
ATOM     14  C   LIG    1       23.045 -12.227   5.574  0.00  0.00    +0.133 C 
ATOM     15  C   LIG    1       23.024 -13.723   3.654  0.00  0.00    +0.187 C 
ATOM     16  C   LIG    1       21.962 -14.693   4.252  0.00  0.00    +0.329 C 
ATOM     17  O   LIG    1       20.870 -14.281   4.638  0.00  0.00    -0.249 OA
ATOM     18  O   LIG    1       22.404 -15.980   4.443  0.00  0.00    -0.450 OA
ATOM     19  C   LIG    1       21.501 -16.828   5.198  0.00  0.00    +0.264 C 
ATOM     20  C   LIG    1       21.251 -18.227   4.545  0.00  0.00    +0.257 C 
ATOM     21  O   LIG    1       20.142 -18.513   4.086  0.00  0.00    -0.272 OA
ATOM     22  N   LIG    1       22.252 -19.196   4.657  0.00  0.00    -0.288 N 
ATOM     23  C   LIG    1       21.724 -20.439   5.241  0.00  0.00    +0.133 C 
ATOM     24  C   LIG    1       23.154 -19.497   3.506  0.00  0.00    +0.187 C 
ATOM     25  C   LIG    1       24.527 -19.966   4.088  0.00  0.00    +0.329 C 
ATOM     26  O   LIG    1       24.715 -21.124   4.422  0.00  0.00    -0.249 OA
ATOM     27  O   LIG    1       25.441 -18.956   4.276  0.00  0.00    -0.450 OA
ENDROOT
BRANCH   1  29
ATOM     28  C   LIG    1       27.966 -19.782   7.062  0.00  0.00    +0.011 C 
ATOM     29  C   LIG    1       26.682 -19.303   6.397  0.00  0.00    +0.033 C 
ATOM     30  C   LIG    1       25.481 -20.039   7.007  0.00  0.00    +0.011 C 
ENDBRANCH   1  29
BRANCH   6  31
ATOM     31  C   LIG    1       27.015 -16.661   2.098  0.00  0.00    +0.014 C 
ATOM     32  C   LIG    1       26.195 -17.929   2.420  0.00  0.00    +0.009 C 
ATOM     33  C   LIG    1       25.971 -15.566   1.860  0.00  0.00    +0.009 C 
ENDBRANCH   6  31
BRANCH  10  34
ATOM     34  C   LIG    1       26.363 -13.573   6.545  0.00  0.00    +0.033 C 
ATOM     35  C   LIG    1       27.622 -14.282   7.060  0.00  0.00    +0.011 C 
ATOM     36  C   LIG    1       25.173 -14.380   7.058  0.00  0.00    +0.011 C 
ENDBRANCH  10  34
BRANCH  15  37
ATOM     37  C   LIG    1       23.683 -14.277   2.362  0.00  0.00    +0.014 C 
ATOM     38  C   LIG    1       24.667 -13.222   1.813  0.00  0.00    +0.009 C 
ATOM     39  C   LIG    1       24.526 -15.544   2.557  0.00  0.00    +0.009 C 
ENDBRANCH  15  37
BRANCH  19  40
ATOM     40  C   LIG    1       21.955 -16.946   6.682  0.00  0.00    +0.033 C 
ATOM     41  C   LIG    1       22.983 -15.869   7.059  0.00  0.00    +0.011 C 
ATOM     42  C   LIG    1       22.585 -18.305   7.009  0.00  0.00    +0.011 C 
ENDBRANCH  19  40
BRANCH  24  43
ATOM     43  C   LIG    1       23.286 -18.551   2.281  0.00  0.00    +0.014 C 
ATOM     44  C   LIG    1       21.890 -17.977   1.947  0.00  0.00    +0.009 C 
ATOM     45  C   LIG    1       24.175 -17.317   2.495  0.00  0.00    +0.009 C 
ENDBRANCH  24  43
TORSDOF 6
ENDMDL
