MODEL 1
REMARK VINA RESULT:      -7.8      0.000      0.000
REMARK  Name = *****
REMARK                            x       y       z     vdW  Elec       q    Type
REMARK                         _______ _______ _______ _____ _____    ______ ____
ROOT
ATOM      1  O   LIG    1       27.128 -22.014   7.121  0.00  0.00    -0.489 OA
ENDROOT
BRANCH   1   2
ATOM      2  C   LIG    1       25.758 -22.030   7.076  0.00  0.00    +0.130 C 
ATOM      3  C   LIG    1       25.119 -23.260   6.788  0.00  0.00    +0.041 C 
ATOM      4  C   LIG    1       23.727 -23.325   6.769  0.00  0.00    +0.050 C 
ATOM      5  N   LIG    1       23.374 -24.628   6.476  0.00  0.00    -0.360 NA
ATOM      6  H   LIG    1       22.429 -24.965   6.395  0.00  0.00    +0.165 HD
ATOM      7  C   LIG    1       24.500 -25.395   6.309  0.00  0.00    +0.083 C 
ATOM      8  C   LIG    1       22.910 -22.213   7.014  0.00  0.00    +0.026 C 
ATOM      9  C   LIG    1       23.560 -20.992   7.250  0.00  0.00    +0.006 C 
ATOM     10  C   LIG    1       25.591 -24.579   6.495  0.00  0.00    +0.031 C 
ATOM     11  C   LIG    1       24.944 -20.901   7.273  0.00  0.00    +0.046 C 
ENDBRANCH   1   2
BRANCH   1  12
ATOM     12  C   LIG    1       27.733 -20.738   7.388  0.00  0.00    +0.261 C 
BRANCH  12  13
ATOM     13  C   LIG    1       28.567 -20.333   6.161  0.00  0.00    +0.166 C 
BRANCH  13  14
ATOM     14  O   LIG    1       27.730 -20.140   5.008  0.00  0.00    -0.387 OA
ATOM     15  H   LIG    1       28.102 -20.716   4.308  0.00  0.00    +0.210 HD
ENDBRANCH  13  14
BRANCH  13  16
ATOM     16  C   LIG    1       29.360 -19.038   6.417  0.00  0.00    +0.115 C 
BRANCH  16  17
ATOM     17  N   LIG    1       30.787 -19.328   6.631  0.00  0.00    -0.311 NA
ATOM     18  H   LIG    1       30.933 -20.306   6.357  0.00  0.00    +0.122 HD
BRANCH  17  20
ATOM     19  C   LIG    1       30.315 -18.101   8.676  0.00  0.00    +0.024 C 
ATOM     20  C   LIG    1       31.227 -19.142   8.018  0.00  0.00    +0.048 C 
ATOM     21  C   LIG    1       31.170 -20.440   8.824  0.00  0.00    +0.024 C 
ENDBRANCH  17  20
ENDBRANCH  16  17
ENDBRANCH  13  16
ENDBRANCH  12  13
ENDBRANCH   1  12
TORSDOF 7
ENDMDL
MODEL 2
REMARK VINA RESULT:      -7.7      2.332      3.041
REMARK  Name = *****
REMARK                            x       y       z     vdW  Elec       q    Type
REMARK                         _______ _______ _______ _____ _____    ______ ____
ROOT
ATOM      1  O   LIG    1       28.101 -19.964   5.765  0.00  0.00    -0.489 OA
ENDROOT
BRANCH   1   2
ATOM      2  C   LIG    1       26.930 -20.283   6.403  0.00  0.00    +0.130 C 
ATOM      3  C   LIG    1       25.752 -20.375   5.623  0.00  0.00    +0.041 C 
ATOM      4  C   LIG    1       24.551 -20.733   6.229  0.00  0.00    +0.050 C 
ATOM      5  N   LIG    1       23.578 -20.756   5.248  0.00  0.00    -0.360 NA
ATOM      6  H   LIG    1       22.610 -20.982   5.402  0.00  0.00    +0.165 HD
ATOM      7  C   LIG    1       24.127 -20.425   4.035  0.00  0.00    +0.083 C 
ATOM      8  C   LIG    1       24.441 -21.003   7.601  0.00  0.00    +0.026 C 
ATOM      9  C   LIG    1       25.607 -20.860   8.367  0.00  0.00    +0.006 C 
ATOM     10  C   LIG    1       25.465 -20.184   4.234  0.00  0.00    +0.031 C 
ATOM     11  C   LIG    1       26.816 -20.504   7.788  0.00  0.00    +0.046 C 
ENDBRANCH   1   2
BRANCH   1  12
ATOM     12  C   LIG    1       29.310 -20.303   6.463  0.00  0.00    +0.261 C 
BRANCH  12  13
ATOM     13  C   LIG    1       30.233 -19.073   6.454  0.00  0.00    +0.166 C 
BRANCH  13  14
ATOM     14  O   LIG    1       29.820 -18.124   5.456  0.00  0.00    -0.387 OA
ATOM     15  H   LIG    1       30.387 -18.294   4.675  0.00  0.00    +0.210 HD
ENDBRANCH  13  14
BRANCH  13  16
ATOM     16  C   LIG    1       30.253 -18.370   7.824  0.00  0.00    +0.115 C 
BRANCH  16  17
ATOM     17  N   LIG    1       31.598 -17.859   8.134  0.00  0.00    -0.311 NA
ATOM     18  H   LIG    1       32.257 -18.618   7.927  0.00  0.00    +0.122 HD
BRANCH  17  20
ATOM     19  C   LIG    1       32.474 -16.080   9.542  0.00  0.00    +0.024 C 
ATOM     20  C   LIG    1       31.764 -17.439   9.529  0.00  0.00    +0.048 C 
ATOM     21  C   LIG    1       30.427 -17.313  10.261  0.00  0.00    +0.024 C 
ENDBRANCH  17  20
ENDBRANCH  16  17
ENDBRANCH  13  16
ENDBRANCH  12  13
ENDBRANCH   1  12
TORSDOF 7
ENDMDL
MODEL 3
REMARK VINA RESULT:      -7.6      2.017      3.347
REMARK  Name = *****
REMARK                            x       y       z     vdW  Elec       q    Type
REMARK                         _______ _______ _______ _____ _____    ______ ____
ROOT
ATOM      1  O   LIG    1       26.783 -22.104   7.334  0.00  0.00    -0.489 OA
ENDROOT
BRANCH   1   2
ATOM      2  C   LIG    1       25.454 -22.406   7.187  0.00  0.00    +0.130 C 
ATOM      3  C   LIG    1       25.115 -23.703   6.730  0.00  0.00    +0.041 C 
ATOM      4  C   LIG    1       23.774 -24.060   6.604  0.00  0.00    +0.050 C 
ATOM      5  N   LIG    1       23.730 -25.365   6.153  0.00  0.00    -0.360 NA
ATOM      6  H   LIG    1       22.887 -25.883   5.970  0.00  0.00    +0.165 HD
ATOM      7  C   LIG    1       25.004 -25.850   5.991  0.00  0.00    +0.083 C 
ATOM      8  C   LIG    1       22.722 -23.183   6.902  0.00  0.00    +0.026 C 
ATOM      9  C   LIG    1       23.075 -21.888   7.308  0.00  0.00    +0.006 C 
ATOM     10  C   LIG    1       25.878 -24.847   6.338  0.00  0.00    +0.031 C 
ATOM     11  C   LIG    1       24.402 -21.507   7.440  0.00  0.00    +0.046 C 
ENDBRANCH   1   2
BRANCH   1  12
ATOM     12  C   LIG    1       27.083 -20.743   7.682  0.00  0.00    +0.261 C 
BRANCH  12  13
ATOM     13  C   LIG    1       28.202 -20.243   6.753  0.00  0.00    +0.166 C 
BRANCH  13  14
ATOM     14  O   LIG    1       29.011 -21.335   6.284  0.00  0.00    -0.387 OA
ATOM     15  H   LIG    1       29.081 -21.218   5.313  0.00  0.00    +0.210 HD
ENDBRANCH  13  14
BRANCH  13  16
ATOM     16  C   LIG    1       27.634 -19.492   5.533  0.00  0.00    +0.115 C 
BRANCH  16  17
ATOM     17  N   LIG    1       26.725 -20.356   4.761  0.00  0.00    -0.311 NA
ATOM     18  H   LIG    1       27.199 -20.566   3.876  0.00  0.00    +0.122 HD
BRANCH  17  20
ATOM     19  C   LIG    1       25.637 -18.591   3.489  0.00  0.00    +0.024 C 
ATOM     20  C   LIG    1       25.423 -19.741   4.480  0.00  0.00    +0.048 C 
ATOM     21  C   LIG    1       24.426 -20.737   3.886  0.00  0.00    +0.024 C 
ENDBRANCH  17  20
ENDBRANCH  16  17
ENDBRANCH  13  16
ENDBRANCH  12  13
ENDBRANCH   1  12
TORSDOF 7
ENDMDL
MODEL 4
REMARK VINA RESULT:      -7.3      1.199      1.616
REMARK  Name = *****
REMARK                            x       y       z     vdW  Elec       q    Type
REMARK                         _______ _______ _______ _____ _____    ______ ____
ROOT
ATOM      1  O   LIG    1       26.958 -21.757   6.620  0.00  0.00    -0.489 OA
ENDROOT
BRANCH   1   2
ATOM      2  C   LIG    1       25.597 -21.858   6.751  0.00  0.00    +0.130 C 
ATOM      3  C   LIG    1       25.007 -23.134   6.589  0.00  0.00    +0.041 C 
ATOM      4  C   LIG    1       23.632 -23.283   6.751  0.00  0.00    +0.050 C 
ATOM      5  N   LIG    1       23.329 -24.616   6.549  0.00  0.00    -0.360 NA
ATOM      6  H   LIG    1       22.405 -25.011   6.601  0.00  0.00    +0.165 HD
ATOM      7  C   LIG    1       24.472 -25.320   6.264  0.00  0.00    +0.083 C 
ATOM      8  C   LIG    1       22.782 -22.212   7.063  0.00  0.00    +0.026 C 
ATOM      9  C   LIG    1       23.376 -20.946   7.173  0.00  0.00    +0.006 C 
ATOM     10  C   LIG    1       25.522 -24.433   6.281  0.00  0.00    +0.031 C 
ATOM     11  C   LIG    1       24.743 -20.772   7.015  0.00  0.00    +0.046 C 
ENDBRANCH   1   2
BRANCH   1  12
ATOM     12  C   LIG    1       27.494 -20.425   6.635  0.00  0.00    +0.261 C 
BRANCH  12  13
ATOM     13  C   LIG    1       28.239 -20.220   7.966  0.00  0.00    +0.166 C 
BRANCH  13  14
ATOM     14  O   LIG    1       28.627 -21.479   8.539  0.00  0.00    -0.387 OA
ATOM     15  H   LIG    1       28.259 -22.168   7.948  0.00  0.00    +0.210 HD
ENDBRANCH  13  14
BRANCH  13  16
ATOM     16  C   LIG    1       29.498 -19.352   7.783  0.00  0.00    +0.115 C 
BRANCH  16  17
ATOM     17  N   LIG    1       30.167 -19.117   9.073  0.00  0.00    -0.311 NA
ATOM     18  H   LIG    1       29.506 -19.403   9.804  0.00  0.00    +0.122 HD
BRANCH  17  20
ATOM     19  C   LIG    1       30.369 -17.393  10.776  0.00  0.00    +0.024 C 
ATOM     20  C   LIG    1       30.558 -17.720   9.290  0.00  0.00    +0.048 C 
ATOM     21  C   LIG    1       32.013 -17.457   8.899  0.00  0.00    +0.024 C 
ENDBRANCH  17  20
ENDBRANCH  16  17
ENDBRANCH  13  16
ENDBRANCH  12  13
ENDBRANCH   1  12
TORSDOF 7
ENDMDL
MODEL 5
REMARK VINA RESULT:      -7.2      1.569      6.408
REMARK  Name = *****
REMARK                            x       y       z     vdW  Elec       q    Type
REMARK                         _______ _______ _______ _____ _____    ______ ____
ROOT
ATOM      1  O   LIG    1       27.196 -21.367   7.278  0.00  0.00    -0.489 OA
ENDROOT
BRANCH   1   2
ATOM      2  C   LIG    1       28.241 -20.550   6.933  0.00  0.00    +0.130 C 
ATOM      3  C   LIG    1       29.472 -20.725   7.611  0.00  0.00    +0.041 C 
ATOM      4  C   LIG    1       30.568 -19.939   7.264  0.00  0.00    +0.050 C 
ATOM      5  N   LIG    1       31.626 -20.321   8.065  0.00  0.00    -0.360 NA
ATOM      6  H   LIG    1       32.548 -19.917   8.033  0.00  0.00    +0.165 HD
ATOM      7  C   LIG    1       31.236 -21.328   8.911  0.00  0.00    +0.083 C 
ATOM      8  C   LIG    1       30.514 -18.956   6.265  0.00  0.00    +0.026 C 
ATOM      9  C   LIG    1       29.275 -18.762   5.637  0.00  0.00    +0.006 C 
ATOM     10  C   LIG    1       29.913 -21.598   8.655  0.00  0.00    +0.031 C 
ATOM     11  C   LIG    1       28.168 -19.531   5.965  0.00  0.00    +0.046 C 
ENDBRANCH   1   2
BRANCH   1  12
ATOM     12  C   LIG    1       26.061 -20.717   7.875  0.00  0.00    +0.261 C 
BRANCH  12  13
ATOM     13  C   LIG    1       24.789 -21.447   7.412  0.00  0.00    +0.166 C 
BRANCH  13  14
ATOM     14  O   LIG    1       23.609 -20.712   7.777  0.00  0.00    -0.387 OA
ATOM     15  H   LIG    1       23.014 -21.359   8.209  0.00  0.00    +0.210 HD
ENDBRANCH  13  14
BRANCH  13  16
ATOM     16  C   LIG    1       24.783 -21.662   5.887  0.00  0.00    +0.115 C 
BRANCH  16  17
ATOM     17  N   LIG    1       25.155 -23.045   5.548  0.00  0.00    -0.311 NA
ATOM     18  H   LIG    1       24.586 -23.314   4.738  0.00  0.00    +0.122 HD
BRANCH  17  20
ATOM     19  C   LIG    1       23.507 -24.558   6.502  0.00  0.00    +0.024 C 
ATOM     20  C   LIG    1       24.928 -24.001   6.638  0.00  0.00    +0.048 C 
ATOM     21  C   LIG    1       25.926 -25.160   6.610  0.00  0.00    +0.024 C 
ENDBRANCH  17  20
ENDBRANCH  16  17
ENDBRANCH  13  16
ENDBRANCH  12  13
ENDBRANCH   1  12
TORSDOF 7
ENDMDL
MODEL 6
REMARK VINA RESULT:      -7.2      3.286      7.132
REMARK  Name = *****
REMARK                            x       y       z     vdW  Elec       q    Type
REMARK                         _______ _______ _______ _____ _____    ______ ____
ROOT
ATOM      1  O   LIG    1       26.244 -24.789   6.488  0.00  0.00    -0.489 OA
ENDROOT
BRANCH   1   2
ATOM      2  C   LIG    1       25.192 -23.955   6.767  0.00  0.00    +0.130 C 
ATOM      3  C   LIG    1       25.479 -22.700   7.359  0.00  0.00    +0.041 C 
ATOM      4  C   LIG    1       24.441 -21.810   7.624  0.00  0.00    +0.050 C 
ATOM      5  N   LIG    1       24.997 -20.676   8.184  0.00  0.00    -0.360 NA
ATOM      6  H   LIG    1       24.477 -19.866   8.479  0.00  0.00    +0.165 HD
ATOM      7  C   LIG    1       26.358 -20.818   8.282  0.00  0.00    +0.083 C 
ATOM      8  C   LIG    1       23.099 -22.100   7.340  0.00  0.00    +0.026 C 
ATOM      9  C   LIG    1       22.827 -23.365   6.799  0.00  0.00    +0.006 C 
ATOM     10  C   LIG    1       26.685 -22.056   7.782  0.00  0.00    +0.031 C 
ATOM     11  C   LIG    1       23.843 -24.270   6.526  0.00  0.00    +0.046 C 
ENDBRANCH   1   2
BRANCH   1  12
ATOM     12  C   LIG    1       25.979 -26.196   6.610  0.00  0.00    +0.261 C 
BRANCH  12  13
ATOM     13  C   LIG    1       26.113 -26.834   5.217  0.00  0.00    +0.166 C 
BRANCH  13  14
ATOM     14  O   LIG    1       27.461 -27.271   4.976  0.00  0.00    -0.387 OA
ATOM     15  H   LIG    1       28.036 -26.648   5.467  0.00  0.00    +0.210 HD
ENDBRANCH  13  14
BRANCH  13  16
ATOM     16  C   LIG    1       25.168 -28.039   5.052  0.00  0.00    +0.115 C 
BRANCH  16  17
ATOM     17  N   LIG    1       24.317 -28.207   6.242  0.00  0.00    -0.311 NA
ATOM     18  H   LIG    1       24.642 -27.524   6.935  0.00  0.00    +0.122 HD
BRANCH  17  20
ATOM     19  C   LIG    1       25.161 -30.457   5.869  0.00  0.00    +0.024 C 
ATOM     20  C   LIG    1       24.373 -29.552   6.823  0.00  0.00    +0.048 C 
ATOM     21  C   LIG    1       25.045 -29.564   8.197  0.00  0.00    +0.024 C 
ENDBRANCH  17  20
ENDBRANCH  16  17
ENDBRANCH  13  16
ENDBRANCH  12  13
ENDBRANCH   1  12
TORSDOF 7
ENDMDL
MODEL 7
REMARK VINA RESULT:      -7.2      1.776      6.411
REMARK  Name = *****
REMARK                            x       y       z     vdW  Elec       q    Type
REMARK                         _______ _______ _______ _____ _____    ______ ____
ROOT
ATOM      1  O   LIG    1       27.308 -21.942   7.580  0.00  0.00    -0.489 OA
ENDROOT
BRANCH   1   2
ATOM      2  C   LIG    1       28.141 -20.959   7.111  0.00  0.00    +0.130 C 
ATOM      3  C   LIG    1       29.429 -20.849   7.688  0.00  0.00    +0.041 C 
ATOM      4  C   LIG    1       30.317 -19.887   7.213  0.00  0.00    +0.050 C 
ATOM      5  N   LIG    1       31.488 -20.005   7.938  0.00  0.00    -0.360 NA
ATOM      6  H   LIG    1       32.305 -19.432   7.809  0.00  0.00    +0.165 HD
ATOM      7  C   LIG    1       31.371 -21.015   8.859  0.00  0.00    +0.083 C 
ATOM      8  C   LIG    1       29.994 -18.997   6.179  0.00  0.00    +0.026 C 
ATOM      9  C   LIG    1       28.697 -19.088   5.651  0.00  0.00    +0.006 C 
ATOM     10  C   LIG    1       30.113 -21.553   8.729  0.00  0.00    +0.031 C 
ATOM     11  C   LIG    1       27.794 -20.036   6.108  0.00  0.00    +0.046 C 
ENDBRANCH   1   2
BRANCH   1  12
ATOM     12  C   LIG    1       26.145 -22.213   6.783  0.00  0.00    +0.261 C 
BRANCH  12  13
ATOM     13  C   LIG    1       24.899 -21.992   7.657  0.00  0.00    +0.166 C 
BRANCH  13  14
ATOM     14  O   LIG    1       25.012 -20.782   8.423  0.00  0.00    -0.387 OA
ATOM     15  H   LIG    1       24.323 -20.179   8.075  0.00  0.00    +0.210 HD
ENDBRANCH  13  14
BRANCH  13  16
ATOM     16  C   LIG    1       23.616 -21.919   6.808  0.00  0.00    +0.115 C 
BRANCH  16  17
ATOM     17  N   LIG    1       23.926 -22.043   5.374  0.00  0.00    -0.311 NA
ATOM     18  H   LIG    1       24.943 -22.158   5.302  0.00  0.00    +0.122 HD
BRANCH  17  20
ATOM     19  C   LIG    1       22.744 -19.922   5.490  0.00  0.00    +0.024 C 
ATOM     20  C   LIG    1       23.511 -20.884   4.577  0.00  0.00    +0.048 C 
ATOM     21  C   LIG    1       24.701 -20.148   3.958  0.00  0.00    +0.024 C 
ENDBRANCH  17  20
ENDBRANCH  16  17
ENDBRANCH  13  16
ENDBRANCH  12  13
ENDBRANCH   1  12
TORSDOF 7
ENDMDL
MODEL 8
REMARK VINA RESULT:      -7.1      1.509      6.524
REMARK  Name = *****
REMARK                            x       y       z     vdW  Elec       q    Type
REMARK                         _______ _______ _______ _____ _____    ______ ____
ROOT
ATOM      1  O   LIG    1       27.622 -21.808   7.429  0.00  0.00    -0.489 OA
ENDROOT
BRANCH   1   2
ATOM      2  C   LIG    1       28.801 -21.112   7.498  0.00  0.00    +0.130 C 
ATOM      3  C   LIG    1       28.975 -20.012   6.623  0.00  0.00    +0.041 C 
ATOM      4  C   LIG    1       30.144 -19.258   6.689  0.00  0.00    +0.050 C 
ATOM      5  N   LIG    1       30.047 -18.255   5.744  0.00  0.00    -0.360 NA
ATOM      6  H   LIG    1       30.753 -17.559   5.568  0.00  0.00    +0.165 HD
ATOM      7  C   LIG    1       28.850 -18.348   5.079  0.00  0.00    +0.083 C 
ATOM      8  C   LIG    1       31.182 -19.541   7.587  0.00  0.00    +0.026 C 
ATOM      9  C   LIG    1       31.015 -20.662   8.413  0.00  0.00    +0.006 C 
ATOM     10  C   LIG    1       28.168 -19.423   5.599  0.00  0.00    +0.031 C 
ATOM     11  C   LIG    1       29.861 -21.430   8.366  0.00  0.00    +0.046 C 
ENDBRANCH   1   2
BRANCH   1  12
ATOM     12  C   LIG    1       26.571 -21.353   8.297  0.00  0.00    +0.261 C 
BRANCH  12  13
ATOM     13  C   LIG    1       25.223 -21.719   7.656  0.00  0.00    +0.166 C 
BRANCH  13  14
ATOM     14  O   LIG    1       24.196 -20.791   8.044  0.00  0.00    -0.387 OA
ATOM     15  H   LIG    1       23.439 -21.337   8.341  0.00  0.00    +0.210 HD
ENDBRANCH  13  14
BRANCH  13  16
ATOM     16  C   LIG    1       25.313 -21.739   6.118  0.00  0.00    +0.115 C 
BRANCH  16  17
ATOM     17  N   LIG    1       25.289 -23.120   5.607  0.00  0.00    -0.311 NA
ATOM     18  H   LIG    1       24.549 -23.158   4.898  0.00  0.00    +0.122 HD
BRANCH  17  20
ATOM     19  C   LIG    1       23.558 -24.559   6.526  0.00  0.00    +0.024 C 
ATOM     20  C   LIG    1       25.024 -24.127   6.640  0.00  0.00    +0.048 C 
ATOM     21  C   LIG    1       25.922 -25.356   6.496  0.00  0.00    +0.024 C 
ENDBRANCH  17  20
ENDBRANCH  16  17
ENDBRANCH  13  16
ENDBRANCH  12  13
ENDBRANCH   1  12
TORSDOF 7
ENDMDL
MODEL 9
REMARK VINA RESULT:      -7.1      2.028      6.476
REMARK  Name = *****
REMARK                            x       y       z     vdW  Elec       q    Type
REMARK                         _______ _______ _______ _____ _____    ______ ____
ROOT
ATOM      1  O   LIG    1       27.630 -21.869   7.224  0.00  0.00    -0.489 OA
ENDROOT
BRANCH   1   2
ATOM      2  C   LIG    1       28.783 -21.146   7.394  0.00  0.00    +0.130 C 
ATOM      3  C   LIG    1       28.981 -20.011   6.571  0.00  0.00    +0.041 C 
ATOM      4  C   LIG    1       30.122 -19.230   6.739  0.00  0.00    +0.050 C 
ATOM      5  N   LIG    1       30.058 -18.195   5.826  0.00  0.00    -0.360 NA
ATOM      6  H   LIG    1       30.754 -17.476   5.721  0.00  0.00    +0.165 HD
ATOM      7  C   LIG    1       28.909 -18.294   5.083  0.00  0.00    +0.083 C 
ATOM      8  C   LIG    1       31.110 -19.520   7.691  0.00  0.00    +0.026 C 
ATOM      9  C   LIG    1       30.922 -20.675   8.464  0.00  0.00    +0.006 C 
ATOM     10  C   LIG    1       28.225 -19.404   5.520  0.00  0.00    +0.031 C 
ATOM     11  C   LIG    1       29.794 -21.470   8.316  0.00  0.00    +0.046 C 
ENDBRANCH   1   2
BRANCH   1  12
ATOM     12  C   LIG    1       26.630 -21.705   8.243  0.00  0.00    +0.261 C 
BRANCH  12  13
ATOM     13  C   LIG    1       25.289 -22.215   7.689  0.00  0.00    +0.166 C 
BRANCH  13  14
ATOM     14  O   LIG    1       24.184 -21.509   8.278  0.00  0.00    -0.387 OA
ATOM     15  H   LIG    1       23.382 -22.018   8.035  0.00  0.00    +0.210 HD
ENDBRANCH  13  14
BRANCH  13  16
ATOM     16  C   LIG    1       25.213 -22.061   6.158  0.00  0.00    +0.115 C 
BRANCH  16  17
ATOM     17  N   LIG    1       25.056 -20.647   5.779  0.00  0.00    -0.311 NA
ATOM     18  H   LIG    1       24.799 -20.140   6.633  0.00  0.00    +0.122 HD
BRANCH  17  20
ATOM     19  C   LIG    1       22.763 -19.911   5.444  0.00  0.00    +0.024 C 
ATOM     20  C   LIG    1       24.033 -20.420   4.753  0.00  0.00    +0.048 C 
ATOM     21  C   LIG    1       24.478 -19.399   3.705  0.00  0.00    +0.024 C 
ENDBRANCH  17  20
ENDBRANCH  16  17
ENDBRANCH  13  16
ENDBRANCH  12  13
ENDBRANCH   1  12
TORSDOF 7
ENDMDL
