MODEL 1
REMARK VINA RESULT:      -8.4      0.000      0.000
REMARK  Name = *****
REMARK                            x       y       z     vdW  Elec       q    Type
REMARK                         _______ _______ _______ _____ _____    ______ ____
ROOT
ATOM      1  C   LIG    1       25.042 -21.658   7.088  0.00  0.00    +0.118 C 
ENDROOT
BRANCH   1   2
ATOM      2  C   LIG    1       24.934 -23.168   6.769  0.00  0.00    +0.007 A 
ATOM      3  C   LIG    1       23.723 -23.880   6.678  0.00  0.00    +0.047 A 
ATOM      4 CL   LIG    1       22.163 -23.149   6.792  0.00  0.00    -0.083 Cl
ATOM      5  C   LIG    1       23.714 -25.266   6.443  0.00  0.00    +0.020 A 
ATOM      6  C   LIG    1       24.898 -25.965   6.229  0.00  0.00    +0.001 A 
ATOM      7  C   LIG    1       26.102 -25.281   6.248  0.00  0.00    +0.001 A 
ATOM      8  C   LIG    1       26.121 -23.911   6.523  0.00  0.00    +0.008 A 
ENDBRANCH   1   2
BRANCH   1   9
ATOM      9  C   LIG    1       26.509 -21.162   6.983  0.00  0.00    -0.012 A 
ATOM     10  C   LIG    1       26.952 -20.321   5.953  0.00  0.00    +0.007 A 
ATOM     11  C   LIG    1       28.280 -19.885   5.864  0.00  0.00    +0.000 A 
ATOM     12  C   LIG    1       29.211 -20.291   6.819  0.00  0.00    +0.000 A 
ATOM     13  C   LIG    1       28.808 -21.111   7.852  0.00  0.00    +0.000 A 
ATOM     14  C   LIG    1       27.476 -21.545   7.946  0.00  0.00    +0.007 A 
ENDBRANCH   1   9
BRANCH   1  15
ATOM     15  O   LIG    1       24.628 -21.470   8.467  0.00  0.00    -0.379 OA
ATOM     16  H   LIG    1       25.422 -21.493   9.028  0.00  0.00    +0.211 HD
ENDBRANCH   1  15
BRANCH   1  17
ATOM     17  C   LIG    1       24.010 -20.760   6.317  0.00  0.00    +0.060 C 
BRANCH  17  18
ATOM     18  C   LIG    1       23.996 -20.963   4.785  0.00  0.00    +0.087 C 
BRANCH  18  20
ATOM     19  C   LIG    1       22.441 -19.127   4.801  0.00  0.00    +0.104 C 
ATOM     20  N   LIG    1       23.458 -19.823   4.002  0.00  0.00    -0.308 NA
ATOM     21  C   LIG    1       24.492 -18.867   3.602  0.00  0.00    +0.104 C 
ENDBRANCH  18  20
ENDBRANCH  17  18
ENDBRANCH   1  17
TORSDOF 6
ENDMDL
MODEL 2
REMARK VINA RESULT:      -8.4      2.212      5.391
REMARK  Name = *****
REMARK                            x       y       z     vdW  Elec       q    Type
REMARK                         _______ _______ _______ _____ _____    ______ ____
ROOT
ATOM      1  C   LIG    1       25.175 -21.138   6.808  0.00  0.00    +0.118 C 
ENDROOT
BRANCH   1   2
ATOM      2  C   LIG    1       24.328 -20.357   5.775  0.00  0.00    +0.007 A 
ATOM      3  C   LIG    1       24.834 -19.799   4.586  0.00  0.00    +0.047 A 
ATOM      4 CL   LIG    1       26.460 -20.003   4.039  0.00  0.00    -0.083 Cl
ATOM      5  C   LIG    1       24.009 -19.052   3.727  0.00  0.00    +0.020 A 
ATOM      6  C   LIG    1       22.652 -18.895   3.994  0.00  0.00    +0.001 A 
ATOM      7  C   LIG    1       22.111 -19.486   5.123  0.00  0.00    +0.001 A 
ATOM      8  C   LIG    1       22.934 -20.195   6.002  0.00  0.00    +0.008 A 
ENDBRANCH   1   2
BRANCH   1   9
ATOM      9  C   LIG    1       24.933 -22.667   6.697  0.00  0.00    -0.012 A 
ATOM     10  C   LIG    1       23.650 -23.227   6.629  0.00  0.00    +0.007 A 
ATOM     11  C   LIG    1       23.442 -24.609   6.535  0.00  0.00    +0.000 A 
ATOM     12  C   LIG    1       24.535 -25.476   6.511  0.00  0.00    +0.000 A 
ATOM     13  C   LIG    1       25.812 -24.958   6.566  0.00  0.00    +0.000 A 
ATOM     14  C   LIG    1       26.022 -23.573   6.655  0.00  0.00    +0.007 A 
ENDBRANCH   1   9
BRANCH   1  15
ATOM     15  O   LIG    1       24.736 -20.733   8.131  0.00  0.00    -0.379 OA
ATOM     16  H   LIG    1       24.134 -21.416   8.473  0.00  0.00    +0.211 HD
ENDBRANCH   1  15
BRANCH   1  17
ATOM     17  C   LIG    1       26.693 -20.734   6.836  0.00  0.00    +0.060 C 
BRANCH  17  18
ATOM     18  C   LIG    1       27.213 -20.274   8.216  0.00  0.00    +0.087 C 
BRANCH  18  20
ATOM     19  C   LIG    1       29.228 -21.426   7.583  0.00  0.00    +0.104 C 
ATOM     20  N   LIG    1       28.688 -20.319   8.381  0.00  0.00    -0.308 NA
ATOM     21  C   LIG    1       29.345 -19.073   7.983  0.00  0.00    +0.104 C 
ENDBRANCH  18  20
ENDBRANCH  17  18
ENDBRANCH   1  17
TORSDOF 6
ENDMDL
MODEL 3
REMARK VINA RESULT:      -8.3      1.886      5.077
REMARK  Name = *****
REMARK                            x       y       z     vdW  Elec       q    Type
REMARK                         _______ _______ _______ _____ _____    ______ ____
ROOT
ATOM      1  C   LIG    1       25.705 -22.219   6.773  0.00  0.00    +0.118 C 
ENDROOT
BRANCH   1   2
ATOM      2  C   LIG    1       24.774 -21.314   5.931  0.00  0.00    +0.007 A 
ATOM      3  C   LIG    1       23.369 -21.312   6.019  0.00  0.00    +0.047 A 
ATOM      4 CL   LIG    1       22.473 -22.239   7.168  0.00  0.00    -0.083 Cl
ATOM      5  C   LIG    1       22.592 -20.500   5.174  0.00  0.00    +0.020 A 
ATOM      6  C   LIG    1       23.189 -19.627   4.270  0.00  0.00    +0.001 A 
ATOM      7  C   LIG    1       24.571 -19.559   4.206  0.00  0.00    +0.001 A 
ATOM      8  C   LIG    1       25.349 -20.394   5.013  0.00  0.00    +0.008 A 
ENDBRANCH   1   2
BRANCH   1   9
ATOM      9  C   LIG    1       25.559 -23.711   6.370  0.00  0.00    -0.012 A 
ATOM     10  C   LIG    1       25.895 -24.764   7.231  0.00  0.00    +0.007 A 
ATOM     11  C   LIG    1       25.766 -26.107   6.855  0.00  0.00    +0.000 A 
ATOM     12  C   LIG    1       25.292 -26.430   5.584  0.00  0.00    +0.000 A 
ATOM     13  C   LIG    1       24.942 -25.419   4.714  0.00  0.00    +0.000 A 
ATOM     14  C   LIG    1       25.066 -24.072   5.091  0.00  0.00    +0.007 A 
ENDBRANCH   1   9
BRANCH   1  15
ATOM     15  O   LIG    1       25.285 -22.111   8.158  0.00  0.00    -0.379 OA
ATOM     16  H   LIG    1       24.334 -22.303   8.203  0.00  0.00    +0.211 HD
ENDBRANCH   1  15
BRANCH   1  17
ATOM     17  C   LIG    1       27.193 -21.723   6.848  0.00  0.00    +0.060 C 
BRANCH  17  18
ATOM     18  C   LIG    1       27.489 -20.740   8.003  0.00  0.00    +0.087 C 
BRANCH  18  20
ATOM     19  C   LIG    1       29.859 -21.108   8.191  0.00  0.00    +0.104 C 
ATOM     20  N   LIG    1       28.824 -20.094   7.955  0.00  0.00    -0.308 NA
ATOM     21  C   LIG    1       29.088 -19.423   6.681  0.00  0.00    +0.104 C 
ENDBRANCH  18  20
ENDBRANCH  17  18
ENDBRANCH   1  17
TORSDOF 6
ENDMDL
MODEL 4
REMARK VINA RESULT:      -7.9      1.582      4.494
REMARK  Name = *****
REMARK                            x       y       z     vdW  Elec       q    Type
REMARK                         _______ _______ _______ _____ _____    ______ ____
ROOT
ATOM      1  C   LIG    1       24.994 -21.486   5.854  0.00  0.00    +0.118 C 
ENDROOT
BRANCH   1   2
ATOM      2  C   LIG    1       26.296 -20.864   6.412  0.00  0.00    +0.007 A 
ATOM      3  C   LIG    1       26.634 -20.810   7.777  0.00  0.00    +0.047 A 
ATOM      4 CL   LIG    1       25.699 -21.540   9.032  0.00  0.00    -0.083 Cl
ATOM      5  C   LIG    1       27.812 -20.173   8.207  0.00  0.00    +0.020 A 
ATOM      6  C   LIG    1       28.710 -19.633   7.292  0.00  0.00    +0.001 A 
ATOM      7  C   LIG    1       28.436 -19.726   5.938  0.00  0.00    +0.001 A 
ATOM      8  C   LIG    1       27.248 -20.321   5.506  0.00  0.00    +0.008 A 
ENDBRANCH   1   2
BRANCH   1   9
ATOM      9  C   LIG    1       24.931 -23.011   6.135  0.00  0.00    -0.012 A 
ATOM     10  C   LIG    1       26.078 -23.796   6.312  0.00  0.00    +0.007 A 
ATOM     11  C   LIG    1       26.011 -25.173   6.559  0.00  0.00    +0.000 A 
ATOM     12  C   LIG    1       24.770 -25.806   6.632  0.00  0.00    +0.000 A 
ATOM     13  C   LIG    1       23.620 -25.062   6.473  0.00  0.00    +0.000 A 
ATOM     14  C   LIG    1       23.686 -23.681   6.230  0.00  0.00    +0.007 A 
ENDBRANCH   1   9
BRANCH   1  15
ATOM     15  O   LIG    1       25.011 -21.320   4.412  0.00  0.00    -0.379 OA
ATOM     16  H   LIG    1       24.319 -21.888   4.033  0.00  0.00    +0.211 HD
ENDBRANCH   1  15
BRANCH   1  17
ATOM     17  C   LIG    1       23.686 -20.711   6.251  0.00  0.00    +0.060 C 
BRANCH  17  18
ATOM     18  C   LIG    1       22.792 -20.301   5.060  0.00  0.00    +0.087 C 
BRANCH  18  20
ATOM     19  C   LIG    1       23.908 -18.709   3.642  0.00  0.00    +0.104 C 
ATOM     20  N   LIG    1       22.875 -18.870   4.672  0.00  0.00    -0.308 NA
ATOM     21  C   LIG    1       21.606 -18.341   4.170  0.00  0.00    +0.104 C 
ENDBRANCH  18  20
ENDBRANCH  17  18
ENDBRANCH   1  17
TORSDOF 6
ENDMDL
MODEL 5
REMARK VINA RESULT:      -7.9      2.361      4.989
REMARK  Name = *****
REMARK                            x       y       z     vdW  Elec       q    Type
REMARK                         _______ _______ _______ _____ _____    ______ ____
ROOT
ATOM      1  C   LIG    1       24.192 -21.958   5.628  0.00  0.00    +0.118 C 
ENDROOT
BRANCH   1   2
ATOM      2  C   LIG    1       23.529 -20.706   5.005  0.00  0.00    +0.007 A 
ATOM      3  C   LIG    1       24.231 -19.657   4.383  0.00  0.00    +0.047 A 
ATOM      4 CL   LIG    1       25.937 -19.664   4.112  0.00  0.00    -0.083 Cl
ATOM      5  C   LIG    1       23.557 -18.524   3.894  0.00  0.00    +0.020 A 
ATOM      6  C   LIG    1       22.170 -18.434   3.953  0.00  0.00    +0.001 A 
ATOM      7  C   LIG    1       21.446 -19.479   4.502  0.00  0.00    +0.001 A 
ATOM      8  C   LIG    1       22.112 -20.589   5.027  0.00  0.00    +0.008 A 
ENDBRANCH   1   2
BRANCH   1   9
ATOM      9  C   LIG    1       25.297 -21.566   6.644  0.00  0.00    -0.012 A 
ATOM     10  C   LIG    1       26.644 -21.907   6.466  0.00  0.00    +0.007 A 
ATOM     11  C   LIG    1       27.634 -21.554   7.394  0.00  0.00    +0.000 A 
ATOM     12  C   LIG    1       27.287 -20.841   8.541  0.00  0.00    +0.000 A 
ATOM     13  C   LIG    1       25.972 -20.480   8.743  0.00  0.00    +0.000 A 
ATOM     14  C   LIG    1       24.980 -20.829   7.812  0.00  0.00    +0.007 A 
ENDBRANCH   1   9
BRANCH   1  15
ATOM     15  O   LIG    1       24.841 -22.689   4.555  0.00  0.00    -0.379 OA
ATOM     16  H   LIG    1       24.172 -22.897   3.881  0.00  0.00    +0.211 HD
ENDBRANCH   1  15
BRANCH   1  17
ATOM     17  C   LIG    1       23.175 -23.023   6.173  0.00  0.00    +0.060 C 
BRANCH  17  18
ATOM     18  C   LIG    1       23.826 -24.251   6.849  0.00  0.00    +0.087 C 
BRANCH  18  20
ATOM     19  C   LIG    1       25.941 -25.389   6.707  0.00  0.00    +0.104 C 
ATOM     20  N   LIG    1       24.713 -25.057   5.973  0.00  0.00    -0.308 NA
ATOM     21  C   LIG    1       24.083 -26.291   5.504  0.00  0.00    +0.104 C 
ENDBRANCH  18  20
ENDBRANCH  17  18
ENDBRANCH   1  17
TORSDOF 6
ENDMDL
MODEL 6
REMARK VINA RESULT:      -7.8      1.912      5.182
REMARK  Name = *****
REMARK                            x       y       z     vdW  Elec       q    Type
REMARK                         _______ _______ _______ _____ _____    ______ ____
ROOT
ATOM      1  C   LIG    1       24.874 -21.536   6.143  0.00  0.00    +0.118 C 
ENDROOT
BRANCH   1   2
ATOM      2  C   LIG    1       26.314 -21.082   6.480  0.00  0.00    +0.007 A 
ATOM      3  C   LIG    1       27.030 -21.483   7.624  0.00  0.00    +0.047 A 
ATOM      4 CL   LIG    1       26.452 -22.640   8.769  0.00  0.00    -0.083 Cl
ATOM      5  C   LIG    1       28.316 -20.978   7.888  0.00  0.00    +0.020 A 
ATOM      6  C   LIG    1       28.945 -20.116   6.995  0.00  0.00    +0.001 A 
ATOM      7  C   LIG    1       28.292 -19.754   5.829  0.00  0.00    +0.001 A 
ATOM      8  C   LIG    1       26.997 -20.220   5.580  0.00  0.00    +0.008 A 
ENDBRANCH   1   2
BRANCH   1   9
ATOM      9  C   LIG    1       24.121 -20.458   5.318  0.00  0.00    -0.012 A 
ATOM     10  C   LIG    1       24.620 -19.943   4.114  0.00  0.00    +0.007 A 
ATOM     11  C   LIG    1       23.935 -18.965   3.380  0.00  0.00    +0.000 A 
ATOM     12  C   LIG    1       22.717 -18.472   3.845  0.00  0.00    +0.000 A 
ATOM     13  C   LIG    1       22.192 -18.965   5.021  0.00  0.00    +0.000 A 
ATOM     14  C   LIG    1       22.874 -19.948   5.756  0.00  0.00    +0.007 A 
ENDBRANCH   1   9
BRANCH   1  15
ATOM     15  O   LIG    1       24.157 -21.688   7.396  0.00  0.00    -0.379 OA
ATOM     16  H   LIG    1       24.638 -21.195   8.083  0.00  0.00    +0.211 HD
ENDBRANCH   1  15
BRANCH   1  17
ATOM     17  C   LIG    1       24.777 -22.982   5.539  0.00  0.00    +0.060 C 
BRANCH  17  18
ATOM     18  C   LIG    1       24.019 -24.000   6.420  0.00  0.00    +0.087 C 
BRANCH  18  20
ATOM     19  C   LIG    1       24.130 -26.198   5.448  0.00  0.00    +0.104 C 
ATOM     20  N   LIG    1       24.649 -25.340   6.521  0.00  0.00    -0.308 NA
ATOM     21  C   LIG    1       26.109 -25.293   6.437  0.00  0.00    +0.104 C 
ENDBRANCH  18  20
ENDBRANCH  17  18
ENDBRANCH   1  17
TORSDOF 6
ENDMDL
MODEL 7
REMARK VINA RESULT:      -7.7      2.446      5.635
REMARK  Name = *****
REMARK                            x       y       z     vdW  Elec       q    Type
REMARK                         _______ _______ _______ _____ _____    ______ ____
ROOT
ATOM      1  C   LIG    1       26.502 -21.275   7.068  0.00  0.00    +0.118 C 
ENDROOT
BRANCH   1   2
ATOM      2  C   LIG    1       27.707 -20.392   6.666  0.00  0.00    +0.007 A 
ATOM      3  C   LIG    1       28.973 -20.441   7.280  0.00  0.00    +0.047 A 
ATOM      4 CL   LIG    1       29.410 -21.580   8.502  0.00  0.00    -0.083 Cl
ATOM      5  C   LIG    1       30.000 -19.561   6.894  0.00  0.00    +0.020 A 
ATOM      6  C   LIG    1       29.817 -18.660   5.850  0.00  0.00    +0.001 A 
ATOM      7  C   LIG    1       28.604 -18.633   5.183  0.00  0.00    +0.001 A 
ATOM      8  C   LIG    1       27.565 -19.475   5.589  0.00  0.00    +0.008 A 
ENDBRANCH   1   2
BRANCH   1   9
ATOM      9  C   LIG    1       25.242 -20.926   6.232  0.00  0.00    -0.012 A 
ATOM     10  C   LIG    1       25.239 -20.927   4.831  0.00  0.00    +0.007 A 
ATOM     11  C   LIG    1       24.097 -20.604   4.086  0.00  0.00    +0.000 A 
ATOM     12  C   LIG    1       22.914 -20.263   4.740  0.00  0.00    +0.000 A 
ATOM     13  C   LIG    1       22.879 -20.262   6.119  0.00  0.00    +0.000 A 
ATOM     14  C   LIG    1       24.020 -20.590   6.867  0.00  0.00    +0.007 A 
ENDBRANCH   1   9
BRANCH   1  15
ATOM     15  O   LIG    1       26.187 -20.982   8.454  0.00  0.00    -0.379 OA
ATOM     16  H   LIG    1       26.976 -21.168   8.991  0.00  0.00    +0.211 HD
ENDBRANCH   1  15
BRANCH   1  17
ATOM     17  C   LIG    1       26.820 -22.813   7.128  0.00  0.00    +0.060 C 
BRANCH  17  18
ATOM     18  C   LIG    1       25.624 -23.732   6.794  0.00  0.00    +0.087 C 
BRANCH  18  20
ATOM     19  C   LIG    1       25.951 -26.116   6.755  0.00  0.00    +0.104 C 
ATOM     20  N   LIG    1       25.946 -24.898   5.934  0.00  0.00    -0.308 NA
ATOM     21  C   LIG    1       25.005 -25.068   4.826  0.00  0.00    +0.104 C 
ENDBRANCH  18  20
ENDBRANCH  17  18
ENDBRANCH   1  17
TORSDOF 6
ENDMDL
MODEL 8
REMARK VINA RESULT:      -7.7      1.956      4.366
REMARK  Name = *****
REMARK                            x       y       z     vdW  Elec       q    Type
REMARK                         _______ _______ _______ _____ _____    ______ ____
ROOT
ATOM      1  C   LIG    1       25.134 -21.991   5.943  0.00  0.00    +0.118 C 
ENDROOT
BRANCH   1   2
ATOM      2  C   LIG    1       24.211 -20.890   5.368  0.00  0.00    +0.007 A 
ATOM      3  C   LIG    1       23.256 -20.177   6.118  0.00  0.00    +0.047 A 
ATOM      4 CL   LIG    1       23.052 -20.341   7.825  0.00  0.00    -0.083 Cl
ATOM      5  C   LIG    1       22.414 -19.232   5.507  0.00  0.00    +0.020 A 
ATOM      6  C   LIG    1       22.541 -18.926   4.155  0.00  0.00    +0.001 A 
ATOM      7  C   LIG    1       23.514 -19.564   3.405  0.00  0.00    +0.001 A 
ATOM      8  C   LIG    1       24.327 -20.535   3.997  0.00  0.00    +0.008 A 
ENDBRANCH   1   2
BRANCH   1   9
ATOM      9  C   LIG    1       26.501 -21.406   6.388  0.00  0.00    -0.012 A 
ATOM     10  C   LIG    1       27.093 -20.303   5.759  0.00  0.00    +0.007 A 
ATOM     11  C   LIG    1       28.331 -19.787   6.164  0.00  0.00    +0.000 A 
ATOM     12  C   LIG    1       29.016 -20.377   7.226  0.00  0.00    +0.000 A 
ATOM     13  C   LIG    1       28.457 -21.459   7.874  0.00  0.00    +0.000 A 
ATOM     14  C   LIG    1       27.215 -21.974   7.472  0.00  0.00    +0.007 A 
ENDBRANCH   1   9
BRANCH   1  15
ATOM     15  O   LIG    1       25.404 -22.937   4.876  0.00  0.00    -0.379 OA
ATOM     16  H   LIG    1       26.066 -22.544   4.282  0.00  0.00    +0.211 HD
ENDBRANCH   1  15
BRANCH   1  17
ATOM     17  C   LIG    1       24.452 -22.907   7.021  0.00  0.00    +0.060 C 
BRANCH  17  18
ATOM     18  C   LIG    1       23.666 -24.106   6.445  0.00  0.00    +0.087 C 
BRANCH  18  20
ATOM     19  C   LIG    1       24.237 -26.149   5.311  0.00  0.00    +0.104 C 
ATOM     20  N   LIG    1       24.333 -25.424   6.584  0.00  0.00    -0.308 NA
ATOM     21  C   LIG    1       25.741 -25.314   6.970  0.00  0.00    +0.104 C 
ENDBRANCH  18  20
ENDBRANCH  17  18
ENDBRANCH   1  17
TORSDOF 6
ENDMDL
MODEL 9
REMARK VINA RESULT:      -7.5      1.984      4.284
REMARK  Name = *****
REMARK                            x       y       z     vdW  Elec       q    Type
REMARK                         _______ _______ _______ _____ _____    ______ ____
ROOT
ATOM      1  C   LIG    1       25.349 -21.351   6.150  0.00  0.00    +0.118 C 
ENDROOT
BRANCH   1   2
ATOM      2  C   LIG    1       24.815 -22.802   6.081  0.00  0.00    +0.007 A 
ATOM      3  C   LIG    1       23.694 -23.275   6.789  0.00  0.00    +0.047 A 
ATOM      4 CL   LIG    1       22.670 -22.275   7.756  0.00  0.00    -0.083 Cl
ATOM      5  C   LIG    1       23.309 -24.626   6.717  0.00  0.00    +0.020 A 
ATOM      6  C   LIG    1       23.984 -25.521   5.894  0.00  0.00    +0.001 A 
ATOM      7  C   LIG    1       25.051 -25.071   5.135  0.00  0.00    +0.001 A 
ATOM      8  C   LIG    1       25.465 -23.740   5.234  0.00  0.00    +0.008 A 
ENDBRANCH   1   2
BRANCH   1   9
ATOM      9  C   LIG    1       24.427 -20.373   5.375  0.00  0.00    -0.012 A 
ATOM     10  C   LIG    1       23.123 -20.071   5.791  0.00  0.00    +0.007 A 
ATOM     11  C   LIG    1       22.296 -19.192   5.079  0.00  0.00    +0.000 A 
ATOM     12  C   LIG    1       22.766 -18.586   3.914  0.00  0.00    +0.000 A 
ATOM     13  C   LIG    1       24.048 -18.852   3.482  0.00  0.00    +0.000 A 
ATOM     14  C   LIG    1       24.879 -19.730   4.196  0.00  0.00    +0.007 A 
ENDBRANCH   1   9
BRANCH   1  15
ATOM     15  O   LIG    1       26.642 -21.328   5.492  0.00  0.00    -0.379 OA
ATOM     16  H   LIG    1       27.208 -20.690   5.958  0.00  0.00    +0.211 HD
ENDBRANCH   1  15
BRANCH   1  17
ATOM     17  C   LIG    1       25.715 -20.867   7.599  0.00  0.00    +0.060 C 
BRANCH  17  18
ATOM     18  C   LIG    1       26.899 -21.618   8.250  0.00  0.00    +0.087 C 
BRANCH  18  20
ATOM     19  C   LIG    1       29.289 -21.658   7.977  0.00  0.00    +0.104 C 
ATOM     20  N   LIG    1       28.148 -20.828   8.386  0.00  0.00    -0.308 NA
ATOM     21  C   LIG    1       28.137 -19.599   7.592  0.00  0.00    +0.104 C 
ENDBRANCH  18  20
ENDBRANCH  17  18
ENDBRANCH   1  17
TORSDOF 6
ENDMDL
