MODEL 1
REMARK VINA RESULT:      -8.2      0.000      0.000
REMARK  Name = *****
REMARK                            x       y       z     vdW  Elec       q    Type
REMARK                         _______ _______ _______ _____ _____    ______ ____
ROOT
ATOM      1  C   LIG    1       27.396 -20.211   6.884  0.00  0.00    +0.125 C 
ATOM      2  C   LIG    1       28.865 -19.942   6.431  0.00  0.00    +0.101 C 
ATOM      3  N   LIG    1       29.264 -21.071   7.316  0.00  0.00    -0.260 N 
ATOM      4  C   LIG    1       30.332 -20.668   8.098  0.00  0.00    +0.131 C 
ATOM      5  C   LIG    1       30.638 -19.372   7.900  0.00  0.00    +0.016 C 
ATOM      6  C   LIG    1       29.689 -18.746   6.906  0.00  0.00    +0.068 C 
ATOM      7  C   LIG    1       28.024 -21.198   7.870  0.00  0.00    +0.228 C 
ATOM      8  O   LIG    1       27.692 -21.809   8.868  0.00  0.00    -0.275 OA
ENDROOT
BRANCH   1  10
ATOM      9  C   LIG    1       25.027 -20.723   6.194  0.00  0.00    +0.038 C 
ATOM     10  C   LIG    1       26.499 -20.836   5.828  0.00  0.00    +0.125 C 
BRANCH  10  11
ATOM     11  O   LIG    1       26.749 -20.171   4.591  0.00  0.00    -0.391 OA
ATOM     12  H   LIG    1       26.865 -20.842   3.894  0.00  0.00    +0.210 HD
ENDBRANCH  10  11
ENDBRANCH   1  10
BRANCH   4  13
ATOM     13  C   LIG    1       30.999 -21.660   8.991  0.00  0.00    +0.352 C 
ATOM     14  O   LIG    1       30.658 -21.864  10.145  0.00  0.00    -0.244 OA
BRANCH  13  15
ATOM     15  O   LIG    1       32.080 -22.265   8.445  0.00  0.00    -0.476 OA
ATOM     16  H   LIG    1       32.156 -23.235   8.595  0.00  0.00    +0.295 HD
ENDBRANCH  13  15
ENDBRANCH   4  13
BRANCH   5  17
ATOM     17  S   LIG    1       31.823 -18.401   8.691  0.00  0.00    -0.126 S 
BRANCH  17  18
ATOM     18  C   LIG    1       30.761 -17.172   9.539  0.00  0.00    +0.093 C 
BRANCH  18  19
ATOM     19  C   LIG    1       30.348 -17.602  10.954  0.00  0.00    +0.113 C 
BRANCH  19  20
ATOM     20  N   LIG    1       31.434 -17.541  11.912  0.00  0.00    -0.335 N 
ATOM     21  H   LIG    1       32.011 -18.378  11.942  0.00  0.00    +0.147 HD
BRANCH  20  22
ATOM     22  C   LIG    1       32.016 -16.406  12.385  0.00  0.00    +0.171 C 
ATOM     23  N   LIG    1       31.460 -15.372  12.901  0.00  0.00    -0.293 NA
ATOM     24  H   LIG    1       30.446 -15.469  12.891  0.00  0.00    +0.188 HD
ENDBRANCH  20  22
ENDBRANCH  19  20
ENDBRANCH  18  19
ENDBRANCH  17  18
ENDBRANCH   5  17
TORSDOF 9
ENDMDL
MODEL 2
REMARK VINA RESULT:      -7.3      3.238      6.912
REMARK  Name = *****
REMARK                            x       y       z     vdW  Elec       q    Type
REMARK                         _______ _______ _______ _____ _____    ______ ____
ROOT
ATOM      1  C   LIG    1       30.392 -19.909   7.244  0.00  0.00    +0.125 C 
ATOM      2  C   LIG    1       29.050 -19.197   6.887  0.00  0.00    +0.101 C 
ATOM      3  N   LIG    1       28.422 -20.008   7.967  0.00  0.00    -0.260 N 
ATOM      4  C   LIG    1       27.262 -20.581   7.475  0.00  0.00    +0.131 C 
ATOM      5  C   LIG    1       27.088 -20.317   6.166  0.00  0.00    +0.016 C 
ATOM      6  C   LIG    1       28.240 -19.504   5.628  0.00  0.00    +0.068 C 
ATOM      7  C   LIG    1       29.530 -20.777   8.163  0.00  0.00    +0.228 C 
ATOM      8  O   LIG    1       29.636 -21.825   8.772  0.00  0.00    -0.275 OA
ENDROOT
BRANCH   1  10
ATOM      9  C   LIG    1       30.787 -17.783   8.537  0.00  0.00    +0.038 C 
ATOM     10  C   LIG    1       31.417 -19.038   7.951  0.00  0.00    +0.125 C 
BRANCH  10  11
ATOM     11  O   LIG    1       32.015 -19.815   8.986  0.00  0.00    -0.391 OA
ATOM     12  H   LIG    1       32.982 -19.800   8.867  0.00  0.00    +0.210 HD
ENDBRANCH  10  11
ENDBRANCH   1  10
BRANCH   4  13
ATOM     13  C   LIG    1       26.378 -21.350   8.399  0.00  0.00    +0.352 C 
ATOM     14  O   LIG    1       26.086 -22.523   8.231  0.00  0.00    -0.244 OA
BRANCH  13  15
ATOM     15  O   LIG    1       25.849 -20.616   9.406  0.00  0.00    -0.476 OA
ATOM     16  H   LIG    1       26.280 -20.714  10.286  0.00  0.00    +0.295 HD
ENDBRANCH  13  15
ENDBRANCH   4  13
BRANCH   5  17
ATOM     17  S   LIG    1       25.852 -20.873   5.100  0.00  0.00    -0.126 S 
BRANCH  17  18
ATOM     18  C   LIG    1       24.348 -20.304   5.978  0.00  0.00    +0.093 C 
BRANCH  18  19
ATOM     19  C   LIG    1       23.287 -21.403   6.137  0.00  0.00    +0.113 C 
BRANCH  19  20
ATOM     20  N   LIG    1       23.831 -22.743   6.046  0.00  0.00    -0.335 N 
ATOM     21  H   LIG    1       24.825 -22.776   5.835  0.00  0.00    +0.147 HD
BRANCH  20  22
ATOM     22  C   LIG    1       23.317 -23.854   6.640  0.00  0.00    +0.171 C 
ATOM     23  N   LIG    1       23.474 -25.084   6.316  0.00  0.00    -0.293 NA
ATOM     24  H   LIG    1       24.041 -25.163   5.474  0.00  0.00    +0.188 HD
ENDBRANCH  20  22
ENDBRANCH  19  20
ENDBRANCH  18  19
ENDBRANCH  17  18
ENDBRANCH   5  17
TORSDOF 9
ENDMDL
MODEL 3
REMARK VINA RESULT:      -7.2      3.927      5.365
REMARK  Name = *****
REMARK                            x       y       z     vdW  Elec       q    Type
REMARK                         _______ _______ _______ _____ _____    ______ ____
ROOT
ATOM      1  C   LIG    1       23.225 -20.487   6.156  0.00  0.00    +0.125 C 
ATOM      2  C   LIG    1       24.699 -20.602   5.655  0.00  0.00    +0.101 C 
ATOM      3  N   LIG    1       24.508 -22.079   5.668  0.00  0.00    -0.260 N 
ATOM      4  C   LIG    1       25.581 -22.661   6.319  0.00  0.00    +0.131 C 
ATOM      5  C   LIG    1       26.426 -21.738   6.817  0.00  0.00    +0.016 C 
ATOM      6  C   LIG    1       25.915 -20.344   6.543  0.00  0.00    +0.068 C 
ATOM      7  C   LIG    1       23.294 -22.011   6.287  0.00  0.00    +0.228 C 
ATOM      8  O   LIG    1       22.657 -22.899   6.820  0.00  0.00    -0.275 OA
ENDROOT
BRANCH   1  10
ATOM      9  C   LIG    1       22.915 -19.158   4.038  0.00  0.00    +0.038 C 
ATOM     10  C   LIG    1       22.232 -19.971   5.128  0.00  0.00    +0.125 C 
BRANCH  10  11
ATOM     11  O   LIG    1       21.567 -21.096   4.557  0.00  0.00    -0.391 OA
ATOM     12  H   LIG    1       20.631 -20.866   4.417  0.00  0.00    +0.210 HD
ENDBRANCH  10  11
ENDBRANCH   1  10
BRANCH   4  13
ATOM     13  C   LIG    1       25.691 -24.148   6.363  0.00  0.00    +0.352 C 
ATOM     14  O   LIG    1       25.892 -24.778   7.388  0.00  0.00    -0.244 OA
BRANCH  13  15
ATOM     15  O   LIG    1       25.633 -24.749   5.152  0.00  0.00    -0.476 OA
ATOM     16  H   LIG    1       25.288 -25.672   5.141  0.00  0.00    +0.295 HD
ENDBRANCH  13  15
ENDBRANCH   4  13
BRANCH   5  17
ATOM     17  S   LIG    1       27.847 -21.965   7.767  0.00  0.00    -0.126 S 
BRANCH  17  18
ATOM     18  C   LIG    1       29.016 -20.832   6.927  0.00  0.00    +0.093 C 
BRANCH  18  19
ATOM     19  C   LIG    1       29.968 -20.116   7.896  0.00  0.00    +0.113 C 
BRANCH  19  20
ATOM     20  N   LIG    1       31.201 -20.841   8.130  0.00  0.00    -0.335 N 
ATOM     21  H   LIG    1       32.043 -20.307   7.930  0.00  0.00    +0.147 HD
BRANCH  20  22
ATOM     22  C   LIG    1       31.358 -21.894   8.975  0.00  0.00    +0.171 C 
ATOM     23  N   LIG    1       30.904 -22.044  10.165  0.00  0.00    -0.293 NA
ATOM     24  H   LIG    1       30.399 -21.212  10.463  0.00  0.00    +0.188 HD
ENDBRANCH  20  22
ENDBRANCH  19  20
ENDBRANCH  18  19
ENDBRANCH  17  18
ENDBRANCH   5  17
TORSDOF 9
ENDMDL
MODEL 4
REMARK VINA RESULT:      -7.1      5.428      8.367
REMARK  Name = *****
REMARK                            x       y       z     vdW  Elec       q    Type
REMARK                         _______ _______ _______ _____ _____    ______ ____
ROOT
ATOM      1  C   LIG    1       24.914 -20.597   4.046  0.00  0.00    +0.125 C 
ATOM      2  C   LIG    1       24.234 -21.548   5.079  0.00  0.00    +0.101 C 
ATOM      3  N   LIG    1       25.186 -21.007   6.089  0.00  0.00    -0.260 N 
ATOM      4  C   LIG    1       25.758 -22.065   6.773  0.00  0.00    +0.131 C 
ATOM      5  C   LIG    1       25.364 -23.254   6.279  0.00  0.00    +0.016 C 
ATOM      6  C   LIG    1       24.442 -23.062   5.099  0.00  0.00    +0.068 C 
ATOM      7  C   LIG    1       25.917 -20.317   5.168  0.00  0.00    +0.228 C 
ATOM      8  O   LIG    1       27.019 -19.814   5.287  0.00  0.00    -0.275 OA
ENDROOT
BRANCH   1  10
ATOM      9  C   LIG    1       22.905 -19.165   4.558  0.00  0.00    +0.038 C 
ATOM     10  C   LIG    1       24.076 -19.404   3.617  0.00  0.00    +0.125 C 
BRANCH  10  11
ATOM     11  O   LIG    1       24.925 -18.259   3.589  0.00  0.00    -0.391 OA
ATOM     12  H   LIG    1       24.744 -17.758   2.773  0.00  0.00    +0.210 HD
ENDBRANCH  10  11
ENDBRANCH   1  10
BRANCH   4  13
ATOM     13  C   LIG    1       26.664 -21.786   7.925  0.00  0.00    +0.352 C 
ATOM     14  O   LIG    1       26.266 -21.578   9.060  0.00  0.00    -0.244 OA
BRANCH  13  15
ATOM     15  O   LIG    1       27.974 -21.696   7.597  0.00  0.00    -0.476 OA
ATOM     16  H   LIG    1       28.572 -22.358   8.015  0.00  0.00    +0.295 HD
ENDBRANCH  13  15
ENDBRANCH   4  13
BRANCH   5  17
ATOM     17  S   LIG    1       25.860 -24.840   6.736  0.00  0.00    -0.126 S 
BRANCH  17  18
ATOM     18  C   LIG    1       25.039 -25.851   5.448  0.00  0.00    +0.093 C 
BRANCH  18  19
ATOM     19  C   LIG    1       25.914 -27.003   4.932  0.00  0.00    +0.113 C 
BRANCH  19  20
ATOM     20  N   LIG    1       25.585 -28.284   5.526  0.00  0.00    -0.335 N 
ATOM     21  H   LIG    1       26.380 -28.773   5.930  0.00  0.00    +0.147 HD
BRANCH  20  22
ATOM     22  C   LIG    1       24.364 -28.653   5.996  0.00  0.00    +0.171 C 
ATOM     23  N   LIG    1       23.412 -29.251   5.380  0.00  0.00    -0.293 NA
ATOM     24  H   LIG    1       23.660 -29.408   4.405  0.00  0.00    +0.188 HD
ENDBRANCH  20  22
ENDBRANCH  19  20
ENDBRANCH  18  19
ENDBRANCH  17  18
ENDBRANCH   5  17
TORSDOF 9
ENDMDL
MODEL 5
REMARK VINA RESULT:      -6.8      4.249      6.507
REMARK  Name = *****
REMARK                            x       y       z     vdW  Elec       q    Type
REMARK                         _______ _______ _______ _____ _____    ______ ____
ROOT
ATOM      1  C   LIG    1       25.944 -25.449   6.192  0.00  0.00    +0.125 C 
ATOM      2  C   LIG    1       25.553 -24.355   7.234  0.00  0.00    +0.101 C 
ATOM      3  N   LIG    1       24.582 -23.849   6.224  0.00  0.00    -0.260 N 
ATOM      4  C   LIG    1       24.731 -22.478   6.110  0.00  0.00    +0.131 C 
ATOM      5  C   LIG    1       25.749 -22.020   6.863  0.00  0.00    +0.016 C 
ATOM      6  C   LIG    1       26.441 -23.158   7.574  0.00  0.00    +0.068 C 
ATOM      7  C   LIG    1       25.040 -24.668   5.234  0.00  0.00    +0.228 C 
ATOM      8  O   LIG    1       24.829 -24.613   4.038  0.00  0.00    -0.275 OA
ENDROOT
BRANCH   1  10
ATOM      9  C   LIG    1       25.425 -27.744   5.290  0.00  0.00    +0.038 C 
ATOM     10  C   LIG    1       25.471 -26.854   6.524  0.00  0.00    +0.125 C 
BRANCH  10  11
ATOM     11  O   LIG    1       26.366 -27.402   7.490  0.00  0.00    -0.391 OA
ATOM     12  H   LIG    1       25.844 -27.737   8.242  0.00  0.00    +0.210 HD
ENDBRANCH  10  11
ENDBRANCH   1  10
BRANCH   4  13
ATOM     13  C   LIG    1       23.788 -21.709   5.246  0.00  0.00    +0.352 C 
ATOM     14  O   LIG    1       22.800 -21.135   5.673  0.00  0.00    -0.244 OA
BRANCH  13  15
ATOM     15  O   LIG    1       24.068 -21.768   3.923  0.00  0.00    -0.476 OA
ATOM     16  H   LIG    1       24.547 -20.994   3.547  0.00  0.00    +0.295 HD
ENDBRANCH  13  15
ENDBRANCH   4  13
BRANCH   5  17
ATOM     17  S   LIG    1       26.372 -20.417   6.991  0.00  0.00    -0.126 S 
BRANCH  17  18
ATOM     18  C   LIG    1       28.117 -20.678   6.497  0.00  0.00    +0.093 C 
BRANCH  18  19
ATOM     19  C   LIG    1       29.124 -20.146   7.528  0.00  0.00    +0.113 C 
BRANCH  19  20
ATOM     20  N   LIG    1       30.175 -21.091   7.844  0.00  0.00    -0.335 N 
ATOM     21  H   LIG    1       30.436 -21.698   7.071  0.00  0.00    +0.147 HD
BRANCH  20  22
ATOM     22  C   LIG    1       31.109 -20.947   8.822  0.00  0.00    +0.171 C 
ATOM     23  N   LIG    1       31.865 -21.838   9.350  0.00  0.00    -0.293 NA
ATOM     24  H   LIG    1       31.660 -22.757   8.960  0.00  0.00    +0.188 HD
ENDBRANCH  20  22
ENDBRANCH  19  20
ENDBRANCH  18  19
ENDBRANCH  17  18
ENDBRANCH   5  17
TORSDOF 9
ENDMDL
MODEL 6
REMARK VINA RESULT:      -6.7      3.305      6.936
REMARK  Name = *****
REMARK                            x       y       z     vdW  Elec       q    Type
REMARK                         _______ _______ _______ _____ _____    ______ ____
ROOT
ATOM      1  C   LIG    1       30.448 -19.907   7.253  0.00  0.00    +0.125 C 
ATOM      2  C   LIG    1       29.115 -19.198   6.859  0.00  0.00    +0.101 C 
ATOM      3  N   LIG    1       28.472 -19.960   7.966  0.00  0.00    -0.260 N 
ATOM      4  C   LIG    1       27.311 -20.542   7.489  0.00  0.00    +0.131 C 
ATOM      5  C   LIG    1       27.148 -20.329   6.170  0.00  0.00    +0.016 C 
ATOM      6  C   LIG    1       28.311 -19.548   5.608  0.00  0.00    +0.068 C 
ATOM      7  C   LIG    1       29.572 -20.730   8.201  0.00  0.00    +0.228 C 
ATOM      8  O   LIG    1       29.664 -21.754   8.852  0.00  0.00    -0.275 OA
ENDROOT
BRANCH   1  10
ATOM      9  C   LIG    1       30.843 -17.766   8.521  0.00  0.00    +0.038 C 
ATOM     10  C   LIG    1       31.476 -19.018   7.933  0.00  0.00    +0.125 C 
BRANCH  10  11
ATOM     11  O   LIG    1       32.104 -19.779   8.963  0.00  0.00    -0.391 OA
ATOM     12  H   LIG    1       31.813 -20.706   8.885  0.00  0.00    +0.210 HD
ENDBRANCH  10  11
ENDBRANCH   1  10
BRANCH   4  13
ATOM     13  C   LIG    1       26.413 -21.265   8.437  0.00  0.00    +0.352 C 
ATOM     14  O   LIG    1       26.099 -22.437   8.305  0.00  0.00    -0.244 OA
BRANCH  13  15
ATOM     15  O   LIG    1       25.899 -20.491   9.421  0.00  0.00    -0.476 OA
ATOM     16  H   LIG    1       26.303 -19.600   9.527  0.00  0.00    +0.295 HD
ENDBRANCH  13  15
ENDBRANCH   4  13
BRANCH   5  17
ATOM     17  S   LIG    1       25.914 -20.916   5.118  0.00  0.00    -0.126 S 
BRANCH  17  18
ATOM     18  C   LIG    1       25.472 -19.388   4.208  0.00  0.00    +0.093 C 
BRANCH  18  19
ATOM     19  C   LIG    1       24.107 -19.473   3.508  0.00  0.00    +0.113 C 
BRANCH  19  20
ATOM     20  N   LIG    1       22.989 -19.469   4.430  0.00  0.00    -0.335 N 
ATOM     21  H   LIG    1       22.272 -18.781   4.212  0.00  0.00    +0.147 HD
BRANCH  20  22
ATOM     22  C   LIG    1       22.589 -20.515   5.202  0.00  0.00    +0.171 C 
ATOM     23  N   LIG    1       21.720 -21.420   4.940  0.00  0.00    -0.293 NA
ATOM     24  H   LIG    1       21.289 -21.252   4.033  0.00  0.00    +0.188 HD
ENDBRANCH  20  22
ENDBRANCH  19  20
ENDBRANCH  18  19
ENDBRANCH  17  18
ENDBRANCH   5  17
TORSDOF 9
ENDMDL
MODEL 7
REMARK VINA RESULT:      -6.7      3.996      7.544
REMARK  Name = *****
REMARK                            x       y       z     vdW  Elec       q    Type
REMARK                         _______ _______ _______ _____ _____    ______ ____
ROOT
ATOM      1  C   LIG    1       28.728 -20.019   7.599  0.00  0.00    +0.125 C 
ATOM      2  C   LIG    1       27.663 -21.159   7.572  0.00  0.00    +0.101 C 
ATOM      3  N   LIG    1       27.422 -20.795   6.148  0.00  0.00    -0.260 N 
ATOM      4  C   LIG    1       26.058 -20.677   5.943  0.00  0.00    +0.131 C 
ATOM      5  C   LIG    1       25.364 -20.834   7.086  0.00  0.00    +0.016 C 
ATOM      6  C   LIG    1       26.298 -21.056   8.251  0.00  0.00    +0.068 C 
ATOM      7  C   LIG    1       28.200 -19.677   6.204  0.00  0.00    +0.228 C 
ATOM      8  O   LIG    1       28.268 -18.751   5.417  0.00  0.00    -0.275 OA
ENDROOT
BRANCH   1  10
ATOM      9  C   LIG    1       31.145 -19.366   7.311  0.00  0.00    +0.038 C 
ATOM     10  C   LIG    1       30.173 -20.487   7.647  0.00  0.00    +0.125 C 
BRANCH  10  11
ATOM     11  O   LIG    1       30.431 -20.983   8.959  0.00  0.00    -0.391 OA
ATOM     12  H   LIG    1       31.297 -20.647   9.254  0.00  0.00    +0.210 HD
ENDBRANCH  10  11
ENDBRANCH   1  10
BRANCH   4  13
ATOM     13  C   LIG    1       25.544 -20.434   4.563  0.00  0.00    +0.352 C 
ATOM     14  O   LIG    1       24.827 -21.219   3.965  0.00  0.00    -0.244 OA
BRANCH  13  15
ATOM     15  O   LIG    1       26.008 -19.302   3.985  0.00  0.00    -0.476 OA
ATOM     16  H   LIG    1       25.328 -18.642   3.717  0.00  0.00    +0.295 HD
ENDBRANCH  13  15
ENDBRANCH   4  13
BRANCH   5  17
ATOM     17  S   LIG    1       23.666 -20.696   7.355  0.00  0.00    -0.126 S 
BRANCH  17  18
ATOM     18  C   LIG    1       23.070 -22.285   6.664  0.00  0.00    +0.093 C 
BRANCH  18  19
ATOM     19  C   LIG    1       24.127 -23.399   6.708  0.00  0.00    +0.113 C 
BRANCH  19  20
ATOM     20  N   LIG    1       24.495 -23.892   5.397  0.00  0.00    -0.335 N 
ATOM     21  H   LIG    1       24.623 -23.164   4.698  0.00  0.00    +0.147 HD
BRANCH  20  22
ATOM     22  C   LIG    1       25.113 -25.075   5.135  0.00  0.00    +0.171 C 
ATOM     23  N   LIG    1       26.132 -25.595   5.714  0.00  0.00    -0.293 NA
ATOM     24  H   LIG    1       26.495 -24.969   6.430  0.00  0.00    +0.188 HD
ENDBRANCH  20  22
ENDBRANCH  19  20
ENDBRANCH  18  19
ENDBRANCH  17  18
ENDBRANCH   5  17
TORSDOF 9
ENDMDL
MODEL 8
REMARK VINA RESULT:      -6.6      3.232      4.560
REMARK  Name = *****
REMARK                            x       y       z     vdW  Elec       q    Type
REMARK                         _______ _______ _______ _____ _____    ______ ____
ROOT
ATOM      1  C   LIG    1       24.045 -19.706   5.397  0.00  0.00    +0.125 C 
ATOM      2  C   LIG    1       25.338 -20.475   4.982  0.00  0.00    +0.101 C 
ATOM      3  N   LIG    1       24.961 -21.501   5.994  0.00  0.00    -0.260 N 
ATOM      4  C   LIG    1       26.067 -21.784   6.776  0.00  0.00    +0.131 C 
ATOM      5  C   LIG    1       27.117 -21.002   6.460  0.00  0.00    +0.016 C 
ATOM      6  C   LIG    1       26.748 -20.027   5.369  0.00  0.00    +0.068 C 
ATOM      7  C   LIG    1       23.939 -20.757   6.505  0.00  0.00    +0.228 C 
ATOM      8  O   LIG    1       23.327 -20.911   7.545  0.00  0.00    -0.275 OA
ENDROOT
BRANCH   1  10
ATOM      9  C   LIG    1       22.089 -18.459   4.414  0.00  0.00    +0.038 C 
ATOM     10  C   LIG    1       22.923 -19.731   4.374  0.00  0.00    +0.125 C 
BRANCH  10  11
ATOM     11  O   LIG    1       23.509 -19.892   3.083  0.00  0.00    -0.391 OA
ATOM     12  H   LIG    1       24.183 -20.594   3.133  0.00  0.00    +0.210 HD
ENDBRANCH  10  11
ENDBRANCH   1  10
BRANCH   4  13
ATOM     13  C   LIG    1       25.985 -22.873   7.792  0.00  0.00    +0.352 C 
ATOM     14  O   LIG    1       25.971 -24.060   7.508  0.00  0.00    -0.244 OA
BRANCH  13  15
ATOM     15  O   LIG    1       25.839 -22.439   9.066  0.00  0.00    -0.476 OA
ATOM     16  H   LIG    1       24.920 -22.429   9.418  0.00  0.00    +0.295 HD
ENDBRANCH  13  15
ENDBRANCH   4  13
BRANCH   5  17
ATOM     17  S   LIG    1       28.673 -20.922   7.198  0.00  0.00    -0.126 S 
BRANCH  17  18
ATOM     18  C   LIG    1       29.346 -19.399   6.434  0.00  0.00    +0.093 C 
BRANCH  18  19
ATOM     19  C   LIG    1       30.852 -19.214   6.676  0.00  0.00    +0.113 C 
BRANCH  19  20
ATOM     20  N   LIG    1       31.152 -18.492   7.896  0.00  0.00    -0.335 N 
ATOM     21  H   LIG    1       30.693 -17.588   7.970  0.00  0.00    +0.147 HD
BRANCH  20  22
ATOM     22  C   LIG    1       31.555 -19.047   9.071  0.00  0.00    +0.171 C 
ATOM     23  N   LIG    1       31.899 -20.258   9.312  0.00  0.00    -0.293 NA
ATOM     24  H   LIG    1       31.802 -20.831   8.476  0.00  0.00    +0.188 HD
ENDBRANCH  20  22
ENDBRANCH  19  20
ENDBRANCH  18  19
ENDBRANCH  17  18
ENDBRANCH   5  17
TORSDOF 9
ENDMDL
MODEL 9
REMARK VINA RESULT:      -6.5      4.078      7.501
REMARK  Name = *****
REMARK                            x       y       z     vdW  Elec       q    Type
REMARK                         _______ _______ _______ _____ _____    ______ ____
ROOT
ATOM      1  C   LIG    1       28.878 -20.033   6.282  0.00  0.00    +0.125 C 
ATOM      2  C   LIG    1       27.429 -19.620   5.874  0.00  0.00    +0.101 C 
ATOM      3  N   LIG    1       27.005 -20.055   7.235  0.00  0.00    -0.260 N 
ATOM      4  C   LIG    1       25.893 -20.869   7.115  0.00  0.00    +0.131 C 
ATOM      5  C   LIG    1       25.576 -21.100   5.827  0.00  0.00    +0.016 C 
ATOM      6  C   LIG    1       26.563 -20.424   4.906  0.00  0.00    +0.068 C 
ATOM      7  C   LIG    1       28.217 -20.599   7.541  0.00  0.00    +0.228 C 
ATOM      8  O   LIG    1       28.509 -21.352   8.451  0.00  0.00    -0.275 OA
ENDROOT
BRANCH   1  10
ATOM      9  C   LIG    1       31.180 -19.354   7.049  0.00  0.00    +0.038 C 
ATOM     10  C   LIG    1       29.836 -18.878   6.518  0.00  0.00    +0.125 C 
BRANCH  10  11
ATOM     11  O   LIG    1       30.013 -18.194   5.280  0.00  0.00    -0.391 OA
ATOM     12  H   LIG    1       29.772 -18.797   4.553  0.00  0.00    +0.210 HD
ENDBRANCH  10  11
ENDBRANCH   1  10
BRANCH   4  13
ATOM     13  C   LIG    1       25.198 -21.343   8.348  0.00  0.00    +0.352 C 
ATOM     14  O   LIG    1       24.094 -21.863   8.340  0.00  0.00    -0.244 OA
BRANCH  13  15
ATOM     15  O   LIG    1       25.856 -21.072   9.499  0.00  0.00    -0.476 OA
ATOM     16  H   LIG    1       26.822 -20.900   9.416  0.00  0.00    +0.295 HD
ENDBRANCH  13  15
ENDBRANCH   4  13
BRANCH   5  17
ATOM     17  S   LIG    1       24.338 -22.107   5.175  0.00  0.00    -0.126 S 
BRANCH  17  18
ATOM     18  C   LIG    1       25.077 -23.767   5.406  0.00  0.00    +0.093 C 
BRANCH  18  19
ATOM     19  C   LIG    1       24.162 -24.737   6.169  0.00  0.00    +0.113 C 
BRANCH  19  20
ATOM     20  N   LIG    1       24.645 -26.103   6.168  0.00  0.00    -0.335 N 
ATOM     21  H   LIG    1       24.033 -26.762   6.641  0.00  0.00    +0.147 HD
BRANCH  20  22
ATOM     22  C   LIG    1       25.506 -26.642   5.263  0.00  0.00    +0.171 C 
ATOM     23  N   LIG    1       26.744 -26.941   5.411  0.00  0.00    -0.293 NA
ATOM     24  H   LIG    1       27.066 -26.682   6.341  0.00  0.00    +0.188 HD
ENDBRANCH  20  22
ENDBRANCH  19  20
ENDBRANCH  18  19
ENDBRANCH  17  18
ENDBRANCH   5  17
TORSDOF 9
ENDMDL
