MODEL 1
REMARK VINA RESULT:      -9.7      0.000      0.000
REMARK  Name = *****
REMARK                            x       y       z     vdW  Elec       q    Type
REMARK                         _______ _______ _______ _____ _____    ______ ____
ROOT
ATOM      1  N   LIG    1       29.456 -19.907   8.245  0.00  0.00    -0.075 NA
ATOM      2  C   LIG    1       28.888 -20.820   7.540  0.00  0.00    +0.313 C 
ENDROOT
BRANCH   1   3
ATOM      3  S   LIG    1       30.676 -19.019   7.705  0.00  0.00    +0.103 S 
ATOM      4  O   LIG    1       31.783 -19.896   7.371  0.00  0.00    -0.146 OA
ATOM      5  O   LIG    1       30.182 -18.085   6.710  0.00  0.00    -0.146 OA
BRANCH   3  10
ATOM      6  C   LIG    1       32.333 -15.820  12.588  0.00  0.00    +0.044 C 
ATOM      7  C   LIG    1       31.896 -16.582  11.371  0.00  0.00    -0.050 A 
ATOM      8  C   LIG    1       32.672 -16.530  10.205  0.00  0.00    +0.005 A 
ATOM      9  C   LIG    1       32.301 -17.258   9.073  0.00  0.00    +0.029 A 
ATOM     10  C   LIG    1       31.148 -18.045   9.115  0.00  0.00    +0.113 A 
ATOM     11  C   LIG    1       30.359 -18.099  10.267  0.00  0.00    +0.029 A 
ATOM     12  C   LIG    1       30.736 -17.368  11.394  0.00  0.00    +0.005 A 
ENDBRANCH   3  10
ENDBRANCH   1   3
BRANCH   2  13
ATOM     13  N   LIG    1       27.792 -21.562   7.900  0.00  0.00    -0.231 N 
ATOM     14  H   LIG    1       27.834 -22.531   7.593  0.00  0.00    +0.171 HD
BRANCH  13  15
ATOM     15  N   LIG    1       26.536 -20.910   7.925  0.00  0.00    -0.225 NA
ATOM     16  C   LIG    1       26.230 -20.317   6.609  0.00  0.00    +0.109 C 
ATOM     17  C   LIG    1       25.273 -21.280   5.915  0.00  0.00    +0.009 C 
ATOM     18  C   LIG    1       24.512 -21.911   7.071  0.00  0.00    +0.009 C 
ATOM     19  C   LIG    1       23.298 -21.003   7.248  0.00  0.00    +0.005 C 
ATOM     20  C   LIG    1       22.908 -20.652   5.821  0.00  0.00    +0.001 C 
ATOM     21  C   LIG    1       24.221 -20.598   5.037  0.00  0.00    +0.005 C 
ATOM     22  C   LIG    1       25.486 -21.897   8.240  0.00  0.00    +0.109 C 
ENDBRANCH  13  15
ENDBRANCH   2  13
BRANCH   2  23
ATOM     23  O   LIG    1       29.292 -21.207   6.312  0.00  0.00    -0.480 OA
ATOM     24  H   LIG    1       29.329 -20.460   5.684  0.00  0.00    +0.295 HD
ENDBRANCH   2  23
TORSDOF 5
ENDMDL
MODEL 2
REMARK VINA RESULT:      -9.7      0.911      1.271
REMARK  Name = *****
REMARK                            x       y       z     vdW  Elec       q    Type
REMARK                         _______ _______ _______ _____ _____    ______ ____
ROOT
ATOM      1  N   LIG    1       29.358 -19.877   8.089  0.00  0.00    -0.075 NA
ATOM      2  C   LIG    1       28.744 -20.720   7.337  0.00  0.00    +0.313 C 
ENDROOT
BRANCH   1   3
ATOM      3  S   LIG    1       30.556 -18.950   7.565  0.00  0.00    +0.103 S 
ATOM      4  O   LIG    1       31.676 -19.795   7.194  0.00  0.00    -0.146 OA
ATOM      5  O   LIG    1       30.035 -17.996   6.603  0.00  0.00    -0.146 OA
BRANCH   3  10
ATOM      6  C   LIG    1       32.179 -15.873  12.537  0.00  0.00    +0.044 C 
ATOM      7  C   LIG    1       31.755 -16.602  11.295  0.00  0.00    -0.050 A 
ATOM      8  C   LIG    1       32.625 -16.667  10.198  0.00  0.00    +0.005 A 
ATOM      9  C   LIG    1       32.263 -17.369   9.047  0.00  0.00    +0.029 A 
ATOM     10  C   LIG    1       31.025 -18.011   8.999  0.00  0.00    +0.113 A 
ATOM     11  C   LIG    1       30.142 -17.946  10.081  0.00  0.00    +0.029 A 
ATOM     12  C   LIG    1       30.510 -17.243  11.228  0.00  0.00    +0.005 A 
ENDBRANCH   3  10
ENDBRANCH   1   3
BRANCH   2  13
ATOM     13  N   LIG    1       27.662 -21.486   7.688  0.00  0.00    -0.231 N 
ATOM     14  H   LIG    1       27.910 -22.399   8.062  0.00  0.00    +0.171 HD
BRANCH  13  15
ATOM     15  N   LIG    1       26.490 -21.367   6.903  0.00  0.00    -0.225 NA
ATOM     16  C   LIG    1       26.011 -22.696   6.477  0.00  0.00    +0.109 C 
ATOM     17  C   LIG    1       24.868 -23.063   7.418  0.00  0.00    +0.009 C 
ATOM     18  C   LIG    1       24.270 -21.714   7.785  0.00  0.00    +0.009 C 
ATOM     19  C   LIG    1       23.188 -21.495   6.731  0.00  0.00    +0.005 C 
ATOM     20  C   LIG    1       22.585 -22.880   6.550  0.00  0.00    +0.001 C 
ATOM     21  C   LIG    1       23.741 -23.861   6.758  0.00  0.00    +0.005 C 
ATOM     22  C   LIG    1       25.431 -20.733   7.711  0.00  0.00    +0.109 C 
ENDBRANCH  13  15
ENDBRANCH   2  13
BRANCH   2  23
ATOM     23  O   LIG    1       29.078 -20.997   6.059  0.00  0.00    -0.480 OA
ATOM     24  H   LIG    1       29.670 -20.320   5.678  0.00  0.00    +0.295 HD
ENDBRANCH   2  23
TORSDOF 5
ENDMDL
MODEL 3
REMARK VINA RESULT:      -9.5      1.816      8.006
REMARK  Name = *****
REMARK                            x       y       z     vdW  Elec       q    Type
REMARK                         _______ _______ _______ _____ _____    ______ ____
ROOT
ATOM      1  N   LIG    1       27.665 -20.038   7.739  0.00  0.00    -0.075 NA
ATOM      2  C   LIG    1       28.904 -20.158   8.058  0.00  0.00    +0.313 C 
ENDROOT
BRANCH   1   3
ATOM      3  S   LIG    1       26.614 -21.243   7.851  0.00  0.00    +0.103 S 
ATOM      4  O   LIG    1       27.218 -22.445   7.308  0.00  0.00    -0.146 OA
ATOM      5  O   LIG    1       26.058 -21.267   9.191  0.00  0.00    -0.146 OA
BRANCH   3  10
ATOM      6  C   LIG    1       22.087 -19.440   4.234  0.00  0.00    +0.044 C 
ATOM      7  C   LIG    1       23.196 -19.925   5.120  0.00  0.00    -0.050 A 
ATOM      8  C   LIG    1       24.512 -19.948   4.636  0.00  0.00    +0.005 A 
ATOM      9  C   LIG    1       25.562 -20.364   5.456  0.00  0.00    +0.029 A 
ATOM     10  C   LIG    1       25.291 -20.753   6.769  0.00  0.00    +0.113 A 
ATOM     11  C   LIG    1       23.983 -20.744   7.264  0.00  0.00    +0.029 A 
ATOM     12  C   LIG    1       22.938 -20.328   6.438  0.00  0.00    +0.005 A 
ENDBRANCH   3  10
ENDBRANCH   1   3
BRANCH   2  13
ATOM     13  N   LIG    1       29.843 -19.158   8.067  0.00  0.00    -0.231 N 
ATOM     14  H   LIG    1       30.328 -19.043   7.181  0.00  0.00    +0.171 HD
BRANCH  13  15
ATOM     15  N   LIG    1       30.559 -18.939   9.269  0.00  0.00    -0.225 NA
ATOM     16  C   LIG    1       31.876 -18.336   8.989  0.00  0.00    +0.109 C 
ATOM     17  C   LIG    1       31.733 -16.843   9.266  0.00  0.00    +0.009 C 
ATOM     18  C   LIG    1       30.679 -16.790  10.361  0.00  0.00    +0.009 C 
ATOM     19  C   LIG    1       31.491 -16.841  11.652  0.00  0.00    +0.005 C 
ATOM     20  C   LIG    1       32.705 -15.979  11.341  0.00  0.00    +0.001 C 
ATOM     21  C   LIG    1       32.986 -16.189   9.851  0.00  0.00    +0.005 C 
ATOM     22  C   LIG    1       29.797 -18.006  10.121  0.00  0.00    +0.109 C 
ENDBRANCH  13  15
ENDBRANCH   2  13
BRANCH   2  23
ATOM     23  O   LIG    1       29.494 -21.312   8.437  0.00  0.00    -0.480 OA
ATOM     24  H   LIG    1       28.939 -21.821   9.059  0.00  0.00    +0.295 HD
ENDBRANCH   2  23
TORSDOF 5
ENDMDL
MODEL 4
REMARK VINA RESULT:      -9.4      1.862      7.694
REMARK  Name = *****
REMARK                            x       y       z     vdW  Elec       q    Type
REMARK                         _______ _______ _______ _____ _____    ______ ____
ROOT
ATOM      1  N   LIG    1       27.990 -20.576   6.982  0.00  0.00    -0.075 NA
ATOM      2  C   LIG    1       29.178 -20.720   7.451  0.00  0.00    +0.313 C 
ENDROOT
BRANCH   1   3
ATOM      3  S   LIG    1       26.713 -21.329   7.590  0.00  0.00    +0.103 S 
ATOM      4  O   LIG    1       26.863 -22.756   7.375  0.00  0.00    -0.146 OA
ATOM      5  O   LIG    1       26.462 -20.834   8.931  0.00  0.00    -0.146 OA
BRANCH   3  10
ATOM      6  C   LIG    1       22.099 -19.253   4.240  0.00  0.00    +0.044 C 
ATOM      7  C   LIG    1       23.229 -19.805   5.058  0.00  0.00    -0.050 A 
ATOM      8  C   LIG    1       24.531 -19.794   4.539  0.00  0.00    +0.005 A 
ATOM      9  C   LIG    1       25.602 -20.272   5.297  0.00  0.00    +0.029 A 
ATOM     10  C   LIG    1       25.364 -20.758   6.584  0.00  0.00    +0.113 A 
ATOM     11  C   LIG    1       24.070 -20.784   7.112  0.00  0.00    +0.029 A 
ATOM     12  C   LIG    1       23.005 -20.306   6.348  0.00  0.00    +0.005 A 
ENDBRANCH   3  10
ENDBRANCH   1   3
BRANCH   2  13
ATOM     13  N   LIG    1       30.303 -20.051   7.039  0.00  0.00    -0.231 N 
ATOM     14  H   LIG    1       31.130 -20.639   6.980  0.00  0.00    +0.171 HD
BRANCH  13  15
ATOM     15  N   LIG    1       30.452 -18.703   7.444  0.00  0.00    -0.225 NA
ATOM     16  C   LIG    1       29.676 -18.439   8.671  0.00  0.00    +0.109 C 
ATOM     17  C   LIG    1       30.671 -18.484   9.826  0.00  0.00    +0.009 C 
ATOM     18  C   LIG    1       31.968 -18.010   9.189  0.00  0.00    +0.009 C 
ATOM     19  C   LIG    1       31.950 -16.499   9.405  0.00  0.00    +0.005 C 
ATOM     20  C   LIG    1       31.367 -16.348  10.801  0.00  0.00    +0.001 C 
ATOM     21  C   LIG    1       30.368 -17.496  10.955  0.00  0.00    +0.005 C 
ATOM     22  C   LIG    1       31.874 -18.441   7.734  0.00  0.00    +0.109 C 
ENDBRANCH  13  15
ENDBRANCH   2  13
BRANCH   2  23
ATOM     23  O   LIG    1       29.517 -21.574   8.439  0.00  0.00    -0.480 OA
ATOM     24  H   LIG    1       29.223 -22.487   8.253  0.00  0.00    +0.295 HD
ENDBRANCH   2  23
TORSDOF 5
ENDMDL
MODEL 5
REMARK VINA RESULT:      -8.9      2.750      8.082
REMARK  Name = *****
REMARK                            x       y       z     vdW  Elec       q    Type
REMARK                         _______ _______ _______ _____ _____    ______ ____
ROOT
ATOM      1  N   LIG    1       27.050 -20.956   7.470  0.00  0.00    -0.075 NA
ATOM      2  C   LIG    1       27.968 -20.673   6.617  0.00  0.00    +0.313 C 
ENDROOT
BRANCH   1   3
ATOM      3  S   LIG    1       25.492 -20.994   7.096  0.00  0.00    +0.103 S 
ATOM      4  O   LIG    1       24.722 -20.542   8.240  0.00  0.00    -0.146 OA
ATOM      5  O   LIG    1       25.296 -20.355   5.808  0.00  0.00    -0.146 OA
BRANCH   3  10
ATOM      6  C   LIG    1       24.316 -26.867   6.124  0.00  0.00    +0.044 C 
ATOM      7  C   LIG    1       24.596 -25.420   6.403  0.00  0.00    -0.050 A 
ATOM      8  C   LIG    1       25.918 -24.992   6.586  0.00  0.00    +0.005 A 
ATOM      9  C   LIG    1       26.203 -23.645   6.814  0.00  0.00    +0.029 A 
ATOM     10  C   LIG    1       25.156 -22.723   6.854  0.00  0.00    +0.113 A 
ATOM     11  C   LIG    1       23.831 -23.135   6.683  0.00  0.00    +0.029 A 
ATOM     12  C   LIG    1       23.554 -24.483   6.456  0.00  0.00    +0.005 A 
ENDBRANCH   3  10
ENDBRANCH   1   3
BRANCH   2  13
ATOM     13  N   LIG    1       29.322 -20.699   6.839  0.00  0.00    -0.231 N 
ATOM     14  H   LIG    1       29.629 -21.482   7.409  0.00  0.00    +0.171 HD
BRANCH  13  15
ATOM     15  N   LIG    1       29.990 -19.457   6.972  0.00  0.00    -0.225 NA
ATOM     16  C   LIG    1       29.310 -18.603   7.965  0.00  0.00    +0.109 C 
ATOM     17  C   LIG    1       30.111 -18.724   9.257  0.00  0.00    +0.009 C 
ATOM     18  C   LIG    1       31.529 -18.973   8.767  0.00  0.00    +0.009 C 
ATOM     19  C   LIG    1       32.127 -17.573   8.655  0.00  0.00    +0.005 C 
ATOM     20  C   LIG    1       31.563 -16.848   9.867  0.00  0.00    +0.001 C 
ATOM     21  C   LIG    1       30.167 -17.438  10.084  0.00  0.00    +0.005 C 
ATOM     22  C   LIG    1       31.368 -19.699   7.440  0.00  0.00    +0.109 C 
ENDBRANCH  13  15
ENDBRANCH   2  13
BRANCH   2  23
ATOM     23  O   LIG    1       27.744 -20.291   5.343  0.00  0.00    -0.480 OA
ATOM     24  H   LIG    1       26.827 -20.475   5.059  0.00  0.00    +0.295 HD
ENDBRANCH   2  23
TORSDOF 5
ENDMDL
MODEL 6
REMARK VINA RESULT:      -8.8      3.346      8.078
REMARK  Name = *****
REMARK                            x       y       z     vdW  Elec       q    Type
REMARK                         _______ _______ _______ _____ _____    ______ ____
ROOT
ATOM      1  N   LIG    1       25.796 -20.456   6.615  0.00  0.00    -0.075 NA
ATOM      2  C   LIG    1       26.439 -20.344   5.508  0.00  0.00    +0.313 C 
ENDROOT
BRANCH   1   3
ATOM      3  S   LIG    1       24.299 -21.023   6.702  0.00  0.00    +0.103 S 
ATOM      4  O   LIG    1       23.738 -20.673   7.994  0.00  0.00    -0.146 OA
ATOM      5  O   LIG    1       23.582 -20.663   5.493  0.00  0.00    -0.146 OA
BRANCH   3  10
ATOM      6  C   LIG    1       24.999 -27.043   6.384  0.00  0.00    +0.044 C 
ATOM      7  C   LIG    1       24.814 -25.558   6.501  0.00  0.00    -0.050 A 
ATOM      8  C   LIG    1       25.931 -24.733   6.694  0.00  0.00    +0.005 A 
ATOM      9  C   LIG    1       25.785 -23.347   6.773  0.00  0.00    +0.029 A 
ATOM     10  C   LIG    1       24.511 -22.788   6.653  0.00  0.00    +0.113 A 
ATOM     11  C   LIG    1       23.387 -23.597   6.471  0.00  0.00    +0.029 A 
ATOM     12  C   LIG    1       23.541 -24.982   6.393  0.00  0.00    +0.005 A 
ENDBRANCH   3  10
ENDBRANCH   1   3
BRANCH   2  13
ATOM     13  N   LIG    1       27.744 -19.946   5.361  0.00  0.00    -0.231 N 
ATOM     14  H   LIG    1       28.316 -20.601   4.836  0.00  0.00    +0.171 HD
BRANCH  13  15
ATOM     15  N   LIG    1       28.336 -19.229   6.429  0.00  0.00    -0.225 NA
ATOM     16  C   LIG    1       28.688 -20.138   7.536  0.00  0.00    +0.109 C 
ATOM     17  C   LIG    1       30.184 -20.409   7.410  0.00  0.00    +0.009 C 
ATOM     18  C   LIG    1       30.720 -19.128   6.789  0.00  0.00    +0.009 C 
ATOM     19  C   LIG    1       31.088 -18.265   7.993  0.00  0.00    +0.005 C 
ATOM     20  C   LIG    1       31.676 -19.264   8.978  0.00  0.00    +0.001 C 
ATOM     21  C   LIG    1       30.909 -20.568   8.748  0.00  0.00    +0.005 C 
ATOM     22  C   LIG    1       29.574 -18.585   5.950  0.00  0.00    +0.109 C 
ENDBRANCH  13  15
ENDBRANCH   2  13
BRANCH   2  23
ATOM     23  O   LIG    1       25.922 -20.600   4.288  0.00  0.00    -0.480 OA
ATOM     24  H   LIG    1       24.946 -20.590   4.293  0.00  0.00    +0.295 HD
ENDBRANCH   2  23
TORSDOF 5
ENDMDL
MODEL 7
REMARK VINA RESULT:      -8.5      4.552      6.319
REMARK  Name = *****
REMARK                            x       y       z     vdW  Elec       q    Type
REMARK                         _______ _______ _______ _____ _____    ______ ____
ROOT
ATOM      1  N   LIG    1       24.970 -22.548   6.566  0.00  0.00    -0.075 NA
ATOM      2  C   LIG    1       24.826 -23.036   5.385  0.00  0.00    +0.313 C 
ENDROOT
BRANCH   1   3
ATOM      3  S   LIG    1       24.849 -20.982   6.884  0.00  0.00    +0.103 S 
ATOM      4  O   LIG    1       24.102 -20.342   5.818  0.00  0.00    -0.146 OA
ATOM      5  O   LIG    1       24.419 -20.807   8.259  0.00  0.00    -0.146 OA
BRANCH   3  10
ATOM      6  C   LIG    1       30.628 -19.147   6.636  0.00  0.00    +0.044 C 
ATOM      7  C   LIG    1       29.188 -19.564   6.711  0.00  0.00    -0.050 A 
ATOM      8  C   LIG    1       28.408 -19.576   5.547  0.00  0.00    +0.005 A 
ATOM      9  C   LIG    1       27.076 -19.993   5.590  0.00  0.00    +0.029 A 
ATOM     10  C   LIG    1       26.528 -20.403   6.807  0.00  0.00    +0.113 A 
ATOM     11  C   LIG    1       27.290 -20.386   7.978  0.00  0.00    +0.029 A 
ATOM     12  C   LIG    1       28.620 -19.968   7.928  0.00  0.00    +0.005 A 
ENDBRANCH   3  10
ENDBRANCH   1   3
BRANCH   2  13
ATOM     13  N   LIG    1       24.835 -24.366   5.047  0.00  0.00    -0.231 N 
ATOM     14  H   LIG    1       24.449 -24.557   4.127  0.00  0.00    +0.171 HD
BRANCH  13  15
ATOM     15  N   LIG    1       24.626 -25.308   6.083  0.00  0.00    -0.225 NA
ATOM     16  C   LIG    1       23.914 -26.495   5.572  0.00  0.00    +0.109 C 
ATOM     17  C   LIG    1       24.975 -27.568   5.347  0.00  0.00    +0.009 C 
ATOM     18  C   LIG    1       26.024 -27.250   6.401  0.00  0.00    +0.009 C 
ATOM     19  C   LIG    1       25.593 -28.082   7.606  0.00  0.00    +0.005 C 
ATOM     20  C   LIG    1       25.112 -29.383   6.985  0.00  0.00    +0.001 C 
ATOM     21  C   LIG    1       24.499 -28.993   5.638  0.00  0.00    +0.005 C 
ATOM     22  C   LIG    1       25.934 -25.746   6.608  0.00  0.00    +0.109 C 
ENDBRANCH  13  15
ENDBRANCH   2  13
BRANCH   2  23
ATOM     23  O   LIG    1       24.647 -22.304   4.266  0.00  0.00    -0.480 OA
ATOM     24  H   LIG    1       24.285 -22.836   3.532  0.00  0.00    +0.295 HD
ENDBRANCH   2  23
TORSDOF 5
ENDMDL
MODEL 8
REMARK VINA RESULT:      -8.3      3.727      8.019
REMARK  Name = *****
REMARK                            x       y       z     vdW  Elec       q    Type
REMARK                         _______ _______ _______ _____ _____    ______ ____
ROOT
ATOM      1  N   LIG    1       25.215 -20.537   6.501  0.00  0.00    -0.075 NA
ATOM      2  C   LIG    1       25.825 -20.406   5.377  0.00  0.00    +0.313 C 
ENDROOT
BRANCH   1   3
ATOM      3  S   LIG    1       23.850 -21.362   6.663  0.00  0.00    +0.103 S 
ATOM      4  O   LIG    1       23.307 -21.117   7.986  0.00  0.00    -0.146 OA
ATOM      5  O   LIG    1       23.016 -21.136   5.497  0.00  0.00    -0.146 OA
BRANCH   3  10
ATOM      6  C   LIG    1       25.636 -27.161   6.550  0.00  0.00    +0.044 C 
ATOM      7  C   LIG    1       25.209 -25.722   6.540  0.00  0.00    -0.050 A 
ATOM      8  C   LIG    1       23.865 -25.400   6.306  0.00  0.00    +0.005 A 
ATOM      9  C   LIG    1       23.441 -24.070   6.325  0.00  0.00    +0.029 A 
ATOM     10  C   LIG    1       24.370 -23.061   6.586  0.00  0.00    +0.113 A 
ATOM     11  C   LIG    1       25.715 -23.365   6.811  0.00  0.00    +0.029 A 
ATOM     12  C   LIG    1       26.132 -24.697   6.790  0.00  0.00    +0.005 A 
ENDBRANCH   3  10
ENDBRANCH   1   3
BRANCH   2  13
ATOM     13  N   LIG    1       27.032 -19.787   5.174  0.00  0.00    -0.231 N 
ATOM     14  H   LIG    1       27.106 -19.316   4.276  0.00  0.00    +0.171 HD
BRANCH  13  15
ATOM     15  N   LIG    1       28.186 -20.402   5.717  0.00  0.00    -0.225 NA
ATOM     16  C   LIG    1       29.340 -19.485   5.664  0.00  0.00    +0.109 C 
ATOM     17  C   LIG    1       29.481 -18.891   7.063  0.00  0.00    +0.009 C 
ATOM     18  C   LIG    1       28.962 -19.999   7.967  0.00  0.00    +0.009 C 
ATOM     19  C   LIG    1       30.210 -20.810   8.303  0.00  0.00    +0.005 C 
ATOM     20  C   LIG    1       31.286 -19.750   8.478  0.00  0.00    +0.001 C 
ATOM     21  C   LIG    1       30.927 -18.635   7.493  0.00  0.00    +0.005 C 
ATOM     22  C   LIG    1       27.932 -20.742   7.130  0.00  0.00    +0.109 C 
ENDBRANCH  13  15
ENDBRANCH   2  13
BRANCH   2  23
ATOM     23  O   LIG    1       25.362 -20.858   4.193  0.00  0.00    -0.480 OA
ATOM     24  H   LIG    1       25.952 -20.619   3.452  0.00  0.00    +0.295 HD
ENDBRANCH   2  23
TORSDOF 5
ENDMDL
MODEL 9
REMARK VINA RESULT:      -8.2      5.688      8.088
REMARK  Name = *****
REMARK                            x       y       z     vdW  Elec       q    Type
REMARK                         _______ _______ _______ _____ _____    ______ ____
ROOT
ATOM      1  N   LIG    1       25.407 -23.666   7.671  0.00  0.00    -0.075 NA
ATOM      2  C   LIG    1       25.282 -24.419   6.637  0.00  0.00    +0.313 C 
ENDROOT
BRANCH   1   3
ATOM      3  S   LIG    1       26.111 -22.226   7.623  0.00  0.00    +0.103 S 
ATOM      4  O   LIG    1       26.108 -21.657   8.957  0.00  0.00    -0.146 OA
ATOM      5  O   LIG    1       27.363 -22.333   6.897  0.00  0.00    -0.146 OA
BRANCH   3  10
ATOM      6  C   LIG    1       22.406 -18.801   4.252  0.00  0.00    +0.044 C 
ATOM      7  C   LIG    1       23.305 -19.681   5.069  0.00  0.00    -0.050 A 
ATOM      8  C   LIG    1       24.624 -19.904   4.652  0.00  0.00    +0.005 A 
ATOM      9  C   LIG    1       25.487 -20.693   5.416  0.00  0.00    +0.029 A 
ATOM     10  C   LIG    1       25.023 -21.256   6.606  0.00  0.00    +0.113 A 
ATOM     11  C   LIG    1       23.707 -21.051   7.031  0.00  0.00    +0.029 A 
ATOM     12  C   LIG    1       22.851 -20.262   6.262  0.00  0.00    +0.005 A 
ENDBRANCH   3  10
ENDBRANCH   1   3
BRANCH   2  13
ATOM     13  N   LIG    1       24.624 -25.621   6.581  0.00  0.00    -0.231 N 
ATOM     14  H   LIG    1       23.925 -25.741   7.310  0.00  0.00    +0.171 HD
BRANCH  13  15
ATOM     15  N   LIG    1       25.358 -26.753   6.149  0.00  0.00    -0.225 NA
ATOM     16  C   LIG    1       25.716 -27.610   7.296  0.00  0.00    +0.109 C 
ATOM     17  C   LIG    1       24.711 -28.758   7.304  0.00  0.00    +0.009 C 
ATOM     18  C   LIG    1       24.364 -28.929   5.834  0.00  0.00    +0.009 C 
ATOM     19  C   LIG    1       25.374 -29.960   5.338  0.00  0.00    +0.005 C 
ATOM     20  C   LIG    1       25.479 -30.938   6.497  0.00  0.00    +0.001 C 
ATOM     21  C   LIG    1       25.292 -30.098   7.762  0.00  0.00    +0.005 C 
ATOM     22  C   LIG    1       24.525 -27.544   5.225  0.00  0.00    +0.109 C 
ENDBRANCH  13  15
ENDBRANCH   2  13
BRANCH   2  23
ATOM     23  O   LIG    1       25.793 -24.145   5.419  0.00  0.00    -0.480 OA
ATOM     24  H   LIG    1       25.100 -23.904   4.774  0.00  0.00    +0.295 HD
ENDBRANCH   2  23
TORSDOF 5
ENDMDL
