MODEL 1
REMARK VINA RESULT:      -9.8      0.000      0.000
REMARK  Name = *****
REMARK                            x       y       z     vdW  Elec       q    Type
REMARK                         _______ _______ _______ _____ _____    ______ ____
ROOT
ATOM      1  N   LIG    1       24.574 -25.694   5.675  0.00  0.00    -0.296 NA
ATOM      2  C   LIG    1       23.422 -25.021   6.322  0.00  0.00    +0.100 C 
ATOM      3  C   LIG    1       23.747 -23.613   6.905  0.00  0.00    +0.100 C 
ATOM      4  N   LIG    1       24.841 -22.926   6.207  0.00  0.00    -0.289 NA
ATOM      5  C   LIG    1       24.936 -23.292   4.787  0.00  0.00    +0.100 C 
ATOM      6  C   LIG    1       24.966 -24.834   4.535  0.00  0.00    +0.100 C 
ENDROOT
BRANCH   1   7
ATOM      7  C   LIG    1       25.666 -25.884   6.657  0.00  0.00    +0.119 C 
BRANCH   7  11
ATOM      8  C   LIG    1       25.782 -29.746   8.701  0.00  0.00    -0.042 A 
ATOM      9  C   LIG    1       26.526 -28.644   9.155  0.00  0.00    +0.004 A 
ATOM     10  C   LIG    1       26.492 -27.413   8.490  0.00  0.00    +0.005 A 
ATOM     11  C   LIG    1       25.712 -27.235   7.342  0.00  0.00    -0.033 A 
ATOM     12  C   LIG    1       24.954 -28.315   6.884  0.00  0.00    +0.005 A 
ATOM     13  C   LIG    1       24.992 -29.550   7.551  0.00  0.00    +0.004 A 
BRANCH   8  15
ATOM     14  C   LIG    1       26.995 -32.000   8.982  0.00  0.00    +0.015 C 
ATOM     15  C   LIG    1       25.811 -31.108   9.422  0.00  0.00    -0.013 C 
ATOM     16  C   LIG    1       25.932 -30.899  10.947  0.00  0.00    +0.015 C 
ATOM     17  C   LIG    1       24.519 -31.904   9.136  0.00  0.00    +0.015 C 
ENDBRANCH   8  15
ENDBRANCH   7  11
ENDBRANCH   1   7
BRANCH   4  18
ATOM     18  C   LIG    1       25.093 -21.507   6.538  0.00  0.00    +0.117 C 
BRANCH  18  19
ATOM     19  C   LIG    1       26.581 -21.183   6.780  0.00  0.00    -0.026 A 
ATOM     20  C   LIG    1       27.301 -20.280   5.972  0.00  0.00    +0.007 A 
ATOM     21  C   LIG    1       28.645 -19.993   6.237  0.00  0.00    +0.020 A 
ATOM     22  C   LIG    1       29.295 -20.609   7.295  0.00  0.00    +0.041 A 
ATOM     23 CL   LIG    1       30.946 -20.250   7.621  0.00  0.00    -0.084 Cl
ATOM     24  C   LIG    1       28.613 -21.521   8.101  0.00  0.00    +0.020 A 
ATOM     25  C   LIG    1       27.266 -21.801   7.840  0.00  0.00    +0.007 A 
ENDBRANCH  18  19
BRANCH  18  26
ATOM     26  C   LIG    1       24.298 -20.508   5.655  0.00  0.00    -0.026 A 
ATOM     27  C   LIG    1       22.970 -20.144   5.932  0.00  0.00    +0.005 A 
ATOM     28  C   LIG    1       22.275 -19.233   5.115  0.00  0.00    +0.000 A 
ATOM     29  C   LIG    1       22.877 -18.696   3.987  0.00  0.00    +0.000 A 
ATOM     30  C   LIG    1       24.173 -19.087   3.654  0.00  0.00    +0.000 A 
ATOM     31  C   LIG    1       24.868 -19.988   4.476  0.00  0.00    +0.005 A 
ENDBRANCH  18  26
ENDBRANCH   4  18
TORSDOF 6
ENDMDL
MODEL 2
REMARK VINA RESULT:      -8.5      3.334      9.730
REMARK  Name = *****
REMARK                            x       y       z     vdW  Elec       q    Type
REMARK                         _______ _______ _______ _____ _____    ______ ____
ROOT
ATOM      1  N   LIG    1       22.339 -19.917   4.904  0.00  0.00    -0.296 NA
ATOM      2  C   LIG    1       22.044 -21.361   5.061  0.00  0.00    +0.100 C 
ATOM      3  C   LIG    1       23.276 -22.228   5.459  0.00  0.00    +0.100 C 
ATOM      4  N   LIG    1       24.295 -21.489   6.215  0.00  0.00    -0.289 NA
ATOM      5  C   LIG    1       23.731 -20.403   7.027  0.00  0.00    +0.100 C 
ATOM      6  C   LIG    1       22.791 -19.442   6.231  0.00  0.00    +0.100 C 
ENDROOT
BRANCH   1   7
ATOM      7  C   LIG    1       23.355 -19.720   3.844  0.00  0.00    +0.119 C 
BRANCH   7  11
ATOM      8  C   LIG    1       25.253 -15.789   3.631  0.00  0.00    -0.042 A 
ATOM      9  C   LIG    1       25.952 -16.968   3.323  0.00  0.00    +0.004 A 
ATOM     10  C   LIG    1       25.342 -18.224   3.402  0.00  0.00    +0.005 A 
ATOM     11  C   LIG    1       24.004 -18.352   3.795  0.00  0.00    -0.033 A 
ATOM     12  C   LIG    1       23.289 -17.191   4.091  0.00  0.00    +0.005 A 
ATOM     13  C   LIG    1       23.905 -15.931   4.014  0.00  0.00    +0.004 A 
BRANCH   8  15
ATOM     14  C   LIG    1       25.443 -13.575   2.328  0.00  0.00    +0.015 C 
ATOM     15  C   LIG    1       25.914 -14.398   3.550  0.00  0.00    -0.013 C 
ATOM     16  C   LIG    1       25.580 -13.579   4.815  0.00  0.00    +0.015 C 
ATOM     17  C   LIG    1       27.448 -14.529   3.440  0.00  0.00    +0.015 C 
ENDBRANCH   8  15
ENDBRANCH   7  11
ENDBRANCH   1   7
BRANCH   4  18
ATOM     18  C   LIG    1       25.402 -22.258   6.822  0.00  0.00    +0.117 C 
BRANCH  18  19
ATOM     19  C   LIG    1       25.426 -23.743   6.406  0.00  0.00    -0.026 A 
ATOM     20  C   LIG    1       25.774 -24.776   7.299  0.00  0.00    +0.007 A 
ATOM     21  C   LIG    1       25.761 -26.115   6.891  0.00  0.00    +0.020 A 
ATOM     22  C   LIG    1       25.418 -26.443   5.589  0.00  0.00    +0.041 A 
ATOM     23 CL   LIG    1       25.399 -28.091   5.092  0.00  0.00    -0.084 Cl
ATOM     24  C   LIG    1       25.087 -25.441   4.676  0.00  0.00    +0.020 A 
ATOM     25  C   LIG    1       25.092 -24.103   5.088  0.00  0.00    +0.007 A 
ENDBRANCH  18  19
BRANCH  18  26
ATOM     26  C   LIG    1       26.763 -21.512   6.809  0.00  0.00    -0.026 A 
ATOM     27  C   LIG    1       27.763 -21.745   7.767  0.00  0.00    +0.005 A 
ATOM     28  C   LIG    1       28.990 -21.055   7.729  0.00  0.00    +0.000 A 
ATOM     29  C   LIG    1       29.226 -20.093   6.758  0.00  0.00    +0.000 A 
ATOM     30  C   LIG    1       28.227 -19.797   5.833  0.00  0.00    +0.000 A 
ATOM     31  C   LIG    1       27.009 -20.494   5.866  0.00  0.00    +0.005 A 
ENDBRANCH  18  26
ENDBRANCH   4  18
TORSDOF 6
ENDMDL
MODEL 3
REMARK VINA RESULT:      -8.2      2.996      9.091
REMARK  Name = *****
REMARK                            x       y       z     vdW  Elec       q    Type
REMARK                         _______ _______ _______ _____ _____    ______ ____
ROOT
ATOM      1  N   LIG    1       25.239 -29.341   5.025  0.00  0.00    -0.296 NA
ATOM      2  C   LIG    1       25.601 -30.764   5.230  0.00  0.00    +0.100 C 
ATOM      3  C   LIG    1       25.770 -31.174   6.723  0.00  0.00    +0.100 C 
ATOM      4  N   LIG    1       24.965 -30.368   7.650  0.00  0.00    -0.289 NA
ATOM      5  C   LIG    1       23.719 -29.875   7.047  0.00  0.00    +0.100 C 
ATOM      6  C   LIG    1       23.923 -29.153   5.677  0.00  0.00    +0.100 C 
ENDROOT
BRANCH   1   7
ATOM      7  C   LIG    1       26.292 -28.465   5.587  0.00  0.00    +0.119 C 
BRANCH   7  11
ATOM      8  C   LIG    1       25.135 -24.278   6.072  0.00  0.00    -0.042 A 
ATOM      9  C   LIG    1       25.042 -24.934   4.834  0.00  0.00    +0.004 A 
ATOM     10  C   LIG    1       25.423 -26.272   4.682  0.00  0.00    +0.005 A 
ATOM     11  C   LIG    1       25.915 -27.008   5.767  0.00  0.00    -0.033 A 
ATOM     12  C   LIG    1       26.003 -26.377   7.008  0.00  0.00    +0.005 A 
ATOM     13  C   LIG    1       25.622 -25.033   7.157  0.00  0.00    +0.004 A 
BRANCH   8  15
ATOM     14  C   LIG    1       23.345 -22.641   6.938  0.00  0.00    +0.015 C 
ATOM     15  C   LIG    1       24.721 -22.804   6.252  0.00  0.00    -0.013 C 
ATOM     16  C   LIG    1       25.761 -22.064   7.121  0.00  0.00    +0.015 C 
ATOM     17  C   LIG    1       24.628 -22.092   4.885  0.00  0.00    +0.015 C 
ENDBRANCH   8  15
ENDBRANCH   7  11
ENDBRANCH   1   7
BRANCH   4  18
ATOM     18  C   LIG    1       24.887 -30.802   9.061  0.00  0.00    +0.117 C 
BRANCH  18  19
ATOM     19  C   LIG    1       25.440 -29.765  10.059  0.00  0.00    -0.026 A 
ATOM     20  C   LIG    1       26.498 -28.891   9.737  0.00  0.00    +0.007 A 
ATOM     21  C   LIG    1       26.957 -27.946  10.662  0.00  0.00    +0.020 A 
ATOM     22  C   LIG    1       26.384 -27.868  11.922  0.00  0.00    +0.041 A 
ATOM     23 CL   LIG    1       26.949 -26.702  13.055  0.00  0.00    -0.084 Cl
ATOM     24  C   LIG    1       25.348 -28.732  12.276  0.00  0.00    +0.020 A 
ATOM     25  C   LIG    1       24.884 -29.671  11.346  0.00  0.00    +0.007 A 
ENDBRANCH  18  19
BRANCH  18  26
ATOM     26  C   LIG    1       23.540 -31.476   9.434  0.00  0.00    -0.026 A 
ATOM     27  C   LIG    1       22.488 -30.777  10.047  0.00  0.00    +0.005 A 
ATOM     28  C   LIG    1       21.276 -31.415  10.372  0.00  0.00    +0.000 A 
ATOM     29  C   LIG    1       21.103 -32.769  10.124  0.00  0.00    +0.000 A 
ATOM     30  C   LIG    1       22.153 -33.500   9.573  0.00  0.00    +0.000 A 
ATOM     31  C   LIG    1       23.358 -32.861   9.241  0.00  0.00    +0.005 A 
ENDBRANCH  18  26
ENDBRANCH   4  18
TORSDOF 6
ENDMDL
MODEL 4
REMARK VINA RESULT:      -8.1      4.231      8.898
REMARK  Name = *****
REMARK                            x       y       z     vdW  Elec       q    Type
REMARK                         _______ _______ _______ _____ _____    ______ ____
ROOT
ATOM      1  N   LIG    1       24.268 -31.475   8.599  0.00  0.00    -0.296 NA
ATOM      2  C   LIG    1       24.559 -32.465   9.663  0.00  0.00    +0.100 C 
ATOM      3  C   LIG    1       25.165 -31.853  10.961  0.00  0.00    +0.100 C 
ATOM      4  N   LIG    1       24.767 -30.458  11.194  0.00  0.00    -0.289 NA
ATOM      5  C   LIG    1       23.438 -30.142  10.653  0.00  0.00    +0.100 C 
ATOM      6  C   LIG    1       23.251 -30.556   9.159  0.00  0.00    +0.100 C 
ENDROOT
BRANCH   1   7
ATOM      7  C   LIG    1       25.514 -30.782   8.198  0.00  0.00    +0.119 C 
BRANCH   7  11
ATOM      8  C   LIG    1       25.109 -26.698   6.694  0.00  0.00    -0.042 A 
ATOM      9  C   LIG    1       25.980 -27.016   7.749  0.00  0.00    +0.004 A 
ATOM     10  C   LIG    1       26.098 -28.324   8.233  0.00  0.00    +0.005 A 
ATOM     11  C   LIG    1       25.346 -29.368   7.679  0.00  0.00    -0.033 A 
ATOM     12  C   LIG    1       24.486 -29.073   6.621  0.00  0.00    +0.005 A 
ATOM     13  C   LIG    1       24.367 -27.759   6.139  0.00  0.00    +0.004 A 
BRANCH   8  15
ATOM     14  C   LIG    1       26.024 -24.290   6.729  0.00  0.00    +0.015 C 
ATOM     15  C   LIG    1       24.967 -25.261   6.153  0.00  0.00    -0.013 C 
ATOM     16  C   LIG    1       25.125 -25.255   4.617  0.00  0.00    +0.015 C 
ATOM     17  C   LIG    1       23.582 -24.679   6.507  0.00  0.00    +0.015 C 
ENDBRANCH   8  15
ENDBRANCH   7  11
ENDBRANCH   1   7
BRANCH   4  18
ATOM     18  C   LIG    1       25.111 -29.846  12.495  0.00  0.00    +0.117 C 
BRANCH  18  19
ATOM     19  C   LIG    1       26.628 -29.780  12.767  0.00  0.00    -0.026 A 
ATOM     20  C   LIG    1       27.186 -30.077  14.027  0.00  0.00    +0.007 A 
ATOM     21  C   LIG    1       28.570 -30.029  14.229  0.00  0.00    +0.020 A 
ATOM     22  C   LIG    1       29.415 -29.670  13.189  0.00  0.00    +0.041 A 
ATOM     23 CL   LIG    1       31.116 -29.617  13.440  0.00  0.00    -0.084 Cl
ATOM     24  C   LIG    1       28.890 -29.353  11.936  0.00  0.00    +0.020 A 
ATOM     25  C   LIG    1       27.505 -29.410  11.733  0.00  0.00    +0.007 A 
ENDBRANCH  18  19
BRANCH  18  26
ATOM     26  C   LIG    1       24.290 -28.571  12.823  0.00  0.00    -0.026 A 
ATOM     27  C   LIG    1       24.892 -27.360  13.201  0.00  0.00    +0.005 A 
ATOM     28  C   LIG    1       24.122 -26.217  13.490  0.00  0.00    +0.000 A 
ATOM     29  C   LIG    1       22.736 -26.271  13.442  0.00  0.00    +0.000 A 
ATOM     30  C   LIG    1       22.111 -27.476  13.130  0.00  0.00    +0.000 A 
ATOM     31  C   LIG    1       22.881 -28.612  12.832  0.00  0.00    +0.005 A 
ENDBRANCH  18  26
ENDBRANCH   4  18
TORSDOF 6
ENDMDL
MODEL 5
REMARK VINA RESULT:      -8.0      4.633      8.743
REMARK  Name = *****
REMARK                            x       y       z     vdW  Elec       q    Type
REMARK                         _______ _______ _______ _____ _____    ______ ____
ROOT
ATOM      1  N   LIG    1       24.231 -31.539  10.207  0.00  0.00    -0.296 NA
ATOM      2  C   LIG    1       24.202 -32.163  11.552  0.00  0.00    +0.100 C 
ATOM      3  C   LIG    1       24.281 -31.148  12.731  0.00  0.00    +0.100 C 
ATOM      4  N   LIG    1       23.737 -29.824  12.405  0.00  0.00    -0.289 NA
ATOM      5  C   LIG    1       22.658 -29.876  11.409  0.00  0.00    +0.100 C 
ATOM      6  C   LIG    1       23.025 -30.685  10.124  0.00  0.00    +0.100 C 
ENDROOT
BRANCH   1   7
ATOM      7  C   LIG    1       25.490 -30.780  10.028  0.00  0.00    +0.119 C 
BRANCH   7  11
ATOM      8  C   LIG    1       25.469 -27.606   7.023  0.00  0.00    -0.042 A 
ATOM      9  C   LIG    1       26.319 -27.563   8.141  0.00  0.00    +0.004 A 
ATOM     10  C   LIG    1       26.314 -28.578   9.105  0.00  0.00    +0.005 A 
ATOM     11  C   LIG    1       25.456 -29.678   8.989  0.00  0.00    -0.033 A 
ATOM     12  C   LIG    1       24.614 -29.744   7.878  0.00  0.00    +0.005 A 
ATOM     13  C   LIG    1       24.618 -28.723   6.913  0.00  0.00    +0.004 A 
BRANCH   8  15
ATOM     14  C   LIG    1       24.037 -26.080   5.522  0.00  0.00    +0.015 C 
ATOM     15  C   LIG    1       25.463 -26.495   5.955  0.00  0.00    -0.013 C 
ATOM     16  C   LIG    1       26.165 -25.232   6.499  0.00  0.00    +0.015 C 
ATOM     17  C   LIG    1       26.203 -26.958   4.681  0.00  0.00    +0.015 C 
ENDBRANCH   8  15
ENDBRANCH   7  11
ENDBRANCH   1   7
BRANCH   4  18
ATOM     18  C   LIG    1       23.569 -28.852  13.506  0.00  0.00    +0.117 C 
BRANCH  18  19
ATOM     19  C   LIG    1       24.717 -27.827  13.607  0.00  0.00    -0.026 A 
ATOM     20  C   LIG    1       25.663 -27.643  12.578  0.00  0.00    +0.007 A 
ATOM     21  C   LIG    1       26.677 -26.686  12.697  0.00  0.00    +0.020 A 
ATOM     22  C   LIG    1       26.777 -25.913  13.843  0.00  0.00    +0.041 A 
ATOM     23 CL   LIG    1       28.023 -24.735  13.983  0.00  0.00    -0.084 Cl
ATOM     24  C   LIG    1       25.867 -26.086  14.887  0.00  0.00    +0.020 A 
ATOM     25  C   LIG    1       24.847 -27.037  14.763  0.00  0.00    +0.007 A 
ENDBRANCH  18  19
BRANCH  18  26
ATOM     26  C   LIG    1       22.127 -28.294  13.633  0.00  0.00    -0.026 A 
ATOM     27  C   LIG    1       21.723 -27.093  13.026  0.00  0.00    +0.005 A 
ATOM     28  C   LIG    1       20.406 -26.613  13.156  0.00  0.00    +0.000 A 
ATOM     29  C   LIG    1       19.478 -27.300  13.925  0.00  0.00    +0.000 A 
ATOM     30  C   LIG    1       19.869 -28.461  14.589  0.00  0.00    +0.000 A 
ATOM     31  C   LIG    1       21.179 -28.944  14.449  0.00  0.00    +0.005 A 
ENDBRANCH  18  26
ENDBRANCH   4  18
TORSDOF 6
ENDMDL
MODEL 6
REMARK VINA RESULT:      -7.8      2.773      9.172
REMARK  Name = *****
REMARK                            x       y       z     vdW  Elec       q    Type
REMARK                         _______ _______ _______ _____ _____    ______ ____
ROOT
ATOM      1  N   LIG    1       25.238 -27.613   5.765  0.00  0.00    -0.296 NA
ATOM      2  C   LIG    1       26.502 -27.617   6.541  0.00  0.00    +0.100 C 
ATOM      3  C   LIG    1       26.393 -28.290   7.942  0.00  0.00    +0.100 C 
ATOM      4  N   LIG    1       25.355 -29.326   8.017  0.00  0.00    -0.289 NA
ATOM      5  C   LIG    1       25.130 -30.008   6.735  0.00  0.00    +0.100 C 
ATOM      6  C   LIG    1       24.891 -29.034   5.537  0.00  0.00    +0.100 C 
ENDROOT
BRANCH   1   7
ATOM      7  C   LIG    1       24.191 -26.875   6.509  0.00  0.00    +0.119 C 
BRANCH   7  11
ATOM      8  C   LIG    1       24.681 -22.544   6.836  0.00  0.00    -0.042 A 
ATOM      9  C   LIG    1       23.415 -23.140   6.719  0.00  0.00    +0.004 A 
ATOM     10  C   LIG    1       23.265 -24.527   6.605  0.00  0.00    +0.005 A 
ATOM     11  C   LIG    1       24.379 -25.375   6.602  0.00  0.00    -0.033 A 
ATOM     12  C   LIG    1       25.645 -24.801   6.730  0.00  0.00    +0.005 A 
ATOM     13  C   LIG    1       25.793 -23.409   6.842  0.00  0.00    +0.004 A 
BRANCH   8  15
ATOM     14  C   LIG    1       25.583 -20.393   5.743  0.00  0.00    +0.015 C 
ATOM     15  C   LIG    1       24.861 -21.018   6.960  0.00  0.00    -0.013 C 
ATOM     16  C   LIG    1       23.485 -20.330   7.084  0.00  0.00    +0.015 C 
ATOM     17  C   LIG    1       25.700 -20.668   8.208  0.00  0.00    +0.015 C 
ENDBRANCH   8  15
ENDBRANCH   7  11
ENDBRANCH   1   7
BRANCH   4  18
ATOM     18  C   LIG    1       25.304 -30.171   9.229  0.00  0.00    +0.117 C 
BRANCH  18  19
ATOM     19  C   LIG    1       25.982 -29.532  10.458  0.00  0.00    -0.026 A 
ATOM     20  C   LIG    1       25.292 -28.690  11.353  0.00  0.00    +0.007 A 
ATOM     21  C   LIG    1       25.936 -28.148  12.472  0.00  0.00    +0.020 A 
ATOM     22  C   LIG    1       27.275 -28.419  12.705  0.00  0.00    +0.041 A 
ATOM     23 CL   LIG    1       28.062 -27.753  14.083  0.00  0.00    -0.084 Cl
ATOM     24  C   LIG    1       27.989 -29.234  11.826  0.00  0.00    +0.020 A 
ATOM     25  C   LIG    1       27.342 -29.783  10.713  0.00  0.00    +0.007 A 
ENDBRANCH  18  19
BRANCH  18  26
ATOM     26  C   LIG    1       23.925 -30.842   9.467  0.00  0.00    -0.026 A 
ATOM     27  C   LIG    1       22.865 -30.184  10.112  0.00  0.00    +0.005 A 
ATOM     28  C   LIG    1       21.623 -30.817  10.311  0.00  0.00    +0.000 A 
ATOM     29  C   LIG    1       21.428 -32.129   9.904  0.00  0.00    +0.000 A 
ATOM     30  C   LIG    1       22.482 -32.825   9.317  0.00  0.00    +0.000 A 
ATOM     31  C   LIG    1       23.716 -32.189   9.110  0.00  0.00    +0.005 A 
ENDBRANCH  18  26
ENDBRANCH   4  18
TORSDOF 6
ENDMDL
MODEL 7
REMARK VINA RESULT:      -7.7      2.759      4.512
REMARK  Name = *****
REMARK                            x       y       z     vdW  Elec       q    Type
REMARK                         _______ _______ _______ _____ _____    ______ ____
ROOT
ATOM      1  N   LIG    1       24.336 -25.105   6.934  0.00  0.00    -0.296 NA
ATOM      2  C   LIG    1       25.477 -24.505   7.665  0.00  0.00    +0.100 C 
ATOM      3  C   LIG    1       26.163 -23.320   6.922  0.00  0.00    +0.100 C 
ATOM      4  N   LIG    1       25.262 -22.590   6.021  0.00  0.00    -0.289 NA
ATOM      5  C   LIG    1       23.864 -22.605   6.473  0.00  0.00    +0.100 C 
ATOM      6  C   LIG    1       23.323 -24.034   6.801  0.00  0.00    +0.100 C 
ENDROOT
BRANCH   1   7
ATOM      7  C   LIG    1       24.793 -25.633   5.627  0.00  0.00    +0.119 C 
BRANCH   7  11
ATOM      8  C   LIG    1       25.273 -29.970   5.375  0.00  0.00    -0.042 A 
ATOM      9  C   LIG    1       26.100 -29.090   4.658  0.00  0.00    +0.004 A 
ATOM     10  C   LIG    1       25.935 -27.702   4.735  0.00  0.00    +0.005 A 
ATOM     11  C   LIG    1       24.933 -27.138   5.534  0.00  0.00    -0.033 A 
ATOM     12  C   LIG    1       24.111 -27.997   6.266  0.00  0.00    +0.005 A 
ATOM     13  C   LIG    1       24.276 -29.390   6.184  0.00  0.00    +0.004 A 
BRANCH   8  15
ATOM     14  C   LIG    1       25.822 -31.997   3.884  0.00  0.00    +0.015 C 
ATOM     15  C   LIG    1       25.442 -31.500   5.298  0.00  0.00    -0.013 C 
ATOM     16  C   LIG    1       26.556 -31.960   6.263  0.00  0.00    +0.015 C 
ATOM     17  C   LIG    1       24.129 -32.214   5.687  0.00  0.00    +0.015 C 
ENDBRANCH   8  15
ENDBRANCH   7  11
ENDBRANCH   1   7
BRANCH   4  18
ATOM     18  C   LIG    1       25.747 -21.326   5.428  0.00  0.00    +0.117 C 
BRANCH  18  19
ATOM     19  C   LIG    1       24.616 -20.386   4.962  0.00  0.00    -0.026 A 
ATOM     20  C   LIG    1       24.686 -19.653   3.760  0.00  0.00    +0.007 A 
ATOM     21  C   LIG    1       23.629 -18.828   3.359  0.00  0.00    +0.020 A 
ATOM     22  C   LIG    1       22.498 -18.708   4.152  0.00  0.00    +0.041 A 
ATOM     23 CL   LIG    1       21.199 -17.696   3.653  0.00  0.00    -0.084 Cl
ATOM     24  C   LIG    1       22.408 -19.407   5.356  0.00  0.00    +0.020 A 
ATOM     25  C   LIG    1       23.463 -20.238   5.752  0.00  0.00    +0.007 A 
ENDBRANCH  18  19
BRANCH  18  26
ATOM     26  C   LIG    1       26.913 -20.672   6.216  0.00  0.00    -0.026 A 
ATOM     27  C   LIG    1       26.918 -20.573   7.617  0.00  0.00    +0.005 A 
ATOM     28  C   LIG    1       27.992 -19.978   8.306  0.00  0.00    +0.000 A 
ATOM     29  C   LIG    1       29.062 -19.436   7.609  0.00  0.00    +0.000 A 
ATOM     30  C   LIG    1       29.054 -19.465   6.216  0.00  0.00    +0.000 A 
ATOM     31  C   LIG    1       27.988 -20.069   5.532  0.00  0.00    +0.005 A 
ENDBRANCH  18  26
ENDBRANCH   4  18
TORSDOF 6
ENDMDL
MODEL 8
REMARK VINA RESULT:      -7.5      3.768     10.443
REMARK  Name = *****
REMARK                            x       y       z     vdW  Elec       q    Type
REMARK                         _______ _______ _______ _____ _____    ______ ____
ROOT
ATOM      1  N   LIG    1       24.461 -27.399   5.162  0.00  0.00    -0.296 NA
ATOM      2  C   LIG    1       25.815 -27.941   4.899  0.00  0.00    +0.100 C 
ATOM      3  C   LIG    1       26.273 -29.041   5.904  0.00  0.00    +0.100 C 
ATOM      4  N   LIG    1       25.161 -29.800   6.491  0.00  0.00    -0.289 NA
ATOM      5  C   LIG    1       24.003 -29.907   5.594  0.00  0.00    +0.100 C 
ATOM      6  C   LIG    1       23.526 -28.538   5.013  0.00  0.00    +0.100 C 
ENDROOT
BRANCH   1   7
ATOM      7  C   LIG    1       24.414 -26.787   6.510  0.00  0.00    +0.119 C 
BRANCH   7  11
ATOM      8  C   LIG    1       24.716 -22.431   6.703  0.00  0.00    -0.042 A 
ATOM      9  C   LIG    1       23.476 -23.090   6.734  0.00  0.00    +0.004 A 
ATOM     10  C   LIG    1       23.385 -24.485   6.662  0.00  0.00    +0.005 A 
ATOM     11  C   LIG    1       24.534 -25.277   6.555  0.00  0.00    -0.033 A 
ATOM     12  C   LIG    1       25.776 -24.640   6.536  0.00  0.00    +0.005 A 
ATOM     13  C   LIG    1       25.865 -23.240   6.606  0.00  0.00    +0.004 A 
BRANCH   8  15
ATOM     14  C   LIG    1       25.667 -20.293   5.626  0.00  0.00    +0.015 C 
ATOM     15  C   LIG    1       24.831 -20.895   6.779  0.00  0.00    -0.013 C 
ATOM     16  C   LIG    1       23.427 -20.255   6.715  0.00  0.00    +0.015 C 
ATOM     17  C   LIG    1       25.508 -20.464   8.098  0.00  0.00    +0.015 C 
ENDBRANCH   8  15
ENDBRANCH   7  11
ENDBRANCH   1   7
BRANCH   4  18
ATOM     18  C   LIG    1       25.486 -30.999   7.293  0.00  0.00    +0.117 C 
BRANCH  18  19
ATOM     19  C   LIG    1       24.272 -31.594   8.036  0.00  0.00    -0.026 A 
ATOM     20  C   LIG    1       23.751 -32.869   7.738  0.00  0.00    +0.007 A 
ATOM     21  C   LIG    1       22.662 -33.385   8.451  0.00  0.00    +0.020 A 
ATOM     22  C   LIG    1       22.068 -32.636   9.456  0.00  0.00    +0.041 A 
ATOM     23 CL   LIG    1       20.733 -33.276  10.333  0.00  0.00    -0.084 Cl
ATOM     24  C   LIG    1       22.551 -31.363   9.761  0.00  0.00    +0.020 A 
ATOM     25  C   LIG    1       23.645 -30.852   9.052  0.00  0.00    +0.007 A 
ENDBRANCH  18  19
BRANCH  18  26
ATOM     26  C   LIG    1       26.416 -32.005   6.564  0.00  0.00    -0.026 A 
ATOM     27  C   LIG    1       27.501 -32.630   7.201  0.00  0.00    +0.005 A 
ATOM     28  C   LIG    1       28.327 -33.541   6.515  0.00  0.00    +0.000 A 
ATOM     29  C   LIG    1       28.108 -33.818   5.174  0.00  0.00    +0.000 A 
ATOM     30  C   LIG    1       27.077 -33.166   4.502  0.00  0.00    +0.000 A 
ATOM     31  C   LIG    1       26.249 -32.265   5.189  0.00  0.00    +0.005 A 
ENDBRANCH  18  26
ENDBRANCH   4  18
TORSDOF 6
ENDMDL
MODEL 9
REMARK VINA RESULT:      -7.1      5.543      9.424
REMARK  Name = *****
REMARK                            x       y       z     vdW  Elec       q    Type
REMARK                         _______ _______ _______ _____ _____    ______ ____
ROOT
ATOM      1  N   LIG    1       22.794 -32.770  10.043  0.00  0.00    -0.296 NA
ATOM      2  C   LIG    1       22.711 -33.659   8.860  0.00  0.00    +0.100 C 
ATOM      3  C   LIG    1       23.182 -33.002   7.528  0.00  0.00    +0.100 C 
ATOM      4  N   LIG    1       24.181 -31.942   7.717  0.00  0.00    -0.289 NA
ATOM      5  C   LIG    1       25.029 -32.157   8.897  0.00  0.00    +0.100 C 
ATOM      6  C   LIG    1       24.227 -32.437  10.208  0.00  0.00    +0.100 C 
ENDROOT
BRANCH   1   7
ATOM      7  C   LIG    1       21.944 -31.575   9.837  0.00  0.00    +0.119 C 
BRANCH   7  11
ATOM      8  C   LIG    1       22.190 -28.477  12.911  0.00  0.00    -0.042 A 
ATOM      9  C   LIG    1       23.317 -28.888  12.181  0.00  0.00    +0.004 A 
ATOM     10  C   LIG    1       23.234 -29.887  11.205  0.00  0.00    +0.005 A 
ATOM     11  C   LIG    1       22.017 -30.518  10.920  0.00  0.00    -0.033 A 
ATOM     12  C   LIG    1       20.883 -30.113  11.627  0.00  0.00    +0.005 A 
ATOM     13  C   LIG    1       20.969 -29.112  12.608  0.00  0.00    +0.004 A 
BRANCH   8  15
ATOM     14  C   LIG    1       20.901 -26.713  14.276  0.00  0.00    +0.015 C 
ATOM     15  C   LIG    1       22.267 -27.380  13.991  0.00  0.00    -0.013 C 
ATOM     16  C   LIG    1       22.774 -27.979  15.321  0.00  0.00    +0.015 C 
ATOM     17  C   LIG    1       23.234 -26.256  13.558  0.00  0.00    +0.015 C 
ENDBRANCH   8  15
ENDBRANCH   7  11
ENDBRANCH   1   7
BRANCH   4  18
ATOM     18  C   LIG    1       24.849 -31.396   6.516  0.00  0.00    +0.117 C 
BRANCH  18  19
ATOM     19  C   LIG    1       25.077 -29.872   6.574  0.00  0.00    -0.026 A 
ATOM     20  C   LIG    1       25.587 -29.224   7.717  0.00  0.00    +0.007 A 
ATOM     21  C   LIG    1       25.803 -27.841   7.723  0.00  0.00    +0.020 A 
ATOM     22  C   LIG    1       25.499 -27.083   6.603  0.00  0.00    +0.041 A 
ATOM     23 CL   LIG    1       25.770 -25.384   6.613  0.00  0.00    -0.084 Cl
ATOM     24  C   LIG    1       24.976 -27.694   5.463  0.00  0.00    +0.020 A 
ATOM     25  C   LIG    1       24.769 -29.079   5.455  0.00  0.00    +0.007 A 
ENDBRANCH  18  19
BRANCH  18  26
ATOM     26  C   LIG    1       26.039 -32.258   6.017  0.00  0.00    -0.026 A 
ATOM     27  C   LIG    1       27.174 -32.512   6.804  0.00  0.00    +0.005 A 
ATOM     28  C   LIG    1       28.237 -33.301   6.326  0.00  0.00    +0.000 A 
ATOM     29  C   LIG    1       28.205 -33.820   5.040  0.00  0.00    +0.000 A 
ATOM     30  C   LIG    1       27.120 -33.533   4.215  0.00  0.00    +0.000 A 
ATOM     31  C   LIG    1       26.056 -32.755   4.698  0.00  0.00    +0.005 A 
ENDBRANCH  18  26
ENDBRANCH   4  18
TORSDOF 6
ENDMDL
