MODEL 1
REMARK VINA RESULT:      -2.0      0.000      0.000
REMARK  Name = *****
REMARK                            x       y       z     vdW  Elec       q    Type
REMARK                         _______ _______ _______ _____ _____    ______ ____
ROOT
ATOM      1  C   LIG    1       26.054 -14.810   3.783  0.00  0.00    +0.094 C 
ATOM      2  C   LIG    1       25.723 -14.030   5.086  0.00  0.00    +0.038 C 
ATOM      3  C   LIG    1       24.280 -13.535   5.251  0.00  0.00    +0.085 C 
ATOM      4  N   LIG    1       24.066 -12.287   4.523  0.00  0.00    -0.305 NA
ATOM      5  C   LIG    1       23.091 -11.447   5.228  0.00  0.00    +0.105 C 
ATOM      6  C   LIG    1       23.650 -12.460   3.128  0.00  0.00    +0.084 C 
ATOM      7  C   LIG    1       24.209 -13.654   2.346  0.00  0.00    +0.017 C 
ATOM      8  C   LIG    1       25.699 -13.921   2.547  0.00  0.00    +0.024 C 
ENDROOT
BRANCH   1   9
ATOM      9  C   LIG    1       25.396 -16.210   3.691  0.00  0.00    -0.031 A 
ATOM     10  C   LIG    1       24.040 -16.382   4.030  0.00  0.00    +0.005 A 
ATOM     11  C   LIG    1       23.435 -17.644   3.982  0.00  0.00    +0.000 A 
ATOM     12  C   LIG    1       24.169 -18.760   3.593  0.00  0.00    +0.000 A 
ATOM     13  C   LIG    1       25.500 -18.612   3.229  0.00  0.00    +0.000 A 
ATOM     14  C   LIG    1       26.097 -17.351   3.259  0.00  0.00    +0.005 A 
ENDBRANCH   1   9
BRANCH   1  15
ATOM     15  C   LIG    1       27.598 -14.986   3.789  0.00  0.00    +0.318 C 
ATOM     16  O   LIG    1       28.202 -15.886   4.354  0.00  0.00    -0.250 OA
BRANCH  15  17
ATOM     17  O   LIG    1       28.198 -14.014   3.037  0.00  0.00    -0.464 OA
BRANCH  17  19
ATOM     18  C   LIG    1       28.528 -12.288   4.691  0.00  0.00    +0.048 C 
ATOM     19  C   LIG    1       29.197 -13.232   3.707  0.00  0.00    +0.229 C 
ENDBRANCH  17  19
ENDBRANCH  15  17
ENDBRANCH   1  15
TORSDOF 4
ENDMDL
MODEL 2
REMARK VINA RESULT:      -1.3      2.093      3.892
REMARK  Name = *****
REMARK                            x       y       z     vdW  Elec       q    Type
REMARK                         _______ _______ _______ _____ _____    ______ ____
ROOT
ATOM      1  C   LIG    1       25.112 -14.296   3.599  0.00  0.00    +0.094 C 
ATOM      2  C   LIG    1       26.152 -13.711   2.604  0.00  0.00    +0.038 C 
ATOM      3  C   LIG    1       27.633 -13.889   2.964  0.00  0.00    +0.085 C 
ATOM      4  N   LIG    1       28.068 -12.875   3.919  0.00  0.00    -0.305 NA
ATOM      5  C   LIG    1       29.475 -12.527   3.690  0.00  0.00    +0.105 C 
ATOM      6  C   LIG    1       27.874 -13.240   5.326  0.00  0.00    +0.084 C 
ATOM      7  C   LIG    1       26.651 -14.088   5.695  0.00  0.00    +0.017 C 
ATOM      8  C   LIG    1       25.347 -13.676   5.014  0.00  0.00    +0.024 C 
ENDROOT
BRANCH   1   9
ATOM      9  C   LIG    1       25.076 -15.844   3.649  0.00  0.00    -0.031 A 
ATOM     10  C   LIG    1       26.217 -16.594   3.306  0.00  0.00    +0.005 A 
ATOM     11  C   LIG    1       26.196 -17.994   3.318  0.00  0.00    +0.000 A 
ATOM     12  C   LIG    1       25.037 -18.675   3.672  0.00  0.00    +0.000 A 
ATOM     13  C   LIG    1       23.905 -17.960   4.039  0.00  0.00    +0.000 A 
ATOM     14  C   LIG    1       23.933 -16.564   4.046  0.00  0.00    +0.005 A 
ENDBRANCH   1   9
BRANCH   1  15
ATOM     15  C   LIG    1       23.732 -13.783   3.101  0.00  0.00    +0.318 C 
ATOM     16  O   LIG    1       22.647 -14.171   3.508  0.00  0.00    -0.250 OA
BRANCH  15  17
ATOM     17  O   LIG    1       23.892 -12.799   2.163  0.00  0.00    -0.464 OA
BRANCH  17  19
ATOM     18  C   LIG    1       23.469 -11.461   4.127  0.00  0.00    +0.048 C 
ATOM     19  C   LIG    1       23.846 -11.452   2.656  0.00  0.00    +0.229 C 
ENDBRANCH  17  19
ENDBRANCH  15  17
ENDBRANCH   1  15
TORSDOF 4
ENDMDL
MODEL 3
REMARK VINA RESULT:      -1.3      3.442      5.845
REMARK  Name = *****
REMARK                            x       y       z     vdW  Elec       q    Type
REMARK                         _______ _______ _______ _____ _____    ______ ____
ROOT
ATOM      1  C   LIG    1       25.205 -18.973   4.110  0.00  0.00    +0.094 C 
ATOM      2  C   LIG    1       23.848 -18.734   4.830  0.00  0.00    +0.038 C 
ATOM      3  C   LIG    1       23.087 -19.979   5.306  0.00  0.00    +0.085 C 
ATOM      4  N   LIG    1       22.329 -20.582   4.214  0.00  0.00    -0.305 NA
ATOM      5  C   LIG    1       21.095 -21.190   4.724  0.00  0.00    +0.105 C 
ATOM      6  C   LIG    1       23.076 -21.568   3.427  0.00  0.00    +0.084 C 
ATOM      7  C   LIG    1       24.576 -21.341   3.212  0.00  0.00    +0.017 C 
ATOM      8  C   LIG    1       24.974 -19.905   2.876  0.00  0.00    +0.024 C 
ENDROOT
BRANCH   1   9
ATOM      9  C   LIG    1       26.332 -19.505   5.029  0.00  0.00    -0.031 A 
ATOM     10  C   LIG    1       26.050 -20.464   6.019  0.00  0.00    +0.005 A 
ATOM     11  C   LIG    1       27.049 -20.936   6.878  0.00  0.00    +0.000 A 
ATOM     12  C   LIG    1       28.352 -20.462   6.767  0.00  0.00    +0.000 A 
ATOM     13  C   LIG    1       28.662 -19.535   5.782  0.00  0.00    +0.000 A 
ATOM     14  C   LIG    1       27.669 -19.079   4.913  0.00  0.00    +0.005 A 
ENDBRANCH   1   9
BRANCH   1  15
ATOM     15  C   LIG    1       25.627 -17.583   3.557  0.00  0.00    +0.318 C 
ATOM     16  O   LIG    1       26.673 -17.347   2.970  0.00  0.00    -0.250 OA
BRANCH  15  17
ATOM     17  O   LIG    1       24.647 -16.655   3.781  0.00  0.00    -0.464 OA
BRANCH  17  19
ATOM     18  C   LIG    1       23.886 -14.383   4.067  0.00  0.00    +0.048 C 
ATOM     19  C   LIG    1       25.055 -15.282   3.706  0.00  0.00    +0.229 C 
ENDBRANCH  17  19
ENDBRANCH  15  17
ENDBRANCH   1  15
TORSDOF 4
ENDMDL
MODEL 4
REMARK VINA RESULT:      -0.7      4.278      7.268
REMARK  Name = *****
REMARK                            x       y       z     vdW  Elec       q    Type
REMARK                         _______ _______ _______ _____ _____    ______ ____
ROOT
ATOM      1  C   LIG    1       22.939 -19.357   4.538  0.00  0.00    +0.094 C 
ATOM      2  C   LIG    1       23.120 -19.967   5.956  0.00  0.00    +0.038 C 
ATOM      3  C   LIG    1       24.542 -19.973   6.532  0.00  0.00    +0.085 C 
ATOM      4  N   LIG    1       25.315 -21.099   6.018  0.00  0.00    -0.305 NA
ATOM      5  C   LIG    1       26.266 -21.571   7.030  0.00  0.00    +0.105 C 
ATOM      6  C   LIG    1       26.024 -20.828   4.763  0.00  0.00    +0.084 C 
ATOM      7  C   LIG    1       25.367 -19.890   3.745  0.00  0.00    +0.017 C 
ATOM      8  C   LIG    1       23.871 -20.109   3.532  0.00  0.00    +0.024 C 
ENDROOT
BRANCH   1   9
ATOM      9  C   LIG    1       23.141 -17.823   4.471  0.00  0.00    -0.031 A 
ATOM     10  C   LIG    1       24.222 -17.278   3.751  0.00  0.00    +0.005 A 
ATOM     11  C   LIG    1       24.438 -15.896   3.703  0.00  0.00    +0.000 A 
ATOM     12  C   LIG    1       23.580 -15.027   4.369  0.00  0.00    +0.000 A 
ATOM     13  C   LIG    1       22.493 -15.538   5.064  0.00  0.00    +0.000 A 
ATOM     14  C   LIG    1       22.267 -16.915   5.096  0.00  0.00    +0.005 A 
ENDBRANCH   1   9
BRANCH   1  15
ATOM     15  C   LIG    1       21.475 -19.684   4.133  0.00  0.00    +0.318 C 
ATOM     16  O   LIG    1       20.937 -20.775   4.255  0.00  0.00    -0.250 OA
BRANCH  15  17
ATOM     17  O   LIG    1       20.845 -18.567   3.653  0.00  0.00    -0.464 OA
BRANCH  17  19
ATOM     18  C   LIG    1       19.359 -17.816   1.907  0.00  0.00    +0.048 C 
ATOM     19  C   LIG    1       19.555 -18.781   3.063  0.00  0.00    +0.229 C 
ENDBRANCH  17  19
ENDBRANCH  15  17
ENDBRANCH   1  15
TORSDOF 4
ENDMDL
MODEL 5
REMARK VINA RESULT:      -0.4      1.262      2.057
REMARK  Name = *****
REMARK                            x       y       z     vdW  Elec       q    Type
REMARK                         _______ _______ _______ _____ _____    ______ ____
ROOT
ATOM      1  C   LIG    1       26.094 -15.299   3.760  0.00  0.00    +0.094 C 
ATOM      2  C   LIG    1       25.679 -14.347   4.917  0.00  0.00    +0.038 C 
ATOM      3  C   LIG    1       24.314 -13.658   4.793  0.00  0.00    +0.085 C 
ATOM      4  N   LIG    1       24.395 -12.480   3.935  0.00  0.00    -0.305 NA
ATOM      5  C   LIG    1       23.453 -11.452   4.391  0.00  0.00    +0.105 C 
ATOM      6  C   LIG    1       24.182 -12.748   2.509  0.00  0.00    +0.084 C 
ATOM      7  C   LIG    1       24.679 -14.080   1.938  0.00  0.00    +0.017 C 
ATOM      8  C   LIG    1       26.067 -14.511   2.411  0.00  0.00    +0.024 C 
ENDROOT
BRANCH   1   9
ATOM      9  C   LIG    1       25.266 -16.606   3.679  0.00  0.00    -0.031 A 
ATOM     10  C   LIG    1       23.907 -16.610   4.046  0.00  0.00    +0.005 A 
ATOM     11  C   LIG    1       23.149 -17.787   4.007  0.00  0.00    +0.000 A 
ATOM     12  C   LIG    1       23.730 -18.983   3.600  0.00  0.00    +0.000 A 
ATOM     13  C   LIG    1       25.061 -19.000   3.209  0.00  0.00    +0.000 A 
ATOM     14  C   LIG    1       25.811 -17.823   3.230  0.00  0.00    +0.005 A 
ENDBRANCH   1   9
BRANCH   1  15
ATOM     15  C   LIG    1       27.577 -15.668   4.042  0.00  0.00    +0.318 C 
ATOM     16  O   LIG    1       28.479 -14.864   4.229  0.00  0.00    -0.250 OA
BRANCH  15  17
ATOM     17  O   LIG    1       27.737 -17.026   4.094  0.00  0.00    -0.464 OA
BRANCH  17  19
ATOM     18  C   LIG    1       28.562 -18.866   5.419  0.00  0.00    +0.048 C 
ATOM     19  C   LIG    1       28.867 -17.495   4.842  0.00  0.00    +0.229 C 
ENDBRANCH  17  19
ENDBRANCH  15  17
ENDBRANCH   1  15
TORSDOF 4
ENDMDL
MODEL 6
REMARK VINA RESULT:       0.9      2.054      3.686
REMARK  Name = *****
REMARK                            x       y       z     vdW  Elec       q    Type
REMARK                         _______ _______ _______ _____ _____    ______ ____
ROOT
ATOM      1  C   LIG    1       26.464 -15.592   3.703  0.00  0.00    +0.094 C 
ATOM      2  C   LIG    1       27.499 -15.139   4.770  0.00  0.00    +0.038 C 
ATOM      3  C   LIG    1       27.564 -13.638   5.081  0.00  0.00    +0.085 C 
ATOM      4  N   LIG    1       28.370 -12.931   4.090  0.00  0.00    -0.305 NA
ATOM      5  C   LIG    1       29.065 -11.798   4.712  0.00  0.00    +0.105 C 
ATOM      6  C   LIG    1       27.623 -12.467   2.916  0.00  0.00    +0.084 C 
ATOM      7  C   LIG    1       26.462 -13.327   2.407  0.00  0.00    +0.017 C 
ATOM      8  C   LIG    1       26.737 -14.829   2.366  0.00  0.00    +0.024 C 
ENDROOT
BRANCH   1   9
ATOM      9  C   LIG    1       24.987 -15.459   4.148  0.00  0.00    -0.031 A 
ATOM     10  C   LIG    1       24.498 -14.232   4.636  0.00  0.00    +0.005 A 
ATOM     11  C   LIG    1       23.173 -14.099   5.070  0.00  0.00    +0.000 A 
ATOM     12  C   LIG    1       22.308 -15.187   5.025  0.00  0.00    +0.000 A 
ATOM     13  C   LIG    1       22.758 -16.401   4.525  0.00  0.00    +0.000 A 
ATOM     14  C   LIG    1       24.073 -16.528   4.074  0.00  0.00    +0.005 A 
ENDBRANCH   1   9
BRANCH   1  15
ATOM     15  C   LIG    1       26.772 -17.093   3.442  0.00  0.00    +0.318 C 
ATOM     16  O   LIG    1       26.107 -17.835   2.734  0.00  0.00    -0.250 OA
BRANCH  15  17
ATOM     17  O   LIG    1       27.920 -17.470   4.084  0.00  0.00    -0.464 OA
BRANCH  17  19
ATOM     18  C   LIG    1       29.094 -18.830   5.694  0.00  0.00    +0.048 C 
ATOM     19  C   LIG    1       27.841 -18.680   4.849  0.00  0.00    +0.229 C 
ENDBRANCH  17  19
ENDBRANCH  15  17
ENDBRANCH   1  15
TORSDOF 4
ENDMDL
