MODEL 1
REMARK VINA RESULT:      -7.7      0.000      0.000
REMARK  Name = *****
REMARK                            x       y       z     vdW  Elec       q    Type
REMARK                         _______ _______ _______ _____ _____    ______ ____
ROOT
ATOM      1  C   LIG    1       28.178 -20.589   6.408  0.00  0.00    +0.161 C 
ENDROOT
BRANCH   1   2
ATOM      2  C   LIG    1       29.290 -20.061   7.307  0.00  0.00    -0.014 A 
ATOM      3  C   LIG    1       30.212 -20.894   7.959  0.00  0.00    +0.055 A 
ATOM      4  C   LIG    1       31.174 -20.354   8.796  0.00  0.00    +0.159 A 
ATOM      5  C   LIG    1       31.277 -18.980   8.981  0.00  0.00    +0.158 A 
ATOM      6  C   LIG    1       30.407 -18.123   8.319  0.00  0.00    +0.049 A 
ATOM      7  C   LIG    1       29.417 -18.666   7.490  0.00  0.00    +0.010 A 
BRANCH   4   8
ATOM      8  O   LIG    1       32.019 -21.196   9.463  0.00  0.00    -0.503 OA
ATOM      9  H   LIG    1       31.452 -21.638  10.125  0.00  0.00    +0.292 HD
ENDBRANCH   4   8
BRANCH   5  10
ATOM     10  O   LIG    1       32.252 -18.520   9.822  0.00  0.00    -0.503 OA
ATOM     11  H   LIG    1       33.054 -19.047   9.668  0.00  0.00    +0.292 HD
ENDBRANCH   5  10
ENDBRANCH   1   2
BRANCH   1  12
ATOM     12  O   LIG    1       28.367 -20.010   5.106  0.00  0.00    -0.386 OA
ATOM     13  H   LIG    1       29.064 -19.337   5.241  0.00  0.00    +0.210 HD
ENDBRANCH   1  12
BRANCH   1  14
ATOM     14  C   LIG    1       26.688 -20.344   6.848  0.00  0.00    +0.087 C 
BRANCH  14  16
ATOM     15  C   LIG    1       25.880 -22.199   8.457  0.00  0.00    +0.005 C 
ATOM     16  C   LIG    1       26.430 -20.788   8.309  0.00  0.00    +0.018 C 
ENDBRANCH  14  16
BRANCH  14  17
ATOM     17  N   LIG    1       25.784 -21.106   5.940  0.00  0.00    -0.308 NA
ATOM     18  H   LIG    1       26.338 -21.546   5.202  0.00  0.00    +0.122 HD
BRANCH  17  19
ATOM     19  C   LIG    1       24.690 -20.345   5.318  0.00  0.00    +0.048 C 
ATOM     20  C   LIG    1       23.406 -20.664   6.088  0.00  0.00    +0.024 C 
ATOM     21  C   LIG    1       24.485 -20.647   3.833  0.00  0.00    +0.024 C 
ENDBRANCH  17  19
ENDBRANCH  14  17
ENDBRANCH   1  14
TORSDOF 8
ENDMDL
MODEL 2
REMARK VINA RESULT:      -7.5      3.482      6.825
REMARK  Name = *****
REMARK                            x       y       z     vdW  Elec       q    Type
REMARK                         _______ _______ _______ _____ _____    ______ ____
ROOT
ATOM      1  C   LIG    1       26.289 -21.762   8.318  0.00  0.00    +0.161 C 
ENDROOT
BRANCH   1   2
ATOM      2  C   LIG    1       25.514 -22.835   7.562  0.00  0.00    -0.014 A 
ATOM      3  C   LIG    1       24.128 -22.778   7.353  0.00  0.00    +0.055 A 
ATOM      4  C   LIG    1       23.475 -23.806   6.693  0.00  0.00    +0.159 A 
ATOM      5  C   LIG    1       24.178 -24.895   6.187  0.00  0.00    +0.158 A 
ATOM      6  C   LIG    1       25.556 -24.964   6.340  0.00  0.00    +0.049 A 
ATOM      7  C   LIG    1       26.216 -23.939   7.028  0.00  0.00    +0.010 A 
BRANCH   4   8
ATOM      8  O   LIG    1       22.117 -23.750   6.558  0.00  0.00    -0.503 OA
ATOM      9  H   LIG    1       21.858 -22.935   7.029  0.00  0.00    +0.292 HD
ENDBRANCH   4   8
BRANCH   5  10
ATOM     10  O   LIG    1       23.466 -25.871   5.546  0.00  0.00    -0.503 OA
ATOM     11  H   LIG    1       24.032 -26.657   5.474  0.00  0.00    +0.292 HD
ENDBRANCH   5  10
ENDBRANCH   1   2
BRANCH   1  12
ATOM     12  O   LIG    1       25.518 -21.413   9.479  0.00  0.00    -0.386 OA
ATOM     13  H   LIG    1       24.678 -21.901   9.366  0.00  0.00    +0.210 HD
ENDBRANCH   1  12
BRANCH   1  14
ATOM     14  C   LIG    1       26.664 -20.440   7.554  0.00  0.00    +0.087 C 
BRANCH  14  16
ATOM     15  C   LIG    1       25.731 -20.179   5.157  0.00  0.00    +0.005 C 
ATOM     16  C   LIG    1       26.868 -20.679   6.038  0.00  0.00    +0.018 C 
ENDBRANCH  14  16
BRANCH  14  17
ATOM     17  N   LIG    1       27.922 -19.886   8.134  0.00  0.00    -0.308 NA
ATOM     18  H   LIG    1       27.800 -18.887   8.314  0.00  0.00    +0.122 HD
BRANCH  17  19
ATOM     19  C   LIG    1       29.145 -20.076   7.341  0.00  0.00    +0.048 C 
ATOM     20  C   LIG    1       30.065 -21.015   8.126  0.00  0.00    +0.024 C 
ATOM     21  C   LIG    1       29.890 -18.779   7.021  0.00  0.00    +0.024 C 
ENDBRANCH  17  19
ENDBRANCH  14  17
ENDBRANCH   1  14
TORSDOF 8
ENDMDL
MODEL 3
REMARK VINA RESULT:      -7.3      5.274      6.987
REMARK  Name = *****
REMARK                            x       y       z     vdW  Elec       q    Type
REMARK                         _______ _______ _______ _____ _____    ______ ____
ROOT
ATOM      1  C   LIG    1       23.338 -23.355   6.925  0.00  0.00    +0.161 C 
ENDROOT
BRANCH   1   2
ATOM      2  C   LIG    1       24.208 -24.529   6.491  0.00  0.00    -0.014 A 
ATOM      3  C   LIG    1       23.684 -25.735   6.004  0.00  0.00    +0.055 A 
ATOM      4  C   LIG    1       24.528 -26.780   5.665  0.00  0.00    +0.159 A 
ATOM      5  C   LIG    1       25.910 -26.647   5.759  0.00  0.00    +0.158 A 
ATOM      6  C   LIG    1       26.464 -25.452   6.199  0.00  0.00    +0.049 A 
ATOM      7  C   LIG    1       25.613 -24.402   6.566  0.00  0.00    +0.010 A 
BRANCH   4   8
ATOM      8  O   LIG    1       23.985 -27.963   5.250  0.00  0.00    -0.503 OA
ATOM      9  H   LIG    1       24.325 -28.624   5.884  0.00  0.00    +0.292 HD
ENDBRANCH   4   8
BRANCH   5  10
ATOM     10  O   LIG    1       26.679 -27.721   5.406  0.00  0.00    -0.503 OA
ATOM     11  H   LIG    1       26.493 -28.441   6.030  0.00  0.00    +0.292 HD
ENDBRANCH   5  10
ENDBRANCH   1   2
BRANCH   1  12
ATOM     12  O   LIG    1       21.983 -23.666   6.559  0.00  0.00    -0.386 OA
ATOM     13  H   LIG    1       22.066 -24.127   5.700  0.00  0.00    +0.210 HD
ENDBRANCH   1  12
BRANCH   1  14
ATOM     14  C   LIG    1       23.687 -21.926   6.368  0.00  0.00    +0.087 C 
BRANCH  14  16
ATOM     15  C   LIG    1       25.436 -20.766   7.878  0.00  0.00    +0.005 C 
ATOM     16  C   LIG    1       23.968 -20.910   7.502  0.00  0.00    +0.018 C 
ENDBRANCH  14  16
BRANCH  14  17
ATOM     17  N   LIG    1       22.545 -21.435   5.545  0.00  0.00    -0.308 NA
ATOM     18  H   LIG    1       22.001 -22.233   5.211  0.00  0.00    +0.122 HD
BRANCH  17  19
ATOM     19  C   LIG    1       22.888 -20.584   4.396  0.00  0.00    +0.048 C 
ATOM     20  C   LIG    1       24.383 -20.759   4.119  0.00  0.00    +0.024 C 
ATOM     21  C   LIG    1       22.576 -19.100   4.603  0.00  0.00    +0.024 C 
ENDBRANCH  17  19
ENDBRANCH  14  17
ENDBRANCH   1  14
TORSDOF 8
ENDMDL
MODEL 4
REMARK VINA RESULT:      -7.2      4.836      6.821
REMARK  Name = *****
REMARK                            x       y       z     vdW  Elec       q    Type
REMARK                         _______ _______ _______ _____ _____    ______ ____
ROOT
ATOM      1  C   LIG    1       24.424 -23.448   6.612  0.00  0.00    +0.161 C 
ENDROOT
BRANCH   1   2
ATOM      2  C   LIG    1       24.873 -24.869   6.290  0.00  0.00    -0.014 A 
ATOM      3  C   LIG    1       26.219 -25.237   6.150  0.00  0.00    +0.055 A 
ATOM      4  C   LIG    1       26.560 -26.538   5.815  0.00  0.00    +0.159 A 
ATOM      5  C   LIG    1       25.584 -27.515   5.650  0.00  0.00    +0.158 A 
ATOM      6  C   LIG    1       24.244 -27.195   5.821  0.00  0.00    +0.049 A 
ATOM      7  C   LIG    1       23.894 -25.877   6.136  0.00  0.00    +0.010 A 
BRANCH   4   8
ATOM      8  O   LIG    1       27.876 -26.850   5.627  0.00  0.00    -0.503 OA
ATOM      9  H   LIG    1       28.344 -25.996   5.705  0.00  0.00    +0.292 HD
ENDBRANCH   4   8
BRANCH   5  10
ATOM     10  O   LIG    1       25.996 -28.777   5.320  0.00  0.00    -0.503 OA
ATOM     11  H   LIG    1       26.006 -28.846   4.352  0.00  0.00    +0.292 HD
ENDBRANCH   5  10
ENDBRANCH   1   2
BRANCH   1  12
ATOM     12  O   LIG    1       22.997 -23.401   6.453  0.00  0.00    -0.386 OA
ATOM     13  H   LIG    1       22.655 -23.337   7.367  0.00  0.00    +0.210 HD
ENDBRANCH   1  12
BRANCH   1  14
ATOM     14  C   LIG    1       25.056 -22.266   5.789  0.00  0.00    +0.087 C 
BRANCH  14  16
ATOM     15  C   LIG    1       25.536 -21.451   8.195  0.00  0.00    +0.005 C 
ATOM     16  C   LIG    1       25.623 -21.154   6.704  0.00  0.00    +0.018 C 
ENDBRANCH  14  16
BRANCH  14  17
ATOM     17  N   LIG    1       24.010 -21.682   4.902  0.00  0.00    -0.308 NA
ATOM     18  H   LIG    1       24.151 -22.016   3.946  0.00  0.00    +0.122 HD
BRANCH  17  19
ATOM     19  C   LIG    1       23.918 -20.214   4.879  0.00  0.00    +0.048 C 
ATOM     20  C   LIG    1       22.459 -19.836   5.146  0.00  0.00    +0.024 C 
ATOM     21  C   LIG    1       24.379 -19.580   3.565  0.00  0.00    +0.024 C 
ENDBRANCH  17  19
ENDBRANCH  14  17
ENDBRANCH   1  14
TORSDOF 8
ENDMDL
MODEL 5
REMARK VINA RESULT:      -7.1      1.876      2.495
REMARK  Name = *****
REMARK                            x       y       z     vdW  Elec       q    Type
REMARK                         _______ _______ _______ _____ _____    ______ ____
ROOT
ATOM      1  C   LIG    1       25.959 -20.738   7.613  0.00  0.00    +0.161 C 
ENDROOT
BRANCH   1   2
ATOM      2  C   LIG    1       27.458 -20.524   7.438  0.00  0.00    -0.014 A 
ATOM      3  C   LIG    1       28.420 -21.098   8.283  0.00  0.00    +0.055 A 
ATOM      4  C   LIG    1       29.766 -20.832   8.096  0.00  0.00    +0.159 A 
ATOM      5  C   LIG    1       30.200 -20.026   7.048  0.00  0.00    +0.158 A 
ATOM      6  C   LIG    1       29.278 -19.475   6.168  0.00  0.00    +0.049 A 
ATOM      7  C   LIG    1       27.915 -19.722   6.368  0.00  0.00    +0.010 A 
BRANCH   4   8
ATOM      8  O   LIG    1       30.673 -21.357   8.972  0.00  0.00    -0.503 OA
ATOM      9  H   LIG    1       30.167 -21.493   9.797  0.00  0.00    +0.292 HD
ENDBRANCH   4   8
BRANCH   5  10
ATOM     10  O   LIG    1       31.544 -19.809   6.926  0.00  0.00    -0.503 OA
ATOM     11  H   LIG    1       31.885 -19.541   7.795  0.00  0.00    +0.292 HD
ENDBRANCH   5  10
ENDBRANCH   1   2
BRANCH   1  12
ATOM     12  O   LIG    1       25.706 -20.886   9.019  0.00  0.00    -0.386 OA
ATOM     13  H   LIG    1       25.080 -20.165   9.229  0.00  0.00    +0.210 HD
ENDBRANCH   1  12
BRANCH   1  14
ATOM     14  C   LIG    1       25.288 -21.944   6.858  0.00  0.00    +0.087 C 
BRANCH  14  16
ATOM     15  C   LIG    1       25.455 -24.491   6.446  0.00  0.00    +0.005 C 
ATOM     16  C   LIG    1       25.854 -23.310   7.318  0.00  0.00    +0.018 C 
ENDBRANCH  14  16
BRANCH  14  17
ATOM     17  N   LIG    1       25.522 -21.788   5.393  0.00  0.00    -0.308 NA
ATOM     18  H   LIG    1       26.354 -21.213   5.243  0.00  0.00    +0.122 HD
BRANCH  17  19
ATOM     19  C   LIG    1       24.412 -21.224   4.611  0.00  0.00    +0.048 C 
ATOM     20  C   LIG    1       24.922 -19.948   3.935  0.00  0.00    +0.024 C 
ATOM     21  C   LIG    1       23.167 -20.901   5.440  0.00  0.00    +0.024 C 
ENDBRANCH  17  19
ENDBRANCH  14  17
ENDBRANCH   1  14
TORSDOF 8
ENDMDL
MODEL 6
REMARK VINA RESULT:      -7.1      2.254      2.856
REMARK  Name = *****
REMARK                            x       y       z     vdW  Elec       q    Type
REMARK                         _______ _______ _______ _____ _____    ______ ____
ROOT
ATOM      1  C   LIG    1       26.633 -20.873   7.685  0.00  0.00    +0.161 C 
ENDROOT
BRANCH   1   2
ATOM      2  C   LIG    1       28.080 -20.460   7.445  0.00  0.00    -0.014 A 
ATOM      3  C   LIG    1       29.170 -21.075   8.079  0.00  0.00    +0.055 A 
ATOM      4  C   LIG    1       30.460 -20.626   7.849  0.00  0.00    +0.159 A 
ATOM      5  C   LIG    1       30.711 -19.587   6.958  0.00  0.00    +0.158 A 
ATOM      6  C   LIG    1       29.659 -18.983   6.282  0.00  0.00    +0.049 A 
ATOM      7  C   LIG    1       28.352 -19.418   6.530  0.00  0.00    +0.010 A 
BRANCH   4   8
ATOM      8  O   LIG    1       31.494 -21.206   8.528  0.00  0.00    -0.503 OA
ATOM      9  H   LIG    1       32.159 -21.402   7.839  0.00  0.00    +0.292 HD
ENDBRANCH   4   8
BRANCH   5  10
ATOM     10  O   LIG    1       32.010 -19.199   6.782  0.00  0.00    -0.503 OA
ATOM     11  H   LIG    1       32.548 -19.629   7.466  0.00  0.00    +0.292 HD
ENDBRANCH   5  10
ENDBRANCH   1   2
BRANCH   1  12
ATOM     12  O   LIG    1       26.591 -21.593   8.928  0.00  0.00    -0.386 OA
ATOM     13  H   LIG    1       27.476 -22.004   8.997  0.00  0.00    +0.210 HD
ENDBRANCH   1  12
BRANCH   1  14
ATOM     14  C   LIG    1       25.916 -21.739   6.585  0.00  0.00    +0.087 C 
BRANCH  14  16
ATOM     15  C   LIG    1       23.578 -20.711   6.987  0.00  0.00    +0.005 C 
ATOM     16  C   LIG    1       24.682 -21.020   5.986  0.00  0.00    +0.018 C 
ENDBRANCH  14  16
BRANCH  14  17
ATOM     17  N   LIG    1       25.481 -23.029   7.193  0.00  0.00    -0.308 NA
ATOM     18  H   LIG    1       26.226 -23.389   7.793  0.00  0.00    +0.122 HD
BRANCH  17  19
ATOM     19  C   LIG    1       25.077 -24.089   6.256  0.00  0.00    +0.048 C 
ATOM     20  C   LIG    1       23.624 -24.456   6.570  0.00  0.00    +0.024 C 
ATOM     21  C   LIG    1       25.948 -25.345   6.322  0.00  0.00    +0.024 C 
ENDBRANCH  17  19
ENDBRANCH  14  17
ENDBRANCH   1  14
TORSDOF 8
ENDMDL
MODEL 7
REMARK VINA RESULT:      -7.0      4.606      7.284
REMARK  Name = *****
REMARK                            x       y       z     vdW  Elec       q    Type
REMARK                         _______ _______ _______ _____ _____    ______ ____
ROOT
ATOM      1  C   LIG    1       24.327 -23.455   5.846  0.00  0.00    +0.161 C 
ENDROOT
BRANCH   1   2
ATOM      2  C   LIG    1       24.714 -24.909   6.093  0.00  0.00    -0.014 A 
ATOM      3  C   LIG    1       24.031 -25.993   5.521  0.00  0.00    +0.055 A 
ATOM      4  C   LIG    1       24.407 -27.293   5.818  0.00  0.00    +0.159 A 
ATOM      5  C   LIG    1       25.489 -27.556   6.653  0.00  0.00    +0.158 A 
ATOM      6  C   LIG    1       26.212 -26.506   7.203  0.00  0.00    +0.049 A 
ATOM      7  C   LIG    1       25.821 -25.190   6.925  0.00  0.00    +0.010 A 
BRANCH   4   8
ATOM      8  O   LIG    1       23.685 -28.327   5.293  0.00  0.00    -0.503 OA
ATOM      9  H   LIG    1       23.121 -28.631   6.031  0.00  0.00    +0.292 HD
ENDBRANCH   4   8
BRANCH   5  10
ATOM     10  O   LIG    1       25.801 -28.863   6.899  0.00  0.00    -0.503 OA
ATOM     11  H   LIG    1       25.859 -29.324   6.046  0.00  0.00    +0.292 HD
ENDBRANCH   5  10
ENDBRANCH   1   2
BRANCH   1  12
ATOM     12  O   LIG    1       24.688 -23.138   4.492  0.00  0.00    -0.386 OA
ATOM     13  H   LIG    1       25.351 -22.424   4.581  0.00  0.00    +0.210 HD
ENDBRANCH   1  12
BRANCH   1  14
ATOM     14  C   LIG    1       24.933 -22.355   6.793  0.00  0.00    +0.087 C 
BRANCH  14  16
ATOM     15  C   LIG    1       23.183 -20.509   6.330  0.00  0.00    +0.005 C 
ATOM     16  C   LIG    1       23.847 -21.410   7.362  0.00  0.00    +0.018 C 
ENDBRANCH  14  16
BRANCH  14  17
ATOM     17  N   LIG    1       25.926 -21.550   6.025  0.00  0.00    -0.308 NA
ATOM     18  H   LIG    1       26.476 -22.171   5.427  0.00  0.00    +0.122 HD
BRANCH  17  19
ATOM     19  C   LIG    1       26.847 -20.721   6.817  0.00  0.00    +0.048 C 
ATOM     20  C   LIG    1       27.798 -20.022   5.841  0.00  0.00    +0.024 C 
ATOM     21  C   LIG    1       27.659 -21.504   7.850  0.00  0.00    +0.024 C 
ENDBRANCH  17  19
ENDBRANCH  14  17
ENDBRANCH   1  14
TORSDOF 8
ENDMDL
MODEL 8
REMARK VINA RESULT:      -7.0      2.201      3.420
REMARK  Name = *****
REMARK                            x       y       z     vdW  Elec       q    Type
REMARK                         _______ _______ _______ _____ _____    ______ ____
ROOT
ATOM      1  C   LIG    1       26.057 -20.488   7.272  0.00  0.00    +0.161 C 
ENDROOT
BRANCH   1   2
ATOM      2  C   LIG    1       27.567 -20.284   7.219  0.00  0.00    -0.014 A 
ATOM      3  C   LIG    1       28.185 -19.336   6.390  0.00  0.00    +0.055 A 
ATOM      4  C   LIG    1       29.566 -19.227   6.357  0.00  0.00    +0.159 A 
ATOM      5  C   LIG    1       30.368 -20.022   7.169  0.00  0.00    +0.158 A 
ATOM      6  C   LIG    1       29.788 -20.942   8.031  0.00  0.00    +0.049 A 
ATOM      7  C   LIG    1       28.394 -21.072   8.050  0.00  0.00    +0.010 A 
BRANCH   4   8
ATOM      8  O   LIG    1       30.140 -18.336   5.495  0.00  0.00    -0.503 OA
ATOM      9  H   LIG    1       30.541 -17.659   6.074  0.00  0.00    +0.292 HD
ENDBRANCH   4   8
BRANCH   5  10
ATOM     10  O   LIG    1       31.723 -19.858   7.082  0.00  0.00    -0.503 OA
ATOM     11  H   LIG    1       31.909 -19.298   6.311  0.00  0.00    +0.292 HD
ENDBRANCH   5  10
ENDBRANCH   1   2
BRANCH   1  12
ATOM     12  O   LIG    1       25.739 -21.005   8.574  0.00  0.00    -0.386 OA
ATOM     13  H   LIG    1       24.842 -21.382   8.471  0.00  0.00    +0.210 HD
ENDBRANCH   1  12
BRANCH   1  14
ATOM     14  C   LIG    1       25.396 -21.420   6.192  0.00  0.00    +0.087 C 
BRANCH  14  16
ATOM     15  C   LIG    1       23.058 -20.359   5.886  0.00  0.00    +0.005 C 
ATOM     16  C   LIG    1       24.421 -20.647   5.271  0.00  0.00    +0.018 C 
ENDBRANCH  14  16
BRANCH  14  17
ATOM     17  N   LIG    1       24.651 -22.511   6.885  0.00  0.00    -0.308 NA
ATOM     18  H   LIG    1       24.979 -22.584   7.850  0.00  0.00    +0.122 HD
BRANCH  17  19
ATOM     19  C   LIG    1       24.715 -23.842   6.263  0.00  0.00    +0.048 C 
ATOM     20  C   LIG    1       23.397 -24.559   6.566  0.00  0.00    +0.024 C 
ATOM     21  C   LIG    1       25.887 -24.700   6.745  0.00  0.00    +0.024 C 
ENDBRANCH  17  19
ENDBRANCH  14  17
ENDBRANCH   1  14
TORSDOF 8
ENDMDL
MODEL 9
REMARK VINA RESULT:      -6.9      2.604      6.674
REMARK  Name = *****
REMARK                            x       y       z     vdW  Elec       q    Type
REMARK                         _______ _______ _______ _____ _____    ______ ____
ROOT
ATOM      1  C   LIG    1       27.313 -21.051   7.382  0.00  0.00    +0.161 C 
ENDROOT
BRANCH   1   2
ATOM      2  C   LIG    1       25.949 -20.826   6.740  0.00  0.00    -0.014 A 
ATOM      3  C   LIG    1       25.781 -20.514   5.382  0.00  0.00    +0.055 A 
ATOM      4  C   LIG    1       24.516 -20.280   4.868  0.00  0.00    +0.159 A 
ATOM      5  C   LIG    1       23.384 -20.387   5.669  0.00  0.00    +0.158 A 
ATOM      6  C   LIG    1       23.511 -20.733   7.008  0.00  0.00    +0.049 A 
ATOM      7  C   LIG    1       24.789 -20.947   7.537  0.00  0.00    +0.010 A 
BRANCH   4   8
ATOM      8  O   LIG    1       24.391 -19.921   3.556  0.00  0.00    -0.503 OA
ATOM      9  H   LIG    1       24.958 -19.131   3.463  0.00  0.00    +0.292 HD
ENDBRANCH   4   8
BRANCH   5  10
ATOM     10  O   LIG    1       22.169 -20.142   5.092  0.00  0.00    -0.503 OA
ATOM     11  H   LIG    1       21.596 -19.733   5.760  0.00  0.00    +0.292 HD
ENDBRANCH   5  10
ENDBRANCH   1   2
BRANCH   1  12
ATOM     12  O   LIG    1       27.087 -21.468   8.738  0.00  0.00    -0.386 OA
ATOM     13  H   LIG    1       26.574 -20.735   9.132  0.00  0.00    +0.210 HD
ENDBRANCH   1  12
BRANCH   1  14
ATOM     14  C   LIG    1       28.335 -19.855   7.394  0.00  0.00    +0.087 C 
BRANCH  14  16
ATOM     15  C   LIG    1       29.242 -18.440   5.430  0.00  0.00    +0.005 C 
ATOM     16  C   LIG    1       29.190 -19.804   6.104  0.00  0.00    +0.018 C 
ENDBRANCH  14  16
BRANCH  14  17
ATOM     17  N   LIG    1       29.237 -20.002   8.572  0.00  0.00    -0.308 NA
ATOM     18  H   LIG    1       29.136 -19.185   9.179  0.00  0.00    +0.122 HD
BRANCH  17  19
ATOM     19  C   LIG    1       30.665 -20.199   8.280  0.00  0.00    +0.048 C 
ATOM     20  C   LIG    1       31.094 -21.516   8.932  0.00  0.00    +0.024 C 
ATOM     21  C   LIG    1       31.565 -19.066   8.776  0.00  0.00    +0.024 C 
ENDBRANCH  17  19
ENDBRANCH  14  17
ENDBRANCH   1  14
TORSDOF 8
ENDMDL
