MODEL 1
REMARK VINA RESULT:     -10.6      0.000      0.000
REMARK  Name = *****
REMARK                            x       y       z     vdW  Elec       q    Type
REMARK                         _______ _______ _______ _____ _____    ______ ____
ROOT
ATOM      1  C   LIG    1       26.331 -21.898   7.039  0.00  0.00    +0.110 A 
ATOM      2  N   LIG    1       26.378 -23.191   6.868  0.00  0.00    -0.162 NA
ATOM      3  N   LIG    1       25.140 -23.760   6.734  0.00  0.00    -0.200 N 
ATOM      4  C   LIG    1       23.918 -23.089   6.761  0.00  0.00    +0.252 A 
ATOM      5  N   LIG    1       22.922 -23.934   6.583  0.00  0.00    -0.217 NA
ATOM      6  C   LIG    1       23.498 -25.165   6.436  0.00  0.00    +0.138 A 
ATOM      7  N   LIG    1       23.856 -21.745   6.945  0.00  0.00    -0.217 NA
ATOM      8  C   LIG    1       24.872 -25.094   6.534  0.00  0.00    +0.069 A 
ATOM      9  C   LIG    1       25.001 -21.160   7.082  0.00  0.00    +0.144 A 
ENDROOT
BRANCH   1  14
ATOM     10  C   LIG    1       29.959 -19.601   7.500  0.00  0.00    +0.072 A 
ATOM     11  C   LIG    1       29.004 -19.270   6.535  0.00  0.00    +0.136 A 
ATOM     12  F   LIG    1       29.186 -18.223   5.716  0.00  0.00    -0.205 F 
ATOM     13  C   LIG    1       27.831 -20.015   6.389  0.00  0.00    +0.049 A 
ATOM     14  C   LIG    1       27.594 -21.124   7.210  0.00  0.00    +0.006 A 
ATOM     15  C   LIG    1       28.541 -21.465   8.185  0.00  0.00    +0.011 A 
ATOM     16  C   LIG    1       29.713 -20.708   8.326  0.00  0.00    +0.016 A 
BRANCH  10  20
ATOM     17  C   LIG    1       32.427 -17.110   8.970  0.00  0.00    +0.128 C 
ATOM     18  N   LIG    1       31.247 -17.886   8.691  0.00  0.00    -0.314 N 
ATOM     19  H   LIG    1       30.440 -17.771   9.295  0.00  0.00    +0.149 HD
ATOM     20  C   LIG    1       31.227 -18.840   7.698  0.00  0.00    +0.247 C 
ATOM     21  O   LIG    1       32.197 -19.076   6.984  0.00  0.00    -0.270 OA
ENDBRANCH  10  20
ENDBRANCH   1  14
BRANCH   8  22
ATOM     22  C   LIG    1       25.907 -26.156   6.429  0.00  0.00    +0.092 C 
BRANCH  22  23
ATOM     23  C   LIG    1       25.349 -27.560   6.406  0.00  0.00    -0.041 A 
ATOM     24  C   LIG    1       25.050 -28.239   7.595  0.00  0.00    +0.014 A 
ATOM     25  C   LIG    1       24.554 -29.555   7.568  0.00  0.00    +0.001 A 
ATOM     26  C   LIG    1       24.346 -30.213   6.338  0.00  0.00    +0.071 A 
ATOM     27  N   LIG    1       23.896 -31.478   6.265  0.00  0.00    -0.255 NA
ATOM     28  C   LIG    1       23.633 -32.124   7.421  0.00  0.00    +0.111 A 
ATOM     29  C   LIG    1       23.791 -31.562   8.674  0.00  0.00    +0.020 A 
ATOM     30  C   LIG    1       24.625 -29.519   5.170  0.00  0.00    +0.028 A 
ATOM     31  C   LIG    1       24.257 -30.254   8.746  0.00  0.00    +0.011 A 
ATOM     32  C   LIG    1       25.116 -28.210   5.190  0.00  0.00    +0.006 A 
ENDBRANCH  22  23
ENDBRANCH   8  22
TORSDOF 4
ENDMDL
MODEL 2
REMARK VINA RESULT:     -10.2      3.456     10.347
REMARK  Name = *****
REMARK                            x       y       z     vdW  Elec       q    Type
REMARK                         _______ _______ _______ _____ _____    ______ ____
ROOT
ATOM      1  C   LIG    1       25.377 -24.063   6.104  0.00  0.00    +0.110 A 
ATOM      2  N   LIG    1       26.335 -23.424   6.718  0.00  0.00    -0.162 NA
ATOM      3  N   LIG    1       26.343 -22.082   6.451  0.00  0.00    -0.200 N 
ATOM      4  C   LIG    1       25.449 -21.402   5.624  0.00  0.00    +0.252 A 
ATOM      5  N   LIG    1       25.728 -20.114   5.601  0.00  0.00    -0.217 NA
ATOM      6  C   LIG    1       26.810 -19.951   6.420  0.00  0.00    +0.138 A 
ATOM      7  N   LIG    1       24.452 -22.056   4.974  0.00  0.00    -0.217 NA
ATOM      8  C   LIG    1       27.223 -21.153   6.956  0.00  0.00    +0.069 A 
ATOM      9  C   LIG    1       24.405 -23.331   5.191  0.00  0.00    +0.144 A 
ENDROOT
BRANCH   1  14
ATOM     10  C   LIG    1       24.984 -28.324   6.685  0.00  0.00    +0.072 A 
ATOM     11  C   LIG    1       25.807 -27.550   7.507  0.00  0.00    +0.136 A 
ATOM     12  F   LIG    1       26.506 -28.108   8.506  0.00  0.00    -0.205 F 
ATOM     13  C   LIG    1       25.931 -26.170   7.316  0.00  0.00    +0.049 A 
ATOM     14  C   LIG    1       25.232 -25.536   6.282  0.00  0.00    +0.006 A 
ATOM     15  C   LIG    1       24.400 -26.301   5.453  0.00  0.00    +0.011 A 
ATOM     16  C   LIG    1       24.280 -27.684   5.656  0.00  0.00    +0.016 A 
BRANCH  10  20
ATOM     17  C   LIG    1       25.794 -32.038   6.556  0.00  0.00    +0.128 C 
ATOM     18  N   LIG    1       25.853 -30.605   6.430  0.00  0.00    -0.314 N 
ATOM     19  H   LIG    1       26.713 -30.185   6.094  0.00  0.00    +0.149 HD
ATOM     20  C   LIG    1       24.816 -29.799   6.845  0.00  0.00    +0.247 C 
ATOM     21  O   LIG    1       23.781 -30.245   7.329  0.00  0.00    -0.270 OA
ENDBRANCH  10  20
ENDBRANCH   1  14
BRANCH   8  22
ATOM     22  C   LIG    1       28.331 -21.467   7.896  0.00  0.00    +0.092 C 
BRANCH  22  23
ATOM     23  C   LIG    1       29.347 -20.357   8.042  0.00  0.00    -0.041 A 
ATOM     24  C   LIG    1       29.284 -19.454   9.113  0.00  0.00    +0.014 A 
ATOM     25  C   LIG    1       30.217 -18.409   9.230  0.00  0.00    +0.001 A 
ATOM     26  C   LIG    1       31.237 -18.254   8.268  0.00  0.00    +0.071 A 
ATOM     27  N   LIG    1       32.137 -17.255   8.326  0.00  0.00    -0.255 NA
ATOM     28  C   LIG    1       32.048 -16.382   9.353  0.00  0.00    +0.111 A 
ATOM     29  C   LIG    1       31.095 -16.458  10.351  0.00  0.00    +0.020 A 
ATOM     30  C   LIG    1       31.299 -19.168   7.227  0.00  0.00    +0.028 A 
ATOM     31  C   LIG    1       30.166 -17.491  10.287  0.00  0.00    +0.011 A 
ATOM     32  C   LIG    1       30.376 -20.212   7.107  0.00  0.00    +0.006 A 
ENDBRANCH  22  23
ENDBRANCH   8  22
TORSDOF 4
ENDMDL
MODEL 3
REMARK VINA RESULT:      -9.9      4.999      8.769
REMARK  Name = *****
REMARK                            x       y       z     vdW  Elec       q    Type
REMARK                         _______ _______ _______ _____ _____    ______ ____
ROOT
ATOM      1  C   LIG    1       25.648 -29.275   9.368  0.00  0.00    +0.110 A 
ATOM      2  N   LIG    1       25.874 -28.431   8.399  0.00  0.00    -0.162 NA
ATOM      3  N   LIG    1       25.122 -28.682   7.283  0.00  0.00    -0.200 N 
ATOM      4  C   LIG    1       24.191 -29.709   7.131  0.00  0.00    +0.252 A 
ATOM      5  N   LIG    1       23.632 -29.653   5.939  0.00  0.00    -0.217 NA
ATOM      6  C   LIG    1       24.199 -28.581   5.308  0.00  0.00    +0.138 A 
ATOM      7  N   LIG    1       23.952 -30.597   8.129  0.00  0.00    -0.217 NA
ATOM      8  C   LIG    1       25.135 -27.962   6.110  0.00  0.00    +0.069 A 
ATOM      9  C   LIG    1       24.643 -30.406   9.206  0.00  0.00    +0.144 A 
ENDROOT
BRANCH   1  14
ATOM     10  C   LIG    1       27.865 -28.907  13.055  0.00  0.00    +0.072 A 
ATOM     11  C   LIG    1       28.470 -29.373  11.885  0.00  0.00    +0.136 A 
ATOM     12  F   LIG    1       29.764 -29.724  11.870  0.00  0.00    -0.205 F 
ATOM     13  C   LIG    1       27.749 -29.490  10.693  0.00  0.00    +0.049 A 
ATOM     14  C   LIG    1       26.392 -29.147  10.654  0.00  0.00    +0.006 A 
ATOM     15  C   LIG    1       25.775 -28.674  11.820  0.00  0.00    +0.011 A 
ATOM     16  C   LIG    1       26.508 -28.556  13.009  0.00  0.00    +0.016 A 
BRANCH  10  20
ATOM     17  C   LIG    1       30.727 -28.352  15.498  0.00  0.00    +0.128 C 
ATOM     18  N   LIG    1       29.944 -28.521  14.302  0.00  0.00    -0.314 N 
ATOM     19  H   LIG    1       30.397 -28.385  13.405  0.00  0.00    +0.149 HD
ATOM     20  C   LIG    1       28.589 -28.763  14.353  0.00  0.00    +0.247 C 
ATOM     21  O   LIG    1       27.971 -28.863  15.409  0.00  0.00    -0.270 OA
ENDBRANCH  10  20
ENDBRANCH   1  14
BRANCH   8  22
ATOM     22  C   LIG    1       25.986 -26.768   5.864  0.00  0.00    +0.092 C 
BRANCH  22  23
ATOM     23  C   LIG    1       25.348 -25.462   6.278  0.00  0.00    -0.041 A 
ATOM     24  C   LIG    1       26.131 -24.370   6.679  0.00  0.00    +0.014 A 
ATOM     25  C   LIG    1       25.531 -23.165   7.087  0.00  0.00    +0.001 A 
ATOM     26  C   LIG    1       24.127 -23.036   7.095  0.00  0.00    +0.071 A 
ATOM     27  N   LIG    1       23.509 -21.912   7.500  0.00  0.00    -0.255 NA
ATOM     28  C   LIG    1       24.278 -20.877   7.903  0.00  0.00    +0.111 A 
ATOM     29  C   LIG    1       25.660 -20.902   7.918  0.00  0.00    +0.020 A 
ATOM     30  C   LIG    1       23.367 -24.117   6.674  0.00  0.00    +0.028 A 
ATOM     31  C   LIG    1       26.294 -22.066   7.501  0.00  0.00    +0.011 A 
ATOM     32  C   LIG    1       23.958 -25.317   6.265  0.00  0.00    +0.006 A 
ENDBRANCH  22  23
ENDBRANCH   8  22
TORSDOF 4
ENDMDL
MODEL 4
REMARK VINA RESULT:      -9.5      3.982      6.922
REMARK  Name = *****
REMARK                            x       y       z     vdW  Elec       q    Type
REMARK                         _______ _______ _______ _____ _____    ______ ____
ROOT
ATOM      1  C   LIG    1       24.877 -27.725   6.715  0.00  0.00    +0.110 A 
ATOM      2  N   LIG    1       25.550 -28.293   7.678  0.00  0.00    -0.162 NA
ATOM      3  N   LIG    1       25.406 -29.654   7.704  0.00  0.00    -0.200 N 
ATOM      4  C   LIG    1       24.640 -30.418   6.823  0.00  0.00    +0.252 A 
ATOM      5  N   LIG    1       24.735 -31.699   7.119  0.00  0.00    -0.217 NA
ATOM      6  C   LIG    1       25.571 -31.773   8.199  0.00  0.00    +0.138 A 
ATOM      7  N   LIG    1       23.930 -29.838   5.822  0.00  0.00    -0.217 NA
ATOM      8  C   LIG    1       25.996 -30.522   8.593  0.00  0.00    +0.069 A 
ATOM      9  C   LIG    1       24.030 -28.550   5.758  0.00  0.00    +0.144 A 
ENDROOT
BRANCH   1  14
ATOM     10  C   LIG    1       24.932 -23.431   6.266  0.00  0.00    +0.072 A 
ATOM     11  C   LIG    1       23.731 -24.135   6.384  0.00  0.00    +0.136 A 
ATOM     12  F   LIG    1       22.552 -23.497   6.362  0.00  0.00    -0.205 F 
ATOM     13  C   LIG    1       23.718 -25.526   6.531  0.00  0.00    +0.049 A 
ATOM     14  C   LIG    1       24.919 -26.244   6.551  0.00  0.00    +0.006 A 
ATOM     15  C   LIG    1       26.131 -25.549   6.437  0.00  0.00    +0.011 A 
ATOM     16  C   LIG    1       26.133 -24.153   6.295  0.00  0.00    +0.016 A 
BRANCH  10  20
ATOM     17  C   LIG    1       25.379 -20.042   4.598  0.00  0.00    +0.128 C 
ATOM     18  N   LIG    1       25.302 -21.456   4.856  0.00  0.00    -0.314 N 
ATOM     19  H   LIG    1       25.401 -22.095   4.075  0.00  0.00    +0.149 HD
ATOM     20  C   LIG    1       25.003 -21.948   6.108  0.00  0.00    +0.247 C 
ATOM     21  O   LIG    1       24.799 -21.222   7.075  0.00  0.00    -0.270 OA
ENDBRANCH  10  20
ENDBRANCH   1  14
BRANCH   8  22
ATOM     22  C   LIG    1       26.909 -30.110   9.692  0.00  0.00    +0.092 C 
BRANCH  22  23
ATOM     23  C   LIG    1       26.241 -29.291  10.773  0.00  0.00    -0.041 A 
ATOM     24  C   LIG    1       26.823 -28.106  11.246  0.00  0.00    +0.014 A 
ATOM     25  C   LIG    1       26.209 -27.362  12.269  0.00  0.00    +0.001 A 
ATOM     26  C   LIG    1       24.992 -27.796  12.834  0.00  0.00    +0.071 A 
ATOM     27  N   LIG    1       24.381 -27.129  13.830  0.00  0.00    -0.255 NA
ATOM     28  C   LIG    1       24.967 -26.001  14.289  0.00  0.00    +0.111 A 
ATOM     29  C   LIG    1       26.150 -25.488  13.791  0.00  0.00    +0.020 A 
ATOM     30  C   LIG    1       24.418 -28.957  12.339  0.00  0.00    +0.028 A 
ATOM     31  C   LIG    1       26.778 -26.181  12.763  0.00  0.00    +0.011 A 
ATOM     32  C   LIG    1       25.022 -29.701  11.320  0.00  0.00    +0.006 A 
ENDBRANCH  22  23
ENDBRANCH   8  22
TORSDOF 4
ENDMDL
MODEL 5
REMARK VINA RESULT:      -9.5      3.315      9.365
REMARK  Name = *****
REMARK                            x       y       z     vdW  Elec       q    Type
REMARK                         _______ _______ _______ _____ _____    ______ ____
ROOT
ATOM      1  C   LIG    1       24.095 -24.146   6.203  0.00  0.00    +0.110 A 
ATOM      2  N   LIG    1       24.922 -23.231   5.779  0.00  0.00    -0.162 NA
ATOM      3  N   LIG    1       24.398 -21.967   5.832  0.00  0.00    -0.200 N 
ATOM      4  C   LIG    1       23.125 -21.623   6.284  0.00  0.00    +0.252 A 
ATOM      5  N   LIG    1       22.948 -20.318   6.218  0.00  0.00    -0.217 NA
ATOM      6  C   LIG    1       24.115 -19.807   5.721  0.00  0.00    +0.138 A 
ATOM      7  N   LIG    1       22.252 -22.567   6.721  0.00  0.00    -0.217 NA
ATOM      8  C   LIG    1       25.031 -20.804   5.462  0.00  0.00    +0.069 A 
ATOM      9  C   LIG    1       22.700 -23.780   6.686  0.00  0.00    +0.144 A 
ENDROOT
BRANCH   1  14
ATOM     10  C   LIG    1       25.316 -28.288   6.272  0.00  0.00    +0.072 A 
ATOM     11  C   LIG    1       25.855 -27.355   7.161  0.00  0.00    +0.136 A 
ATOM     12  F   LIG    1       26.773 -27.717   8.069  0.00  0.00    -0.205 F 
ATOM     13  C   LIG    1       25.456 -26.015   7.137  0.00  0.00    +0.049 A 
ATOM     14  C   LIG    1       24.507 -25.579   6.204  0.00  0.00    +0.006 A 
ATOM     15  C   LIG    1       23.956 -26.506   5.309  0.00  0.00    +0.011 A 
ATOM     16  C   LIG    1       24.360 -27.849   5.345  0.00  0.00    +0.016 A 
BRANCH  10  20
ATOM     17  C   LIG    1       26.257 -31.740   7.562  0.00  0.00    +0.128 C 
ATOM     18  N   LIG    1       25.894 -30.349   7.471  0.00  0.00    -0.314 N 
ATOM     19  H   LIG    1       25.705 -29.843   8.330  0.00  0.00    +0.149 HD
ATOM     20  C   LIG    1       25.706 -29.729   6.256  0.00  0.00    +0.247 C 
ATOM     21  O   LIG    1       25.848 -30.310   5.185  0.00  0.00    -0.270 OA
ENDBRANCH  10  20
ENDBRANCH   1  14
BRANCH   8  22
ATOM     22  C   LIG    1       26.420 -20.731   4.935  0.00  0.00    +0.092 C 
BRANCH  22  23
ATOM     23  C   LIG    1       27.480 -20.618   6.007  0.00  0.00    -0.041 A 
ATOM     24  C   LIG    1       28.479 -19.637   5.936  0.00  0.00    +0.014 A 
ATOM     25  C   LIG    1       29.476 -19.553   6.923  0.00  0.00    +0.001 A 
ATOM     26  C   LIG    1       29.485 -20.456   8.006  0.00  0.00    +0.071 A 
ATOM     27  N   LIG    1       30.432 -20.428   8.961  0.00  0.00    -0.255 NA
ATOM     28  C   LIG    1       31.400 -19.490   8.865  0.00  0.00    +0.111 A 
ATOM     29  C   LIG    1       31.469 -18.553   7.852  0.00  0.00    +0.020 A 
ATOM     30  C   LIG    1       28.477 -21.406   8.074  0.00  0.00    +0.028 A 
ATOM     31  C   LIG    1       30.489 -18.586   6.866  0.00  0.00    +0.011 A 
ATOM     32  C   LIG    1       27.480 -21.494   7.097  0.00  0.00    +0.006 A 
ENDBRANCH  22  23
ENDBRANCH   8  22
TORSDOF 4
ENDMDL
MODEL 6
REMARK VINA RESULT:      -9.4      5.552     10.461
REMARK  Name = *****
REMARK                            x       y       z     vdW  Elec       q    Type
REMARK                         _______ _______ _______ _____ _____    ______ ____
ROOT
ATOM      1  C   LIG    1       23.782 -30.609   9.222  0.00  0.00    +0.110 A 
ATOM      2  N   LIG    1       23.756 -29.925   8.112  0.00  0.00    -0.162 NA
ATOM      3  N   LIG    1       24.629 -30.397   7.170  0.00  0.00    -0.200 N 
ATOM      4  C   LIG    1       25.482 -31.491   7.312  0.00  0.00    +0.252 A 
ATOM      5  N   LIG    1       26.175 -31.684   6.208  0.00  0.00    -0.217 NA
ATOM      6  C   LIG    1       25.771 -30.711   5.337  0.00  0.00    +0.138 A 
ATOM      7  N   LIG    1       25.524 -32.207   8.465  0.00  0.00    -0.217 NA
ATOM      8  C   LIG    1       24.820 -29.890   5.905  0.00  0.00    +0.069 A 
ATOM      9  C   LIG    1       24.718 -31.796   9.391  0.00  0.00    +0.144 A 
ENDROOT
BRANCH   1  14
ATOM     10  C   LIG    1       21.169 -29.540  12.490  0.00  0.00    +0.072 A 
ATOM     11  C   LIG    1       20.728 -30.348  11.439  0.00  0.00    +0.136 A 
ATOM     12  F   LIG    1       19.472 -30.820  11.412  0.00  0.00    -0.205 F 
ATOM     13  C   LIG    1       21.577 -30.693  10.384  0.00  0.00    +0.049 A 
ATOM     14  C   LIG    1       22.895 -30.221  10.356  0.00  0.00    +0.006 A 
ATOM     15  C   LIG    1       23.351 -29.413  11.406  0.00  0.00    +0.011 A 
ATOM     16  C   LIG    1       22.492 -29.076  12.463  0.00  0.00    +0.016 A 
BRANCH  10  20
ATOM     17  C   LIG    1       18.703 -27.519  14.563  0.00  0.00    +0.128 C 
ATOM     18  N   LIG    1       19.577 -27.979  13.516  0.00  0.00    -0.314 N 
ATOM     19  H   LIG    1       19.594 -27.466  12.641  0.00  0.00    +0.149 HD
ATOM     20  C   LIG    1       20.304 -29.142  13.640  0.00  0.00    +0.247 C 
ATOM     21  O   LIG    1       20.267 -29.845  14.645  0.00  0.00    -0.270 OA
ENDBRANCH  10  20
ENDBRANCH   1  14
BRANCH   8  22
ATOM     22  C   LIG    1       24.088 -28.722   5.347  0.00  0.00    +0.092 C 
BRANCH  22  23
ATOM     23  C   LIG    1       24.632 -27.384   5.794  0.00  0.00    -0.041 A 
ATOM     24  C   LIG    1       23.776 -26.301   6.038  0.00  0.00    +0.014 A 
ATOM     25  C   LIG    1       24.289 -25.052   6.430  0.00  0.00    +0.001 A 
ATOM     26  C   LIG    1       25.678 -24.870   6.588  0.00  0.00    +0.071 A 
ATOM     27  N   LIG    1       26.216 -23.688   6.938  0.00  0.00    -0.255 NA
ATOM     28  C   LIG    1       25.378 -22.649   7.148  0.00  0.00    +0.111 A 
ATOM     29  C   LIG    1       24.003 -22.730   7.033  0.00  0.00    +0.020 A 
ATOM     30  C   LIG    1       26.510 -25.958   6.365  0.00  0.00    +0.028 A 
ATOM     31  C   LIG    1       23.452 -23.954   6.669  0.00  0.00    +0.011 A 
ATOM     32  C   LIG    1       26.006 -27.203   5.977  0.00  0.00    +0.006 A 
ENDBRANCH  22  23
ENDBRANCH   8  22
TORSDOF 4
ENDMDL
MODEL 7
REMARK VINA RESULT:      -9.3      4.064      6.947
REMARK  Name = *****
REMARK                            x       y       z     vdW  Elec       q    Type
REMARK                         _______ _______ _______ _____ _____    ______ ____
ROOT
ATOM      1  C   LIG    1       25.225 -28.134   6.610  0.00  0.00    +0.110 A 
ATOM      2  N   LIG    1       25.392 -28.705   7.771  0.00  0.00    -0.162 NA
ATOM      3  N   LIG    1       25.428 -30.071   7.699  0.00  0.00    -0.200 N 
ATOM      4  C   LIG    1       25.310 -30.837   6.539  0.00  0.00    +0.252 A 
ATOM      5  N   LIG    1       25.406 -32.121   6.821  0.00  0.00    -0.217 NA
ATOM      6  C   LIG    1       25.591 -32.195   8.174  0.00  0.00    +0.138 A 
ATOM      7  N   LIG    1       25.128 -30.255   5.326  0.00  0.00    -0.217 NA
ATOM      8  C   LIG    1       25.600 -30.941   8.750  0.00  0.00    +0.069 A 
ATOM      9  C   LIG    1       25.082 -28.962   5.342  0.00  0.00    +0.144 A 
ENDROOT
BRANCH   1  14
ATOM     10  C   LIG    1       24.955 -23.831   6.359  0.00  0.00    +0.072 A 
ATOM     11  C   LIG    1       23.811 -24.630   6.433  0.00  0.00    +0.136 A 
ATOM     12  F   LIG    1       22.586 -24.083   6.429  0.00  0.00    -0.205 F 
ATOM     13  C   LIG    1       23.902 -26.022   6.516  0.00  0.00    +0.049 A 
ATOM     14  C   LIG    1       25.155 -26.648   6.515  0.00  0.00    +0.006 A 
ATOM     15  C   LIG    1       26.311 -25.858   6.444  0.00  0.00    +0.011 A 
ATOM     16  C   LIG    1       26.208 -24.461   6.367  0.00  0.00    +0.016 A 
BRANCH  10  20
ATOM     17  C   LIG    1       25.145 -20.345   4.851  0.00  0.00    +0.128 C 
ATOM     18  N   LIG    1       25.175 -21.772   5.043  0.00  0.00    -0.314 N 
ATOM     19  H   LIG    1       25.322 -22.365   4.234  0.00  0.00    +0.149 HD
ATOM     20  C   LIG    1       24.914 -22.342   6.270  0.00  0.00    +0.247 C 
ATOM     21  O   LIG    1       24.656 -21.679   7.269  0.00  0.00    -0.270 OA
ENDBRANCH  10  20
ENDBRANCH   1  14
BRANCH   8  22
ATOM     22  C   LIG    1       25.780 -30.527  10.166  0.00  0.00    +0.092 C 
BRANCH  22  23
ATOM     23  C   LIG    1       24.515 -30.030  10.828  0.00  0.00    -0.041 A 
ATOM     24  C   LIG    1       24.544 -28.955  11.727  0.00  0.00    +0.014 A 
ATOM     25  C   LIG    1       23.368 -28.513  12.359  0.00  0.00    +0.001 A 
ATOM     26  C   LIG    1       22.135 -29.145  12.093  0.00  0.00    +0.071 A 
ATOM     27  N   LIG    1       20.989 -28.773  12.691  0.00  0.00    -0.255 NA
ATOM     28  C   LIG    1       21.039 -27.749  13.571  0.00  0.00    +0.111 A 
ATOM     29  C   LIG    1       22.193 -27.057  13.887  0.00  0.00    +0.020 A 
ATOM     30  C   LIG    1       22.120 -30.193  11.183  0.00  0.00    +0.028 A 
ATOM     31  C   LIG    1       23.376 -27.447  13.268  0.00  0.00    +0.011 A 
ATOM     32  C   LIG    1       23.286 -30.635  10.550  0.00  0.00    +0.006 A 
ENDBRANCH  22  23
ENDBRANCH   8  22
TORSDOF 4
ENDMDL
MODEL 8
REMARK VINA RESULT:      -9.3      5.137      9.079
REMARK  Name = *****
REMARK                            x       y       z     vdW  Elec       q    Type
REMARK                         _______ _______ _______ _____ _____    ______ ____
ROOT
ATOM      1  C   LIG    1       26.058 -28.402   8.561  0.00  0.00    +0.110 A 
ATOM      2  N   LIG    1       26.082 -27.178   8.112  0.00  0.00    -0.162 NA
ATOM      3  N   LIG    1       25.417 -27.027   6.925  0.00  0.00    -0.200 N 
ATOM      4  C   LIG    1       24.756 -28.032   6.219  0.00  0.00    +0.252 A 
ATOM      5  N   LIG    1       24.205 -27.543   5.126  0.00  0.00    -0.217 NA
ATOM      6  C   LIG    1       24.506 -26.210   5.119  0.00  0.00    +0.138 A 
ATOM      7  N   LIG    1       24.729 -29.312   6.673  0.00  0.00    -0.217 NA
ATOM      8  C   LIG    1       25.265 -25.859   6.216  0.00  0.00    +0.069 A 
ATOM      9  C   LIG    1       25.350 -29.507   7.791  0.00  0.00    +0.144 A 
ENDROOT
BRANCH   1  14
ATOM     10  C   LIG    1       28.007 -29.327  12.303  0.00  0.00    +0.072 A 
ATOM     11  C   LIG    1       27.330 -28.119  12.113  0.00  0.00    +0.136 A 
ATOM     12  F   LIG    1       27.264 -27.204  13.091  0.00  0.00    -0.205 F 
ATOM     13  C   LIG    1       26.699 -27.824  10.901  0.00  0.00    +0.049 A 
ATOM     14  C   LIG    1       26.744 -28.739   9.841  0.00  0.00    +0.006 A 
ATOM     15  C   LIG    1       27.417 -29.955  10.021  0.00  0.00    +0.011 A 
ATOM     16  C   LIG    1       28.042 -30.244  11.242  0.00  0.00    +0.016 A 
BRANCH  10  20
ATOM     17  C   LIG    1       30.450 -29.144  15.211  0.00  0.00    +0.128 C 
ATOM     18  N   LIG    1       29.733 -28.885  13.990  0.00  0.00    -0.314 N 
ATOM     19  H   LIG    1       29.956 -28.045  13.468  0.00  0.00    +0.149 HD
ATOM     20  C   LIG    1       28.696 -29.692  13.576  0.00  0.00    +0.247 C 
ATOM     21  O   LIG    1       28.331 -30.679  14.204  0.00  0.00    -0.270 OA
ENDBRANCH  10  20
ENDBRANCH   1  14
BRANCH   8  22
ATOM     22  C   LIG    1       25.810 -24.541   6.636  0.00  0.00    +0.092 C 
BRANCH  22  23
ATOM     23  C   LIG    1       24.911 -23.370   6.309  0.00  0.00    -0.041 A 
ATOM     24  C   LIG    1       25.256 -22.452   5.306  0.00  0.00    +0.014 A 
ATOM     25  C   LIG    1       24.428 -21.352   5.023  0.00  0.00    +0.001 A 
ATOM     26  C   LIG    1       23.231 -21.155   5.744  0.00  0.00    +0.071 A 
ATOM     27  N   LIG    1       22.421 -20.105   5.524  0.00  0.00    -0.255 NA
ATOM     28  C   LIG    1       22.779 -19.219   4.569  0.00  0.00    +0.111 A 
ATOM     29  C   LIG    1       23.922 -19.331   3.801  0.00  0.00    +0.020 A 
ATOM     30  C   LIG    1       22.894 -22.085   6.717  0.00  0.00    +0.028 A 
ATOM     31  C   LIG    1       24.758 -20.418   4.032  0.00  0.00    +0.011 A 
ATOM     32  C   LIG    1       23.711 -23.183   7.001  0.00  0.00    +0.006 A 
ENDBRANCH  22  23
ENDBRANCH   8  22
TORSDOF 4
ENDMDL
MODEL 9
REMARK VINA RESULT:      -9.0      2.235      3.366
REMARK  Name = *****
REMARK                            x       y       z     vdW  Elec       q    Type
REMARK                         _______ _______ _______ _____ _____    ______ ____
ROOT
ATOM      1  C   LIG    1       25.619 -20.092   5.560  0.00  0.00    +0.110 A 
ATOM      2  N   LIG    1       24.880 -21.019   6.104  0.00  0.00    -0.162 NA
ATOM      3  N   LIG    1       23.645 -21.131   5.524  0.00  0.00    -0.200 N 
ATOM      4  C   LIG    1       23.164 -20.371   4.459  0.00  0.00    +0.252 A 
ATOM      5  N   LIG    1       21.944 -20.749   4.135  0.00  0.00    -0.217 NA
ATOM      6  C   LIG    1       21.625 -21.764   4.994  0.00  0.00    +0.138 A 
ATOM      7  N   LIG    1       23.921 -19.399   3.888  0.00  0.00    -0.217 NA
ATOM      8  C   LIG    1       22.655 -22.020   5.875  0.00  0.00    +0.069 A 
ATOM      9  C   LIG    1       25.098 -19.250   4.405  0.00  0.00    +0.144 A 
ENDROOT
BRANCH   1  14
ATOM     10  C   LIG    1       29.606 -19.296   7.015  0.00  0.00    +0.072 A 
ATOM     11  C   LIG    1       29.203 -18.895   5.739  0.00  0.00    +0.136 A 
ATOM     12  F   LIG    1       30.046 -18.248   4.921  0.00  0.00    -0.205 F 
ATOM     13  C   LIG    1       27.911 -19.154   5.272  0.00  0.00    +0.049 A 
ATOM     14  C   LIG    1       26.993 -19.835   6.080  0.00  0.00    +0.006 A 
ATOM     15  C   LIG    1       27.383 -20.239   7.363  0.00  0.00    +0.011 A 
ATOM     16  C   LIG    1       28.680 -19.971   7.824  0.00  0.00    +0.016 A 
BRANCH  10  20
ATOM     17  C   LIG    1       32.394 -17.684   9.039  0.00  0.00    +0.128 C 
ATOM     18  N   LIG    1       31.120 -17.997   8.445  0.00  0.00    -0.314 N 
ATOM     19  H   LIG    1       30.306 -17.473   8.745  0.00  0.00    +0.149 HD
ATOM     20  C   LIG    1       30.972 -19.045   7.563  0.00  0.00    +0.247 C 
ATOM     21  O   LIG    1       31.907 -19.762   7.220  0.00  0.00    -0.270 OA
ENDBRANCH  10  20
ENDBRANCH   1  14
BRANCH   8  22
ATOM     22  C   LIG    1       22.773 -23.026   6.964  0.00  0.00    +0.092 C 
BRANCH  22  23
ATOM     23  C   LIG    1       23.820 -24.086   6.711  0.00  0.00    -0.041 A 
ATOM     24  C   LIG    1       23.474 -25.327   6.158  0.00  0.00    +0.014 A 
ATOM     25  C   LIG    1       24.449 -26.319   5.949  0.00  0.00    +0.001 A 
ATOM     26  C   LIG    1       25.795 -26.078   6.291  0.00  0.00    +0.071 A 
ATOM     27  N   LIG    1       26.757 -27.004   6.131  0.00  0.00    -0.255 NA
ATOM     28  C   LIG    1       26.402 -28.202   5.616  0.00  0.00    +0.111 A 
ATOM     29  C   LIG    1       25.114 -28.529   5.237  0.00  0.00    +0.020 A 
ATOM     30  C   LIG    1       26.125 -24.837   6.816  0.00  0.00    +0.028 A 
ATOM     31  C   LIG    1       24.123 -27.569   5.406  0.00  0.00    +0.011 A 
ATOM     32  C   LIG    1       25.161 -23.846   7.024  0.00  0.00    +0.006 A 
ENDBRANCH  22  23
ENDBRANCH   8  22
TORSDOF 4
ENDMDL
