MODEL 1
REMARK VINA RESULT:      -2.6      0.000      0.000
REMARK  Name = *****
REMARK                            x       y       z     vdW  Elec       q    Type
REMARK                         _______ _______ _______ _____ _____    ______ ____
ROOT
ATOM      1  C   LIG    1       29.475 -21.333   7.062  0.00  0.00    +0.044 C 
ATOM      2  C   LIG    1       28.431 -20.606   6.266  0.00  0.00    -0.050 C 
ATOM      3  C   LIG    1       27.101 -21.055   6.308  0.00  0.00    +0.013 C 
ATOM      4  C   LIG    1       26.105 -20.384   5.571  0.00  0.00    +0.004 C 
ATOM      5  C   LIG    1       24.703 -20.580   5.411  0.00  0.00    -0.017 C 
ATOM      6  C   LIG    1       23.765 -21.568   6.008  0.00  0.00    +0.037 C 
ATOM      7  C   LIG    1       22.415 -21.568   5.252  0.00  0.00    +0.007 C 
ATOM      8  C   LIG    1       21.904 -20.139   4.945  0.00  0.00    +0.025 C 
ATOM      9  C   LIG    1       22.897 -19.348   4.059  0.00  0.00    +0.101 C 
ATOM     10  N   LIG    1       22.592 -17.919   4.072  0.00  0.00    -0.306 NA
ATOM     11  H   LIG    1       21.766 -17.729   3.510  0.00  0.00    +0.123 HD
ATOM     12  C   LIG    1       23.707 -17.024   3.703  0.00  0.00    +0.103 C 
ATOM     13  C   LIG    1       25.082 -17.650   3.379  0.00  0.00    +0.137 C 
ATOM     14  N   LIG    1       25.316 -18.803   4.220  0.00  0.00    -0.341 NA
ATOM     15  C   LIG    1       24.267 -19.595   4.564  0.00  0.00    +0.040 C 
ATOM     16  C   LIG    1       26.468 -19.263   4.806  0.00  0.00    +0.050 C 
ATOM     17  C   LIG    1       27.791 -18.802   4.750  0.00  0.00    +0.026 C 
ATOM     18  C   LIG    1       28.759 -19.491   5.490  0.00  0.00    +0.005 C 
ENDROOT
TORSDOF 0
ENDMDL
MODEL 2
REMARK VINA RESULT:      -2.3      1.647      5.701
REMARK  Name = *****
REMARK                            x       y       z     vdW  Elec       q    Type
REMARK                         _______ _______ _______ _____ _____    ______ ____
ROOT
ATOM      1  C   LIG    1       19.851 -18.567   3.271  0.00  0.00    +0.044 C 
ATOM      2  C   LIG    1       21.141 -19.153   3.766  0.00  0.00    -0.050 C 
ATOM      3  C   LIG    1       22.339 -18.451   3.552  0.00  0.00    +0.013 C 
ATOM      4  C   LIG    1       23.560 -18.981   4.011  0.00  0.00    +0.004 C 
ATOM      5  C   LIG    1       24.909 -18.527   3.960  0.00  0.00    -0.017 C 
ATOM      6  C   LIG    1       25.516 -17.281   3.418  0.00  0.00    +0.037 C 
ATOM      7  C   LIG    1       27.053 -17.424   3.307  0.00  0.00    +0.007 C 
ATOM      8  C   LIG    1       27.682 -18.083   4.559  0.00  0.00    +0.025 C 
ATOM      9  C   LIG    1       27.131 -19.508   4.801  0.00  0.00    +0.101 C 
ATOM     10  N   LIG    1       27.447 -19.974   6.150  0.00  0.00    -0.306 NA
ATOM     11  H   LIG    1       28.431 -20.222   6.216  0.00  0.00    +0.123 HD
ATOM     12  C   LIG    1       26.587 -21.054   6.672  0.00  0.00    +0.103 C 
ATOM     13  C   LIG    1       25.426 -21.567   5.790  0.00  0.00    +0.137 C 
ATOM     14  N   LIG    1       24.853 -20.474   5.034  0.00  0.00    -0.341 NA
ATOM     15  C   LIG    1       25.666 -19.481   4.588  0.00  0.00    +0.040 C 
ATOM     16  C   LIG    1       23.552 -20.213   4.687  0.00  0.00    +0.050 C 
ATOM     17  C   LIG    1       22.367 -20.930   4.907  0.00  0.00    +0.026 C 
ATOM     18  C   LIG    1       21.169 -20.379   4.436  0.00  0.00    +0.005 C 
ENDROOT
TORSDOF 0
ENDMDL
MODEL 3
REMARK VINA RESULT:      -2.1      2.692      5.450
REMARK  Name = *****
REMARK                            x       y       z     vdW  Elec       q    Type
REMARK                         _______ _______ _______ _____ _____    ______ ____
ROOT
ATOM      1  C   LIG    1       21.600 -20.485   4.538  0.00  0.00    +0.044 C 
ATOM      2  C   LIG    1       22.783 -19.602   4.267  0.00  0.00    -0.050 C 
ATOM      3  C   LIG    1       22.622 -18.207   4.317  0.00  0.00    +0.013 C 
ATOM      4  C   LIG    1       23.720 -17.361   4.069  0.00  0.00    +0.004 C 
ATOM      5  C   LIG    1       23.884 -15.946   4.049  0.00  0.00    -0.017 C 
ATOM      6  C   LIG    1       22.936 -14.833   4.324  0.00  0.00    +0.037 C 
ATOM      7  C   LIG    1       23.518 -13.484   3.839  0.00  0.00    +0.007 C 
ATOM      8  C   LIG    1       25.009 -13.309   4.215  0.00  0.00    +0.025 C 
ATOM      9  C   LIG    1       25.896 -14.413   3.592  0.00  0.00    +0.101 C 
ATOM     10  N   LIG    1       27.212 -14.453   4.227  0.00  0.00    -0.306 NA
ATOM     11  H   LIG    1       27.778 -13.668   3.917  0.00  0.00    +0.123 HD
ATOM     12  C   LIG    1       27.947 -15.726   4.094  0.00  0.00    +0.103 C 
ATOM     13  C   LIG    1       27.269 -16.898   3.348  0.00  0.00    +0.137 C 
ATOM     14  N   LIG    1       25.846 -16.897   3.605  0.00  0.00    -0.341 NA
ATOM     15  C   LIG    1       25.200 -15.710   3.748  0.00  0.00    +0.040 C 
ATOM     16  C   LIG    1       24.969 -17.937   3.780  0.00  0.00    +0.050 C 
ATOM     17  C   LIG    1       25.147 -19.327   3.723  0.00  0.00    +0.026 C 
ATOM     18  C   LIG    1       24.037 -20.143   3.970  0.00  0.00    +0.005 C 
ENDROOT
TORSDOF 0
ENDMDL
MODEL 4
REMARK VINA RESULT:      -1.9      1.908      4.954
REMARK  Name = *****
REMARK                            x       y       z     vdW  Elec       q    Type
REMARK                         _______ _______ _______ _____ _____    ______ ____
ROOT
ATOM      1  C   LIG    1       27.750 -14.135   3.370  0.00  0.00    +0.044 C 
ATOM      2  C   LIG    1       27.238 -15.525   3.615  0.00  0.00    -0.050 C 
ATOM      3  C   LIG    1       27.976 -16.393   4.436  0.00  0.00    +0.013 C 
ATOM      4  C   LIG    1       27.510 -17.699   4.681  0.00  0.00    +0.004 C 
ATOM      5  C   LIG    1       28.007 -18.791   5.449  0.00  0.00    -0.017 C 
ATOM      6  C   LIG    1       29.209 -18.928   6.315  0.00  0.00    +0.037 C 
ATOM      7  C   LIG    1       29.475 -20.415   6.653  0.00  0.00    +0.007 C 
ATOM      8  C   LIG    1       28.184 -21.178   7.035  0.00  0.00    +0.025 C 
ATOM      9  C   LIG    1       27.147 -21.173   5.885  0.00  0.00    +0.101 C 
ATOM     10  N   LIG    1       25.826 -21.572   6.365  0.00  0.00    -0.306 NA
ATOM     11  H   LIG    1       25.799 -22.574   6.535  0.00  0.00    +0.123 HD
ATOM     12  C   LIG    1       24.687 -21.140   5.532  0.00  0.00    +0.103 C 
ATOM     13  C   LIG    1       24.970 -20.290   4.273  0.00  0.00    +0.137 C 
ATOM     14  N   LIG    1       26.082 -19.397   4.514  0.00  0.00    -0.341 NA
ATOM     15  C   LIG    1       27.105 -19.812   5.305  0.00  0.00    +0.040 C 
ATOM     16  C   LIG    1       26.299 -18.108   4.096  0.00  0.00    +0.050 C 
ATOM     17  C   LIG    1       25.551 -17.256   3.272  0.00  0.00    +0.026 C 
ATOM     18  C   LIG    1       26.040 -15.965   3.043  0.00  0.00    +0.005 C 
ENDROOT
TORSDOF 0
ENDMDL
MODEL 5
REMARK VINA RESULT:      -1.9      3.081      5.825
REMARK  Name = *****
REMARK                            x       y       z     vdW  Elec       q    Type
REMARK                         _______ _______ _______ _____ _____    ______ ____
ROOT
ATOM      1  C   LIG    1       24.146 -20.721   3.626  0.00  0.00    +0.044 C 
ATOM      2  C   LIG    1       24.030 -19.231   3.757  0.00  0.00    -0.050 C 
ATOM      3  C   LIG    1       25.187 -18.441   3.651  0.00  0.00    +0.013 C 
ATOM      4  C   LIG    1       25.099 -17.041   3.767  0.00  0.00    +0.004 C 
ATOM      5  C   LIG    1       26.056 -15.988   3.702  0.00  0.00    -0.017 C 
ATOM      6  C   LIG    1       27.523 -15.995   3.450  0.00  0.00    +0.037 C 
ATOM      7  C   LIG    1       28.149 -14.629   3.819  0.00  0.00    +0.007 C 
ATOM      8  C   LIG    1       27.307 -13.432   3.315  0.00  0.00    +0.025 C 
ATOM      9  C   LIG    1       25.882 -13.433   3.919  0.00  0.00    +0.101 C 
ATOM     10  N   LIG    1       24.996 -12.533   3.182  0.00  0.00    -0.306 NA
ATOM     11  H   LIG    1       25.211 -11.565   3.406  0.00  0.00    +0.123 HD
ATOM     12  C   LIG    1       23.552 -12.805   3.318  0.00  0.00    +0.103 C 
ATOM     13  C   LIG    1       23.103 -14.011   4.174  0.00  0.00    +0.137 C 
ATOM     14  N   LIG    1       24.043 -15.100   4.033  0.00  0.00    -0.341 NA
ATOM     15  C   LIG    1       25.364 -14.819   3.884  0.00  0.00    +0.040 C 
ATOM     16  C   LIG    1       23.839 -16.456   3.982  0.00  0.00    +0.050 C 
ATOM     17  C   LIG    1       22.674 -17.228   4.093  0.00  0.00    +0.026 C 
ATOM     18  C   LIG    1       22.793 -18.618   3.977  0.00  0.00    +0.005 C 
ENDROOT
TORSDOF 0
ENDMDL
MODEL 6
REMARK VINA RESULT:      -1.7      2.421      5.242
REMARK  Name = *****
REMARK                            x       y       z     vdW  Elec       q    Type
REMARK                         _______ _______ _______ _____ _____    ______ ____
ROOT
ATOM      1  C   LIG    1       28.146 -12.894   3.586  0.00  0.00    +0.044 C 
ATOM      2  C   LIG    1       27.573 -14.281   3.588  0.00  0.00    -0.050 C 
ATOM      3  C   LIG    1       28.235 -15.295   4.298  0.00  0.00    +0.013 C 
ATOM      4  C   LIG    1       27.712 -16.603   4.315  0.00  0.00    +0.004 C 
ATOM      5  C   LIG    1       28.129 -17.820   4.927  0.00  0.00    -0.017 C 
ATOM      6  C   LIG    1       29.278 -18.139   5.816  0.00  0.00    +0.037 C 
ATOM      7  C   LIG    1       29.473 -19.670   5.930  0.00  0.00    +0.007 C 
ATOM      8  C   LIG    1       28.138 -20.427   6.129  0.00  0.00    +0.025 C 
ATOM      9  C   LIG    1       27.164 -20.202   4.947  0.00  0.00    +0.101 C 
ATOM     10  N   LIG    1       25.806 -20.612   5.297  0.00  0.00    -0.306 NA
ATOM     11  H   LIG    1       25.735 -21.626   5.308  0.00  0.00    +0.123 HD
ATOM     12  C   LIG    1       24.728 -20.008   4.489  0.00  0.00    +0.103 C 
ATOM     13  C   LIG    1       25.107 -18.989   3.392  0.00  0.00    +0.137 C 
ATOM     14  N   LIG    1       26.235 -18.192   3.820  0.00  0.00    -0.341 NA
ATOM     15  C   LIG    1       27.200 -18.767   4.584  0.00  0.00    +0.040 C 
ATOM     16  C   LIG    1       26.520 -16.865   3.618  0.00  0.00    +0.050 C 
ATOM     17  C   LIG    1       25.846 -15.865   2.902  0.00  0.00    +0.026 C 
ATOM     18  C   LIG    1       26.392 -14.576   2.900  0.00  0.00    +0.005 C 
ENDROOT
TORSDOF 0
ENDMDL
MODEL 7
REMARK VINA RESULT:      -1.6      2.750      4.803
REMARK  Name = *****
REMARK                            x       y       z     vdW  Elec       q    Type
REMARK                         _______ _______ _______ _____ _____    ______ ____
ROOT
ATOM      1  C   LIG    1       28.575 -13.223   3.681  0.00  0.00    +0.044 C 
ATOM      2  C   LIG    1       27.246 -13.913   3.783  0.00  0.00    -0.050 C 
ATOM      3  C   LIG    1       27.180 -15.303   3.593  0.00  0.00    +0.013 C 
ATOM      4  C   LIG    1       25.943 -15.971   3.688  0.00  0.00    +0.004 C 
ATOM      5  C   LIG    1       25.551 -17.334   3.559  0.00  0.00    -0.017 C 
ATOM      6  C   LIG    1       26.335 -18.572   3.303  0.00  0.00    +0.037 C 
ATOM      7  C   LIG    1       25.401 -19.743   2.918  0.00  0.00    +0.007 C 
ATOM      8  C   LIG    1       24.145 -19.824   3.819  0.00  0.00    +0.025 C 
ATOM      9  C   LIG    1       23.287 -18.539   3.732  0.00  0.00    +0.101 C 
ATOM     10  N   LIG    1       22.323 -18.473   4.828  0.00  0.00    -0.306 NA
ATOM     11  H   LIG    1       21.560 -19.126   4.668  0.00  0.00    +0.123 HD
ATOM     12  C   LIG    1       21.813 -17.126   5.151  0.00  0.00    +0.103 C 
ATOM     13  C   LIG    1       22.353 -15.919   4.352  0.00  0.00    +0.137 C 
ATOM     14  N   LIG    1       23.750 -16.117   4.034  0.00  0.00    -0.341 NA
ATOM     15  C   LIG    1       24.197 -17.371   3.765  0.00  0.00    +0.040 C 
ATOM     16  C   LIG    1       24.790 -15.223   3.981  0.00  0.00    +0.050 C 
ATOM     17  C   LIG    1       24.837 -13.835   4.172  0.00  0.00    +0.026 C 
ATOM     18  C   LIG    1       26.079 -13.198   4.067  0.00  0.00    +0.005 C 
ENDROOT
TORSDOF 0
ENDMDL
MODEL 8
REMARK VINA RESULT:      -1.2      1.684      5.222
REMARK  Name = *****
REMARK                            x       y       z     vdW  Elec       q    Type
REMARK                         _______ _______ _______ _____ _____    ______ ____
ROOT
ATOM      1  C   LIG    1       21.393 -20.890   4.452  0.00  0.00    +0.044 C 
ATOM      2  C   LIG    1       22.863 -20.609   4.564  0.00  0.00    -0.050 C 
ATOM      3  C   LIG    1       23.353 -19.355   4.167  0.00  0.00    +0.013 C 
ATOM      4  C   LIG    1       24.729 -19.070   4.267  0.00  0.00    +0.004 C 
ATOM      5  C   LIG    1       25.519 -17.925   3.962  0.00  0.00    -0.017 C 
ATOM      6  C   LIG    1       25.156 -16.577   3.447  0.00  0.00    +0.037 C 
ATOM      7  C   LIG    1       26.415 -15.814   2.970  0.00  0.00    +0.007 C 
ATOM      8  C   LIG    1       27.600 -15.946   3.957  0.00  0.00    +0.025 C 
ATOM      9  C   LIG    1       28.032 -17.419   4.148  0.00  0.00    +0.101 C 
ATOM     10  N   LIG    1       28.889 -17.570   5.323  0.00  0.00    -0.306 NA
ATOM     11  H   LIG    1       29.818 -17.205   5.132  0.00  0.00    +0.123 HD
ATOM     12  C   LIG    1       28.955 -18.928   5.896  0.00  0.00    +0.103 C 
ATOM     13  C   LIG    1       28.107 -20.047   5.250  0.00  0.00    +0.137 C 
ATOM     14  N   LIG    1       26.848 -19.510   4.781  0.00  0.00    -0.341 NA
ATOM     15  C   LIG    1       26.812 -18.247   4.281  0.00  0.00    +0.040 C 
ATOM     16  C   LIG    1       25.590 -20.057   4.775  0.00  0.00    +0.050 C 
ATOM     17  C   LIG    1       25.119 -21.316   5.174  0.00  0.00    +0.026 C 
ATOM     18  C   LIG    1       23.747 -21.572   5.059  0.00  0.00    +0.005 C 
ENDROOT
TORSDOF 0
ENDMDL
MODEL 9
REMARK VINA RESULT:      -0.8      2.753      5.279
REMARK  Name = *****
REMARK                            x       y       z     vdW  Elec       q    Type
REMARK                         _______ _______ _______ _____ _____    ______ ____
ROOT
ATOM      1  C   LIG    1       23.869 -11.810   3.765  0.00  0.00    +0.044 C 
ATOM      2  C   LIG    1       24.367 -13.225   3.702  0.00  0.00    -0.050 C 
ATOM      3  C   LIG    1       23.496 -14.273   4.039  0.00  0.00    +0.013 C 
ATOM      4  C   LIG    1       23.943 -15.608   3.983  0.00  0.00    +0.004 C 
ATOM      5  C   LIG    1       23.323 -16.863   4.248  0.00  0.00    -0.017 C 
ATOM      6  C   LIG    1       21.937 -17.218   4.657  0.00  0.00    +0.037 C 
ATOM      7  C   LIG    1       21.867 -18.686   5.141  0.00  0.00    +0.007 C 
ATOM      8  C   LIG    1       22.649 -19.654   4.220  0.00  0.00    +0.025 C 
ATOM      9  C   LIG    1       24.152 -19.293   4.145  0.00  0.00    +0.101 C 
ATOM     10  N   LIG    1       24.802 -19.968   3.023  0.00  0.00    -0.306 NA
ATOM     11  H   LIG    1       24.934 -20.954   3.233  0.00  0.00    +0.123 HD
ATOM     12  C   LIG    1       26.054 -19.350   2.544  0.00  0.00    +0.103 C 
ATOM     13  C   LIG    1       26.546 -18.052   3.222  0.00  0.00    +0.137 C 
ATOM     14  N   LIG    1       25.419 -17.227   3.597  0.00  0.00    -0.341 NA
ATOM     15  C   LIG    1       24.270 -17.824   4.011  0.00  0.00    +0.040 C 
ATOM     16  C   LIG    1       25.265 -15.864   3.581  0.00  0.00    +0.050 C 
ATOM     17  C   LIG    1       26.149 -14.830   3.244  0.00  0.00    +0.026 C 
ATOM     18  C   LIG    1       25.678 -13.513   3.312  0.00  0.00    +0.005 C 
ENDROOT
TORSDOF 0
ENDMDL
