MODEL 1
REMARK VINA RESULT:      15.1      0.000      0.000
REMARK  Name = *****
REMARK                            x       y       z     vdW  Elec       q    Type
REMARK                         _______ _______ _______ _____ _____    ______ ____
ROOT
ATOM      1  O   LIG    1       23.325 -16.226   3.286  0.00  0.00    -0.186 OA
ENDROOT
BRANCH   1   2
ATOM      2  P   LIG    1       22.550 -17.511   3.786  0.00  0.00    +0.483 P 
ATOM      3  O   LIG    1       21.203 -17.269   4.379  0.00  0.00    -0.227 OA
BRANCH   2   4
ATOM      4  O   LIG    1       23.556 -18.202   4.827  0.00  0.00    -0.302 OA
ATOM      5  H   LIG    1       23.281 -19.103   5.079  0.00  0.00    +0.222 HD
ENDBRANCH   2   4
BRANCH   2   6
ATOM      6  O   LIG    1       22.541 -18.558   2.565  0.00  0.00    -0.284 OA
BRANCH   6   7
ATOM      7  C   LIG    1       23.489 -19.620   2.647  0.00  0.00    +0.206 C 
BRANCH   7   8
ATOM      8  C   LIG    1       22.886 -20.838   3.361  0.00  0.00    +0.178 C 
ATOM      9  C   LIG    1       21.912 -20.451   4.475  0.00  0.00    +0.178 C 
ATOM     10  C   LIG    1       22.831 -20.268   5.674  0.00  0.00    +0.195 C 
ATOM     11  C   LIG    1       23.899 -21.346   5.425  0.00  0.00    +0.253 C 
ATOM     12  O   LIG    1       23.953 -21.570   3.999  0.00  0.00    -0.346 OA
BRANCH  11  13
ATOM     13  N   LIG    1       25.239 -21.013   5.871  0.00  0.00    -0.285 N 
ATOM     14  C   LIG    1       26.034 -20.035   5.334  0.00  0.00    +0.167 A 
ATOM     15  N   LIG    1       25.751 -19.194   4.325  0.00  0.00    -0.216 NA
ATOM     16  C   LIG    1       26.783 -18.357   4.093  0.00  0.00    +0.225 A 
ATOM     17  N   LIG    1       27.983 -18.307   4.712  0.00  0.00    -0.219 NA
ATOM     18  C   LIG    1       28.229 -19.194   5.700  0.00  0.00    +0.147 A 
ATOM     19  C   LIG    1       27.212 -20.093   6.063  0.00  0.00    +0.147 A 
ATOM     20  N   LIG    1       27.138 -21.056   7.046  0.00  0.00    -0.231 NA
ATOM     21  C   LIG    1       25.933 -21.567   6.916  0.00  0.00    +0.203 A 
BRANCH  18  22
ATOM     22  N   LIG    1       29.470 -19.162   6.328  0.00  0.00    -0.341 N 
ATOM     23  H   LIG    1       29.445 -19.525   7.274  0.00  0.00    +0.144 HD
ATOM     24  H   LIG    1       29.950 -18.286   6.170  0.00  0.00    +0.144 HD
ENDBRANCH  18  22
ENDBRANCH  11  13
BRANCH  10  25
ATOM     25  O   LIG    1       22.125 -20.427   6.901  0.00  0.00    -0.385 OA
ATOM     26  H   LIG    1       21.621 -19.595   7.027  0.00  0.00    +0.210 HD
ENDBRANCH  10  25
BRANCH   9  27
ATOM     27  O   LIG    1       21.013 -21.528   4.788  0.00  0.00    -0.386 OA
ATOM     28  H   LIG    1       20.115 -21.158   4.872  0.00  0.00    +0.210 HD
ENDBRANCH   9  27
ENDBRANCH   7   8
ENDBRANCH   6   7
ENDBRANCH   2   6
ENDBRANCH   1   2
BRANCH   1  29
ATOM     29  P   LIG    1       25.040 -16.007   3.328  0.00  0.00    +0.483 P 
ATOM     30  O   LIG    1       24.917 -15.256   4.653  0.00  0.00    -0.227 OA
BRANCH  29  31
ATOM     31  O   LIG    1       24.921 -14.845   2.189  0.00  0.00    -0.302 OA
ATOM     32  H   LIG    1       24.090 -14.358   2.362  0.00  0.00    +0.222 HD
ENDBRANCH  29  31
BRANCH  29  33
ATOM     33  O   LIG    1       26.756 -15.788   3.371  0.00  0.00    -0.284 OA
BRANCH  33  34
ATOM     34  C   LIG    1       27.267 -15.090   2.239  0.00  0.00    +0.206 C 
BRANCH  34  38
ATOM     35  C   LIG    1       26.644 -12.202   3.731  0.00  0.00    +0.241 C 
ATOM     36  C   LIG    1       27.151 -13.213   4.784  0.00  0.00    +0.193 C 
ATOM     37  C   LIG    1       28.388 -13.780   4.122  0.00  0.00    +0.178 C 
ATOM     38  C   LIG    1       27.981 -13.802   2.656  0.00  0.00    +0.178 C 
ATOM     39  O   LIG    1       27.109 -12.686   2.447  0.00  0.00    -0.348 OA
BRANCH  35  44
ATOM     40  C   LIG    1       23.056 -12.023   4.906  0.00  0.00    +0.032 C 
ATOM     41  C   LIG    1       22.305 -11.621   3.670  0.00  0.00    +0.070 C 
ATOM     42  C   LIG    1       23.186 -11.448   2.465  0.00  0.00    -0.007 C 
ATOM     43  C   LIG    1       24.511 -11.639   2.546  0.00  0.00    +0.073 C 
ATOM     44  N   LIG    1       25.167 -12.042   3.711  0.00  0.00    -0.285 N 
ATOM     45  C   LIG    1       24.389 -12.182   4.871  0.00  0.00    +0.086 C 
BRANCH  40  49
ATOM     46  N   LIG    1       21.910 -13.574   6.364  0.00  0.00    -0.326 N 
ATOM     47  H   LIG    1       22.029 -14.321   5.703  0.00  0.00    +0.145 HD
ATOM     48  H   LIG    1       21.444 -13.780   7.237  0.00  0.00    +0.145 HD
ATOM     49  C   LIG    1       22.339 -12.289   6.186  0.00  0.00    +0.239 C 
ATOM     50  O   LIG    1       22.150 -11.449   7.041  0.00  0.00    -0.271 OA
ENDBRANCH  40  49
ENDBRANCH  35  44
BRANCH  37  51
ATOM     51  O   LIG    1       29.474 -12.858   4.329  0.00  0.00    -0.386 OA
ATOM     52  H   LIG    1       29.567 -12.320   3.523  0.00  0.00    +0.210 HD
ENDBRANCH  37  51
BRANCH  36  53
ATOM     53  O   LIG    1       27.478 -12.630   6.047  0.00  0.00    -0.385 OA
ATOM     54  H   LIG    1       27.251 -11.681   5.970  0.00  0.00    +0.210 HD
ENDBRANCH  36  53
ENDBRANCH  34  38
ENDBRANCH  33  34
ENDBRANCH  29  33
ENDBRANCH   1  29
TORSDOF 18
ENDMDL
