MODEL 1
REMARK VINA RESULT:      -5.4      0.000      0.000
REMARK  Name = *****
REMARK                            x       y       z     vdW  Elec       q    Type
REMARK                         _______ _______ _______ _____ _____    ______ ____
ROOT
ATOM      1  C   LIG    1       24.175 -18.368   3.772  0.00  0.00    +0.004 A 
ATOM      2  S   LIG    1       24.148 -16.656   3.927  0.00  0.00    -0.089 S 
ATOM      3  C   LIG    1       25.810 -16.505   3.538  0.00  0.00    +0.060 A 
ATOM      4  C   LIG    1       26.380 -17.746   3.324  0.00  0.00    +0.020 A 
ATOM      5  C   LIG    1       25.447 -18.815   3.474  0.00  0.00    +0.013 A 
ENDROOT
BRANCH   1   7
ATOM      6  C   LIG    1       21.700 -18.239   4.271  0.00  0.00    +0.025 C 
ATOM      7  C   LIG    1       22.878 -19.144   3.893  0.00  0.00    +0.131 C 
BRANCH   7   8
ATOM      8  C   LIG    1       23.020 -20.286   4.907  0.00  0.00    +0.312 C 
ATOM      9  O   LIG    1       22.890 -20.139   6.113  0.00  0.00    -0.250 OA
BRANCH   8  10
ATOM     10  O   LIG    1       23.226 -21.517   4.381  0.00  0.00    -0.480 OA
ATOM     11  H   LIG    1       23.475 -21.523   3.435  0.00  0.00    +0.295 HD
ENDBRANCH   8  10
ENDBRANCH   7   8
ENDBRANCH   1   7
BRANCH   3  12
ATOM     12  C   LIG    1       26.392 -15.169   3.447  0.00  0.00    +0.200 C 
ATOM     13  O   LIG    1       27.604 -14.960   3.484  0.00  0.00    -0.286 OA
BRANCH  12  14
ATOM     14  C   LIG    1       25.501 -13.976   3.325  0.00  0.00    +0.023 A 
ATOM     15  C   LIG    1       24.892 -13.466   4.480  0.00  0.00    +0.012 A 
ATOM     16  C   LIG    1       24.063 -12.345   4.403  0.00  0.00    +0.001 A 
ATOM     17  C   LIG    1       23.840 -11.727   3.173  0.00  0.00    +0.000 A 
ATOM     18  C   LIG    1       24.459 -12.214   2.024  0.00  0.00    +0.001 A 
ATOM     19  C   LIG    1       25.300 -13.327   2.099  0.00  0.00    +0.012 A 
ENDBRANCH  12  14
ENDBRANCH   3  12
TORSDOF 5
ENDMDL
MODEL 2
REMARK VINA RESULT:      -5.1      1.281      1.734
REMARK  Name = *****
REMARK                            x       y       z     vdW  Elec       q    Type
REMARK                         _______ _______ _______ _____ _____    ______ ____
ROOT
ATOM      1  C   LIG    1       23.652 -19.077   4.174  0.00  0.00    +0.004 A 
ATOM      2  S   LIG    1       25.152 -18.432   3.639  0.00  0.00    -0.089 S 
ATOM      3  C   LIG    1       24.571 -16.819   3.670  0.00  0.00    +0.060 A 
ATOM      4  C   LIG    1       23.244 -16.782   4.054  0.00  0.00    +0.020 A 
ATOM      5  C   LIG    1       22.712 -18.077   4.328  0.00  0.00    +0.013 A 
ENDROOT
BRANCH   1   7
ATOM      6  C   LIG    1       22.118 -20.970   4.846  0.00  0.00    +0.025 C 
ATOM      7  C   LIG    1       23.547 -20.559   4.476  0.00  0.00    +0.131 C 
BRANCH   7   8
ATOM      8  C   LIG    1       24.522 -20.958   5.591  0.00  0.00    +0.312 C 
ATOM      9  O   LIG    1       24.285 -20.810   6.781  0.00  0.00    -0.250 OA
BRANCH   8  10
ATOM     10  O   LIG    1       25.659 -21.571   5.186  0.00  0.00    -0.480 OA
ATOM     11  H   LIG    1       26.311 -21.736   5.895  0.00  0.00    +0.295 HD
ENDBRANCH   8  10
ENDBRANCH   7   8
ENDBRANCH   1   7
BRANCH   3  12
ATOM     12  C   LIG    1       25.492 -15.734   3.343  0.00  0.00    +0.200 C 
ATOM     13  O   LIG    1       26.691 -15.910   3.130  0.00  0.00    -0.286 OA
BRANCH  12  14
ATOM     14  C   LIG    1       24.989 -14.328   3.276  0.00  0.00    +0.023 A 
ATOM     15  C   LIG    1       24.399 -13.766   4.417  0.00  0.00    +0.012 A 
ATOM     16  C   LIG    1       23.930 -12.452   4.392  0.00  0.00    +0.001 A 
ATOM     17  C   LIG    1       24.051 -11.690   3.230  0.00  0.00    +0.000 A 
ATOM     18  C   LIG    1       24.658 -12.233   2.100  0.00  0.00    +0.001 A 
ATOM     19  C   LIG    1       25.139 -13.544   2.125  0.00  0.00    +0.012 A 
ENDBRANCH  12  14
ENDBRANCH   3  12
TORSDOF 5
ENDMDL
MODEL 3
REMARK VINA RESULT:      -5.1      1.758      6.782
REMARK  Name = *****
REMARK                            x       y       z     vdW  Elec       q    Type
REMARK                         _______ _______ _______ _____ _____    ______ ____
ROOT
ATOM      1  C   LIG    1       25.595 -15.362   3.650  0.00  0.00    +0.004 A 
ATOM      2  S   LIG    1       24.092 -16.161   3.889  0.00  0.00    -0.089 S 
ATOM      3  C   LIG    1       24.770 -17.710   3.608  0.00  0.00    +0.060 A 
ATOM      4  C   LIG    1       26.115 -17.611   3.306  0.00  0.00    +0.020 A 
ATOM      5  C   LIG    1       26.585 -16.264   3.315  0.00  0.00    +0.013 A 
ENDROOT
BRANCH   1   7
ATOM      6  C   LIG    1       25.488 -13.065   2.601  0.00  0.00    +0.025 C 
ATOM      7  C   LIG    1       25.687 -13.868   3.891  0.00  0.00    +0.131 C 
BRANCH   7   8
ATOM      8  C   LIG    1       27.025 -13.504   4.545  0.00  0.00    +0.312 C 
ATOM      9  O   LIG    1       28.062 -13.342   3.919  0.00  0.00    -0.250 OA
BRANCH   8  10
ATOM     10  O   LIG    1       26.986 -13.287   5.881  0.00  0.00    -0.480 OA
ATOM     11  H   LIG    1       27.287 -12.400   6.162  0.00  0.00    +0.295 HD
ENDBRANCH   8  10
ENDBRANCH   7   8
ENDBRANCH   1   7
BRANCH   3  12
ATOM     12  C   LIG    1       23.915 -18.887   3.744  0.00  0.00    +0.200 C 
ATOM     13  O   LIG    1       23.014 -19.158   2.951  0.00  0.00    -0.286 OA
BRANCH  12  14
ATOM     14  C   LIG    1       24.105 -19.814   4.900  0.00  0.00    +0.023 A 
ATOM     15  C   LIG    1       22.979 -20.234   5.622  0.00  0.00    +0.012 A 
ATOM     16  C   LIG    1       23.120 -21.109   6.700  0.00  0.00    +0.001 A 
ATOM     17  C   LIG    1       24.384 -21.572   7.062  0.00  0.00    +0.000 A 
ATOM     18  C   LIG    1       25.506 -21.178   6.335  0.00  0.00    +0.001 A 
ATOM     19  C   LIG    1       25.368 -20.312   5.248  0.00  0.00    +0.012 A 
ENDBRANCH  12  14
ENDBRANCH   3  12
TORSDOF 5
ENDMDL
MODEL 4
REMARK VINA RESULT:      -5.1      2.398      6.866
REMARK  Name = *****
REMARK                            x       y       z     vdW  Elec       q    Type
REMARK                         _______ _______ _______ _____ _____    ______ ____
ROOT
ATOM      1  C   LIG    1       24.510 -15.015   4.004  0.00  0.00    +0.004 A 
ATOM      2  S   LIG    1       25.329 -16.477   3.624  0.00  0.00    -0.089 S 
ATOM      3  C   LIG    1       23.949 -17.440   3.945  0.00  0.00    +0.060 A 
ATOM      4  C   LIG    1       22.890 -16.657   4.366  0.00  0.00    +0.020 A 
ATOM      5  C   LIG    1       23.216 -15.269   4.415  0.00  0.00    +0.013 A 
ENDROOT
BRANCH   1   7
ATOM      6  C   LIG    1       26.293 -13.436   4.850  0.00  0.00    +0.025 C 
ATOM      7  C   LIG    1       25.216 -13.691   3.790  0.00  0.00    +0.131 C 
BRANCH   7   8
ATOM      8  C   LIG    1       24.209 -12.535   3.764  0.00  0.00    +0.312 C 
ATOM      9  O   LIG    1       23.863 -11.916   4.759  0.00  0.00    -0.250 OA
BRANCH   8  10
ATOM     10  O   LIG    1       23.766 -12.170   2.537  0.00  0.00    -0.480 OA
ATOM     11  H   LIG    1       24.401 -12.321   1.809  0.00  0.00    +0.295 HD
ENDBRANCH   8  10
ENDBRANCH   7   8
ENDBRANCH   1   7
BRANCH   3  12
ATOM     12  C   LIG    1       24.028 -18.881   3.721  0.00  0.00    +0.200 C 
ATOM     13  O   LIG    1       23.956 -19.393   2.604  0.00  0.00    -0.286 OA
BRANCH  12  14
ATOM     14  C   LIG    1       24.181 -19.807   4.884  0.00  0.00    +0.023 A 
ATOM     15  C   LIG    1       23.059 -20.090   5.675  0.00  0.00    +0.012 A 
ATOM     16  C   LIG    1       23.165 -20.961   6.761  0.00  0.00    +0.001 A 
ATOM     17  C   LIG    1       24.390 -21.554   7.062  0.00  0.00    +0.000 A 
ATOM     18  C   LIG    1       25.505 -21.296   6.266  0.00  0.00    +0.001 A 
ATOM     19  C   LIG    1       25.399 -20.436   5.171  0.00  0.00    +0.012 A 
ENDBRANCH  12  14
ENDBRANCH   3  12
TORSDOF 5
ENDMDL
MODEL 5
REMARK VINA RESULT:      -5.0      1.845      6.602
REMARK  Name = *****
REMARK                            x       y       z     vdW  Elec       q    Type
REMARK                         _______ _______ _______ _____ _____    ______ ____
ROOT
ATOM      1  C   LIG    1       25.708 -15.370   3.657  0.00  0.00    +0.004 A 
ATOM      2  S   LIG    1       24.492 -16.584   3.597  0.00  0.00    -0.089 S 
ATOM      3  C   LIG    1       25.639 -17.855   3.519  0.00  0.00    +0.060 A 
ATOM      4  C   LIG    1       26.928 -17.354   3.506  0.00  0.00    +0.020 A 
ATOM      5  C   LIG    1       26.967 -15.929   3.570  0.00  0.00    +0.013 A 
ENDROOT
BRANCH   1   7
ATOM      6  C   LIG    1       23.814 -13.787   4.201  0.00  0.00    +0.025 C 
ATOM      7  C   LIG    1       25.302 -13.923   3.862  0.00  0.00    +0.131 C 
BRANCH   7   8
ATOM      8  C   LIG    1       25.647 -13.081   2.629  0.00  0.00    +0.312 C 
ATOM      9  O   LIG    1       24.818 -12.706   1.812  0.00  0.00    -0.250 OA
BRANCH   8  10
ATOM     10  O   LIG    1       26.941 -12.695   2.524  0.00  0.00    -0.480 OA
ATOM     11  H   LIG    1       27.577 -13.424   2.384  0.00  0.00    +0.295 HD
ENDBRANCH   8  10
ENDBRANCH   7   8
ENDBRANCH   1   7
BRANCH   3  12
ATOM     12  C   LIG    1       25.161 -19.235   3.509  0.00  0.00    +0.200 C 
ATOM     13  O   LIG    1       25.172 -19.942   2.502  0.00  0.00    -0.286 OA
BRANCH  12  14
ATOM     14  C   LIG    1       24.606 -19.838   4.758  0.00  0.00    +0.023 A 
ATOM     15  C   LIG    1       23.215 -19.872   4.932  0.00  0.00    +0.012 A 
ATOM     16  C   LIG    1       22.664 -20.439   6.082  0.00  0.00    +0.001 A 
ATOM     17  C   LIG    1       23.497 -20.978   7.062  0.00  0.00    +0.000 A 
ATOM     18  C   LIG    1       24.879 -20.969   6.886  0.00  0.00    +0.001 A 
ATOM     19  C   LIG    1       25.434 -20.414   5.731  0.00  0.00    +0.012 A 
ENDBRANCH  12  14
ENDBRANCH   3  12
TORSDOF 5
ENDMDL
MODEL 6
REMARK VINA RESULT:      -5.0      1.858      6.764
REMARK  Name = *****
REMARK                            x       y       z     vdW  Elec       q    Type
REMARK                         _______ _______ _______ _____ _____    ______ ____
ROOT
ATOM      1  C   LIG    1       24.334 -15.097   4.022  0.00  0.00    +0.004 A 
ATOM      2  S   LIG    1       25.120 -16.575   3.633  0.00  0.00    -0.089 S 
ATOM      3  C   LIG    1       23.733 -17.513   3.999  0.00  0.00    +0.060 A 
ATOM      4  C   LIG    1       22.699 -16.709   4.442  0.00  0.00    +0.020 A 
ATOM      5  C   LIG    1       23.048 -15.326   4.470  0.00  0.00    +0.013 A 
ENDROOT
BRANCH   1   7
ATOM      6  C   LIG    1       24.245 -12.844   2.881  0.00  0.00    +0.025 C 
ATOM      7  C   LIG    1       25.056 -13.786   3.777  0.00  0.00    +0.131 C 
BRANCH   7   8
ATOM      8  C   LIG    1       26.443 -14.033   3.175  0.00  0.00    +0.312 C 
ATOM      9  O   LIG    1       27.436 -14.286   3.842  0.00  0.00    -0.250 OA
BRANCH   8  10
ATOM     10  O   LIG    1       26.505 -14.034   1.821  0.00  0.00    -0.480 OA
ATOM     11  H   LIG    1       25.641 -14.129   1.372  0.00  0.00    +0.295 HD
ENDBRANCH   8  10
ENDBRANCH   7   8
ENDBRANCH   1   7
BRANCH   3  12
ATOM     12  C   LIG    1       23.783 -18.956   3.785  0.00  0.00    +0.200 C 
ATOM     13  O   LIG    1       23.565 -19.482   2.694  0.00  0.00    -0.286 OA
BRANCH  12  14
ATOM     14  C   LIG    1       24.089 -19.867   4.929  0.00  0.00    +0.023 A 
ATOM     15  C   LIG    1       25.370 -20.430   5.021  0.00  0.00    +0.012 A 
ATOM     16  C   LIG    1       25.692 -21.276   6.084  0.00  0.00    +0.001 A 
ATOM     17  C   LIG    1       24.740 -21.561   7.061  0.00  0.00    +0.000 A 
ATOM     18  C   LIG    1       23.472 -20.988   6.990  0.00  0.00    +0.001 A 
ATOM     19  C   LIG    1       23.150 -20.131   5.935  0.00  0.00    +0.012 A 
ENDBRANCH  12  14
ENDBRANCH   3  12
TORSDOF 5
ENDMDL
MODEL 7
REMARK VINA RESULT:      -5.0      1.748      6.733
REMARK  Name = *****
REMARK                            x       y       z     vdW  Elec       q    Type
REMARK                         _______ _______ _______ _____ _____    ______ ____
ROOT
ATOM      1  C   LIG    1       24.220 -14.776   4.229  0.00  0.00    +0.004 A 
ATOM      2  S   LIG    1       24.304 -16.391   3.650  0.00  0.00    -0.089 S 
ATOM      3  C   LIG    1       22.846 -16.842   4.431  0.00  0.00    +0.060 A 
ATOM      4  C   LIG    1       22.324 -15.781   5.147  0.00  0.00    +0.020 A 
ATOM      5  C   LIG    1       23.119 -14.601   5.044  0.00  0.00    +0.013 A 
ENDROOT
BRANCH   1   7
ATOM      6  C   LIG    1       24.628 -12.714   2.824  0.00  0.00    +0.025 C 
ATOM      7  C   LIG    1       25.245 -13.764   3.755  0.00  0.00    +0.131 C 
BRANCH   7   8
ATOM      8  C   LIG    1       26.422 -14.463   3.064  0.00  0.00    +0.312 C 
ATOM      9  O   LIG    1       26.605 -14.446   1.856  0.00  0.00    -0.250 OA
BRANCH   8  10
ATOM     10  O   LIG    1       27.319 -15.056   3.888  0.00  0.00    -0.480 OA
ATOM     11  H   LIG    1       27.363 -16.030   3.815  0.00  0.00    +0.295 HD
ENDBRANCH   8  10
ENDBRANCH   7   8
ENDBRANCH   1   7
BRANCH   3  12
ATOM     12  C   LIG    1       22.334 -18.196   4.239  0.00  0.00    +0.200 C 
ATOM     13  O   LIG    1       21.248 -18.435   3.712  0.00  0.00    -0.286 OA
BRANCH  12  14
ATOM     14  C   LIG    1       23.132 -19.367   4.713  0.00  0.00    +0.023 A 
ATOM     15  C   LIG    1       24.231 -19.789   3.951  0.00  0.00    +0.012 A 
ATOM     16  C   LIG    1       25.005 -20.872   4.372  0.00  0.00    +0.001 A 
ATOM     17  C   LIG    1       24.688 -21.537   5.556  0.00  0.00    +0.000 A 
ATOM     18  C   LIG    1       23.611 -21.109   6.330  0.00  0.00    +0.001 A 
ATOM     19  C   LIG    1       22.843 -20.018   5.919  0.00  0.00    +0.012 A 
ENDBRANCH  12  14
ENDBRANCH   3  12
TORSDOF 5
ENDMDL
MODEL 8
REMARK VINA RESULT:      -4.9      2.192      3.138
REMARK  Name = *****
REMARK                            x       y       z     vdW  Elec       q    Type
REMARK                         _______ _______ _______ _____ _____    ______ ____
ROOT
ATOM      1  C   LIG    1       23.880 -18.671   4.059  0.00  0.00    +0.004 A 
ATOM      2  S   LIG    1       24.887 -17.345   3.634  0.00  0.00    -0.089 S 
ATOM      3  C   LIG    1       23.695 -16.188   4.058  0.00  0.00    +0.060 A 
ATOM      4  C   LIG    1       22.538 -16.810   4.487  0.00  0.00    +0.020 A 
ATOM      5  C   LIG    1       22.638 -18.233   4.473  0.00  0.00    +0.013 A 
ENDROOT
BRANCH   1   7
ATOM      6  C   LIG    1       23.374 -21.136   4.294  0.00  0.00    +0.025 C 
ATOM      7  C   LIG    1       24.446 -20.077   4.013  0.00  0.00    +0.131 C 
BRANCH   7   8
ATOM      8  C   LIG    1       25.613 -20.226   4.997  0.00  0.00    +0.312 C 
ATOM      9  O   LIG    1       25.468 -20.456   6.189  0.00  0.00    -0.250 OA
BRANCH   8  10
ATOM     10  O   LIG    1       26.852 -20.165   4.452  0.00  0.00    -0.480 OA
ATOM     11  H   LIG    1       27.091 -20.929   3.890  0.00  0.00    +0.295 HD
ENDBRANCH   8  10
ENDBRANCH   7   8
ENDBRANCH   1   7
BRANCH   3  12
ATOM     12  C   LIG    1       24.025 -14.769   3.958  0.00  0.00    +0.200 C 
ATOM     13  O   LIG    1       23.174 -13.887   3.857  0.00  0.00    -0.286 OA
BRANCH  12  14
ATOM     14  C   LIG    1       25.456 -14.337   3.953  0.00  0.00    +0.023 A 
ATOM     15  C   LIG    1       26.168 -14.370   2.746  0.00  0.00    +0.012 A 
ATOM     16  C   LIG    1       27.502 -13.961   2.704  0.00  0.00    +0.001 A 
ATOM     17  C   LIG    1       28.131 -13.515   3.866  0.00  0.00    +0.000 A 
ATOM     18  C   LIG    1       27.423 -13.458   5.065  0.00  0.00    +0.001 A 
ATOM     19  C   LIG    1       26.085 -13.854   5.108  0.00  0.00    +0.012 A 
ENDBRANCH  12  14
ENDBRANCH   3  12
TORSDOF 5
ENDMDL
MODEL 9
REMARK VINA RESULT:      -4.5      1.841      2.371
REMARK  Name = *****
REMARK                            x       y       z     vdW  Elec       q    Type
REMARK                         _______ _______ _______ _____ _____    ______ ____
ROOT
ATOM      1  C   LIG    1       24.249 -18.523   3.854  0.00  0.00    +0.004 A 
ATOM      2  S   LIG    1       23.595 -16.963   4.156  0.00  0.00    -0.089 S 
ATOM      3  C   LIG    1       25.018 -16.166   3.631  0.00  0.00    +0.060 A 
ATOM      4  C   LIG    1       25.986 -17.081   3.262  0.00  0.00    +0.020 A 
ATOM      5  C   LIG    1       25.552 -18.432   3.404  0.00  0.00    +0.013 A 
ENDROOT
BRANCH   1   7
ATOM      6  C   LIG    1       21.938 -19.367   4.435  0.00  0.00    +0.025 C 
ATOM      7  C   LIG    1       23.366 -19.744   4.026  0.00  0.00    +0.131 C 
BRANCH   7   8
ATOM      8  C   LIG    1       23.974 -20.716   5.045  0.00  0.00    +0.312 C 
ATOM      9  O   LIG    1       24.797 -21.572   4.756  0.00  0.00    -0.250 OA
BRANCH   8  10
ATOM     10  O   LIG    1       23.602 -20.524   6.333  0.00  0.00    -0.480 OA
ATOM     11  H   LIG    1       23.771 -21.284   6.926  0.00  0.00    +0.295 HD
ENDBRANCH   8  10
ENDBRANCH   7   8
ENDBRANCH   1   7
BRANCH   3  12
ATOM     12  C   LIG    1       25.037 -14.706   3.602  0.00  0.00    +0.200 C 
ATOM     13  O   LIG    1       24.048 -14.026   3.332  0.00  0.00    -0.286 OA
BRANCH  12  14
ATOM     14  C   LIG    1       26.308 -13.973   3.887  0.00  0.00    +0.023 A 
ATOM     15  C   LIG    1       26.566 -13.552   5.199  0.00  0.00    +0.012 A 
ATOM     16  C   LIG    1       27.750 -12.876   5.501  0.00  0.00    +0.001 A 
ATOM     17  C   LIG    1       28.682 -12.619   4.496  0.00  0.00    +0.000 A 
ATOM     18  C   LIG    1       28.443 -13.054   3.194  0.00  0.00    +0.001 A 
ATOM     19  C   LIG    1       27.266 -13.742   2.891  0.00  0.00    +0.012 A 
ENDBRANCH  12  14
ENDBRANCH   3  12
TORSDOF 5
ENDMDL
