MODEL 1
REMARK VINA RESULT:      -2.1      0.000      0.000
REMARK  Name = *****
REMARK                            x       y       z     vdW  Elec       q    Type
REMARK                         _______ _______ _______ _____ _____    ______ ____
ROOT
ATOM      1  C   LIG    1       25.850 -15.105   3.382  0.00  0.00    +0.117 C 
ENDROOT
BRANCH   1   6
ATOM      2  C   LIG    1       29.274 -12.157   5.297  0.00  0.00    +0.105 C 
ATOM      3  N   LIG    1       28.154 -12.202   4.355  0.00  0.00    -0.303 NA
ATOM      4  C   LIG    1       28.408 -13.163   3.266  0.00  0.00    +0.099 C 
ATOM      5  C   LIG    1       28.273 -14.650   3.669  0.00  0.00    +0.100 C 
ATOM      6  N   LIG    1       26.998 -15.018   4.335  0.00  0.00    -0.289 NA
ATOM      7  C   LIG    1       26.771 -14.045   5.433  0.00  0.00    +0.100 C 
ATOM      8  C   LIG    1       26.895 -12.556   5.037  0.00  0.00    +0.099 C 
ENDBRANCH   1   6
BRANCH   1   9
ATOM      9  C   LIG    1       24.926 -16.306   3.660  0.00  0.00    -0.026 A 
ATOM     10  C   LIG    1       23.598 -16.122   4.092  0.00  0.00    +0.007 A 
ATOM     11  C   LIG    1       22.778 -17.219   4.371  0.00  0.00    +0.020 A 
ATOM     12  C   LIG    1       23.263 -18.508   4.188  0.00  0.00    +0.041 A 
ATOM     13 CL   LIG    1       22.254 -19.859   4.532  0.00  0.00    -0.084 Cl
ATOM     14  C   LIG    1       24.564 -18.714   3.728  0.00  0.00    +0.020 A 
ATOM     15  C   LIG    1       25.392 -17.617   3.466  0.00  0.00    +0.007 A 
ENDBRANCH   1   9
BRANCH   1  16
ATOM     16  C   LIG    1       24.997 -13.825   3.329  0.00  0.00    -0.026 A 
ATOM     17  C   LIG    1       24.975 -13.041   2.164  0.00  0.00    +0.005 A 
ATOM     18  C   LIG    1       24.228 -11.862   2.109  0.00  0.00    +0.000 A 
ATOM     19  C   LIG    1       23.494 -11.448   3.219  0.00  0.00    +0.000 A 
ATOM     20  C   LIG    1       23.485 -12.225   4.374  0.00  0.00    +0.000 A 
ATOM     21  C   LIG    1       24.215 -13.414   4.423  0.00  0.00    +0.005 A 
ENDBRANCH   1  16
TORSDOF 3
ENDMDL
MODEL 2
REMARK VINA RESULT:      -0.9      3.068      5.848
REMARK  Name = *****
REMARK                            x       y       z     vdW  Elec       q    Type
REMARK                         _______ _______ _______ _____ _____    ______ ____
ROOT
ATOM      1  C   LIG    1       26.208 -18.626   5.003  0.00  0.00    +0.117 C 
ENDROOT
BRANCH   1   6
ATOM      2  C   LIG    1       26.912 -14.524   2.404  0.00  0.00    +0.105 C 
ATOM      3  N   LIG    1       26.399 -15.037   3.676  0.00  0.00    -0.303 NA
ATOM      4  C   LIG    1       25.273 -15.964   3.464  0.00  0.00    +0.099 C 
ATOM      5  C   LIG    1       25.674 -17.362   2.935  0.00  0.00    +0.100 C 
ATOM      6  N   LIG    1       26.723 -18.064   3.718  0.00  0.00    -0.289 NA
ATOM      7  C   LIG    1       27.849 -17.115   3.907  0.00  0.00    +0.100 C 
ATOM      8  C   LIG    1       27.458 -15.719   4.444  0.00  0.00    +0.099 C 
ENDBRANCH   1   6
BRANCH   1   9
ATOM      9  C   LIG    1       24.865 -19.365   4.842  0.00  0.00    -0.026 A 
ATOM     10  C   LIG    1       23.641 -18.668   4.857  0.00  0.00    +0.007 A 
ATOM     11  C   LIG    1       22.428 -19.350   4.741  0.00  0.00    +0.020 A 
ATOM     12  C   LIG    1       22.425 -20.731   4.575  0.00  0.00    +0.041 A 
ATOM     13 CL   LIG    1       20.931 -21.572   4.433  0.00  0.00    -0.084 Cl
ATOM     14  C   LIG    1       23.626 -21.438   4.524  0.00  0.00    +0.020 A 
ATOM     15  C   LIG    1       24.841 -20.757   4.658  0.00  0.00    +0.007 A 
ENDBRANCH   1   9
BRANCH   1  16
ATOM     16  C   LIG    1       27.206 -19.561   5.709  0.00  0.00    -0.026 A 
ATOM     17  C   LIG    1       26.744 -20.706   6.381  0.00  0.00    +0.005 A 
ATOM     18  C   LIG    1       27.634 -21.550   7.050  0.00  0.00    +0.000 A 
ATOM     19  C   LIG    1       28.997 -21.261   7.059  0.00  0.00    +0.000 A 
ATOM     20  C   LIG    1       29.475 -20.145   6.378  0.00  0.00    +0.000 A 
ATOM     21  C   LIG    1       28.590 -19.312   5.692  0.00  0.00    +0.005 A 
ENDBRANCH   1  16
TORSDOF 3
ENDMDL
MODEL 3
REMARK VINA RESULT:      -0.3      3.524      7.220
REMARK  Name = *****
REMARK                            x       y       z     vdW  Elec       q    Type
REMARK                         _______ _______ _______ _____ _____    ______ ____
ROOT
ATOM      1  C   LIG    1       25.476 -19.057   3.443  0.00  0.00    +0.117 C 
ENDROOT
BRANCH   1   6
ATOM      2  C   LIG    1       21.567 -21.572   5.014  0.00  0.00    +0.105 C 
ATOM      3  N   LIG    1       22.795 -20.910   5.457  0.00  0.00    -0.303 NA
ATOM      4  C   LIG    1       23.987 -21.532   4.852  0.00  0.00    +0.099 C 
ATOM      5  C   LIG    1       24.210 -21.189   3.360  0.00  0.00    +0.100 C 
ATOM      6  N   LIG    1       24.214 -19.742   3.030  0.00  0.00    -0.289 NA
ATOM      7  C   LIG    1       23.000 -19.142   3.639  0.00  0.00    +0.100 C 
ATOM      8  C   LIG    1       22.774 -19.471   5.133  0.00  0.00    +0.099 C 
ENDBRANCH   1   6
BRANCH   1   9
ATOM      9  C   LIG    1       25.311 -17.533   3.601  0.00  0.00    -0.026 A 
ATOM     10  C   LIG    1       24.092 -16.969   4.025  0.00  0.00    +0.007 A 
ATOM     11  C   LIG    1       23.943 -15.585   4.134  0.00  0.00    +0.020 A 
ATOM     12  C   LIG    1       25.020 -14.750   3.856  0.00  0.00    +0.041 A 
ATOM     13 CL   LIG    1       24.838 -13.045   3.990  0.00  0.00    -0.084 Cl
ATOM     14  C   LIG    1       26.247 -15.288   3.467  0.00  0.00    +0.020 A 
ATOM     15  C   LIG    1       26.391 -16.674   3.339  0.00  0.00    +0.007 A 
ENDBRANCH   1   9
BRANCH   1  16
ATOM     16  C   LIG    1       26.089 -19.625   4.735  0.00  0.00    -0.026 A 
ATOM     17  C   LIG    1       27.472 -19.859   4.815  0.00  0.00    +0.005 A 
ATOM     18  C   LIG    1       28.041 -20.400   5.971  0.00  0.00    +0.000 A 
ATOM     19  C   LIG    1       27.235 -20.717   7.062  0.00  0.00    +0.000 A 
ATOM     20  C   LIG    1       25.866 -20.470   7.009  0.00  0.00    +0.000 A 
ATOM     21  C   LIG    1       25.300 -19.911   5.863  0.00  0.00    +0.005 A 
ENDBRANCH   1  16
TORSDOF 3
ENDMDL
MODEL 4
REMARK VINA RESULT:      -0.0      3.927      7.544
REMARK  Name = *****
REMARK                            x       y       z     vdW  Elec       q    Type
REMARK                         _______ _______ _______ _____ _____    ______ ____
ROOT
ATOM      1  C   LIG    1       26.047 -18.902   4.382  0.00  0.00    +0.117 C 
ENDROOT
BRANCH   1   6
ATOM      2  C   LIG    1       21.930 -21.572   4.361  0.00  0.00    +0.105 C 
ATOM      3  N   LIG    1       23.271 -21.474   3.782  0.00  0.00    -0.303 NA
ATOM      4  C   LIG    1       23.441 -20.215   3.035  0.00  0.00    +0.099 C 
ATOM      5  C   LIG    1       23.609 -18.955   3.916  0.00  0.00    +0.100 C 
ATOM      6  N   LIG    1       24.671 -19.037   4.951  0.00  0.00    -0.289 NA
ATOM      7  C   LIG    1       24.471 -20.305   5.696  0.00  0.00    +0.100 C 
ATOM      8  C   LIG    1       24.311 -21.571   4.823  0.00  0.00    +0.099 C 
ENDBRANCH   1   6
BRANCH   1   9
ATOM      9  C   LIG    1       26.403 -17.451   4.007  0.00  0.00    -0.026 A 
ATOM     10  C   LIG    1       27.646 -16.889   4.359  0.00  0.00    +0.007 A 
ATOM     11  C   LIG    1       27.947 -15.562   4.041  0.00  0.00    +0.020 A 
ATOM     12  C   LIG    1       27.026 -14.794   3.338  0.00  0.00    +0.041 A 
ATOM     13 CL   LIG    1       27.396 -13.160   2.947  0.00  0.00    -0.084 Cl
ATOM     14  C   LIG    1       25.803 -15.340   2.949  0.00  0.00    +0.020 A 
ATOM     15  C   LIG    1       25.492 -16.663   3.283  0.00  0.00    +0.007 A 
ENDBRANCH   1   9
BRANCH   1  16
ATOM     16  C   LIG    1       27.149 -19.462   5.298  0.00  0.00    -0.026 A 
ATOM     17  C   LIG    1       28.457 -18.956   5.217  0.00  0.00    +0.005 A 
ATOM     18  C   LIG    1       29.475 -19.473   6.022  0.00  0.00    +0.000 A 
ATOM     19  C   LIG    1       29.201 -20.504   6.918  0.00  0.00    +0.000 A 
ATOM     20  C   LIG    1       27.906 -21.001   7.029  0.00  0.00    +0.000 A 
ATOM     21  C   LIG    1       26.883 -20.472   6.240  0.00  0.00    +0.005 A 
ENDBRANCH   1  16
TORSDOF 3
ENDMDL
MODEL 5
REMARK VINA RESULT:       0.1      2.608      4.507
REMARK  Name = *****
REMARK                            x       y       z     vdW  Elec       q    Type
REMARK                         _______ _______ _______ _____ _____    ______ ____
ROOT
ATOM      1  C   LIG    1       25.707 -16.845   3.694  0.00  0.00    +0.117 C 
ENDROOT
BRANCH   1   6
ATOM      2  C   LIG    1       26.125 -12.133   2.390  0.00  0.00    +0.105 C 
ATOM      3  N   LIG    1       25.941 -13.487   1.864  0.00  0.00    -0.303 NA
ATOM      4  C   LIG    1       27.084 -14.354   2.202  0.00  0.00    +0.099 C 
ATOM      5  C   LIG    1       27.134 -14.815   3.678  0.00  0.00    +0.100 C 
ATOM      6  N   LIG    1       25.893 -15.448   4.192  0.00  0.00    -0.289 NA
ATOM      7  C   LIG    1       24.760 -14.553   3.850  0.00  0.00    +0.100 C 
ATOM      8  C   LIG    1       24.697 -14.094   2.375  0.00  0.00    +0.099 C 
ENDBRANCH   1   6
BRANCH   1   9
ATOM      9  C   LIG    1       26.662 -17.855   4.360  0.00  0.00    -0.026 A 
ATOM     10  C   LIG    1       26.231 -19.150   4.707  0.00  0.00    +0.007 A 
ATOM     11  C   LIG    1       27.096 -20.047   5.339  0.00  0.00    +0.020 A 
ATOM     12  C   LIG    1       28.409 -19.672   5.600  0.00  0.00    +0.041 A 
ATOM     13 CL   LIG    1       29.475 -20.776   6.378  0.00  0.00    -0.084 Cl
ATOM     14  C   LIG    1       28.868 -18.406   5.235  0.00  0.00    +0.020 A 
ATOM     15  C   LIG    1       27.997 -17.501   4.619  0.00  0.00    +0.007 A 
ENDBRANCH   1   9
BRANCH   1  16
ATOM     16  C   LIG    1       24.264 -17.361   3.835  0.00  0.00    -0.026 A 
ATOM     17  C   LIG    1       23.261 -16.518   4.342  0.00  0.00    +0.005 A 
ATOM     18  C   LIG    1       21.952 -16.979   4.503  0.00  0.00    +0.000 A 
ATOM     19  C   LIG    1       21.628 -18.291   4.161  0.00  0.00    +0.000 A 
ATOM     20  C   LIG    1       22.603 -19.133   3.635  0.00  0.00    +0.000 A 
ATOM     21  C   LIG    1       23.907 -18.668   3.455  0.00  0.00    +0.005 A 
ENDBRANCH   1  16
TORSDOF 3
ENDMDL
MODEL 6
REMARK VINA RESULT:       0.1      3.970      7.675
REMARK  Name = *****
REMARK                            x       y       z     vdW  Elec       q    Type
REMARK                         _______ _______ _______ _____ _____    ______ ____
ROOT
ATOM      1  C   LIG    1       25.993 -18.999   4.467  0.00  0.00    +0.117 C 
ENDROOT
BRANCH   1   6
ATOM      2  C   LIG    1       21.776 -21.489   4.764  0.00  0.00    +0.105 C 
ATOM      3  N   LIG    1       23.092 -21.477   4.123  0.00  0.00    -0.303 NA
ATOM      4  C   LIG    1       23.278 -20.266   3.304  0.00  0.00    +0.099 C 
ATOM      5  C   LIG    1       23.537 -18.971   4.111  0.00  0.00    +0.100 C 
ATOM      6  N   LIG    1       24.641 -19.046   5.102  0.00  0.00    -0.289 NA
ATOM      7  C   LIG    1       24.424 -20.266   5.920  0.00  0.00    +0.100 C 
ATOM      8  C   LIG    1       24.174 -21.566   5.121  0.00  0.00    +0.099 C 
ENDBRANCH   1   6
BRANCH   1   9
ATOM      9  C   LIG    1       26.424 -17.572   4.075  0.00  0.00    -0.026 A 
ATOM     10  C   LIG    1       27.680 -17.058   4.451  0.00  0.00    +0.007 A 
ATOM     11  C   LIG    1       28.048 -15.753   4.117  0.00  0.00    +0.020 A 
ATOM     12  C   LIG    1       27.182 -14.960   3.373  0.00  0.00    +0.041 A 
ATOM     13 CL   LIG    1       27.634 -13.352   2.961  0.00  0.00    -0.084 Cl
ATOM     14  C   LIG    1       25.947 -15.459   2.960  0.00  0.00    +0.020 A 
ATOM     15  C   LIG    1       25.569 -16.760   3.311  0.00  0.00    +0.007 A 
ENDBRANCH   1   9
BRANCH   1  16
ATOM     16  C   LIG    1       27.100 -19.631   5.330  0.00  0.00    -0.026 A 
ATOM     17  C   LIG    1       26.783 -20.642   6.252  0.00  0.00    +0.005 A 
ATOM     18  C   LIG    1       27.771 -21.207   7.062  0.00  0.00    +0.000 A 
ATOM     19  C   LIG    1       29.090 -20.766   6.964  0.00  0.00    +0.000 A 
ATOM     20  C   LIG    1       29.426 -19.782   6.039  0.00  0.00    +0.000 A 
ATOM     21  C   LIG    1       28.444 -19.231   5.215  0.00  0.00    +0.005 A 
ENDBRANCH   1  16
TORSDOF 3
ENDMDL
