MODEL 1
REMARK VINA RESULT:      -8.4      0.000      0.000
REMARK  Name = *****
REMARK                            x       y       z     vdW  Elec       q    Type
REMARK                         _______ _______ _______ _____ _____    ______ ____
ROOT
ATOM      1  C   LIG    1       25.196 -22.020   6.273  0.00  0.00    +0.080 C 
ENDROOT
BRANCH   1   2
ATOM      2  C   LIG    1       25.381 -23.567   6.039  0.00  0.00    -0.030 A 
ATOM      3  C   LIG    1       25.844 -24.427   7.054  0.00  0.00    +0.005 A 
ATOM      4  C   LIG    1       25.980 -25.803   6.844  0.00  0.00    +0.000 A 
ATOM      5  C   LIG    1       25.628 -26.372   5.618  0.00  0.00    +0.000 A 
ATOM      6  C   LIG    1       25.131 -25.560   4.610  0.00  0.00    +0.000 A 
ATOM      7  C   LIG    1       25.003 -24.182   4.821  0.00  0.00    +0.005 A 
ENDBRANCH   1   2
BRANCH   1   8
ATOM      8  C   LIG    1       26.614 -21.348   6.489  0.00  0.00    -0.030 A 
ATOM      9  C   LIG    1       27.058 -20.282   5.684  0.00  0.00    +0.005 A 
ATOM     10  C   LIG    1       28.337 -19.732   5.837  0.00  0.00    +0.000 A 
ATOM     11  C   LIG    1       29.216 -20.242   6.785  0.00  0.00    +0.000 A 
ATOM     12  C   LIG    1       28.821 -21.301   7.581  0.00  0.00    +0.000 A 
ATOM     13  C   LIG    1       27.541 -21.846   7.439  0.00  0.00    +0.005 A 
ENDBRANCH   1   8
BRANCH   1  14
ATOM     14  C   LIG    1       24.315 -21.745   7.559  0.00  0.00    +0.148 C 
ATOM     15  O   LIG    1       24.817 -21.379   8.630  0.00  0.00    -0.296 OA
BRANCH  14  17
ATOM     16  C   LIG    1       22.516 -23.401   6.959  0.00  0.00    +0.012 C 
ATOM     17  C   LIG    1       22.814 -22.015   7.531  0.00  0.00    +0.072 C 
ENDBRANCH  14  17
ENDBRANCH   1  14
BRANCH   1  18
ATOM     18  C   LIG    1       24.525 -21.334   5.007  0.00  0.00    +0.042 C 
BRANCH  18  19
ATOM     19  C   LIG    1       24.183 -19.811   4.912  0.00  0.00    +0.054 C 
ATOM     20  C   LIG    1       24.594 -19.270   3.535  0.00  0.00    +0.024 C 
BRANCH  19  21
ATOM     21  N   LIG    1       22.700 -19.616   5.105  0.00  0.00    -0.306 NA
ATOM     22  C   LIG    1       21.899 -20.729   4.570  0.00  0.00    +0.105 C 
ATOM     23  C   LIG    1       22.189 -18.374   4.510  0.00  0.00    +0.105 C 
ENDBRANCH  19  21
ENDBRANCH  18  19
ENDBRANCH   1  18
TORSDOF 7
ENDMDL
MODEL 2
REMARK VINA RESULT:      -8.3      0.054      1.416
REMARK  Name = *****
REMARK                            x       y       z     vdW  Elec       q    Type
REMARK                         _______ _______ _______ _____ _____    ______ ____
ROOT
ATOM      1  C   LIG    1       25.189 -22.022   6.250  0.00  0.00    +0.080 C 
ENDROOT
BRANCH   1   2
ATOM      2  C   LIG    1       25.312 -23.577   6.032  0.00  0.00    -0.030 A 
ATOM      3  C   LIG    1       24.994 -24.189   4.804  0.00  0.00    +0.005 A 
ATOM      4  C   LIG    1       25.132 -25.567   4.612  0.00  0.00    +0.000 A 
ATOM      5  C   LIG    1       25.624 -26.380   5.637  0.00  0.00    +0.000 A 
ATOM      6  C   LIG    1       25.986 -25.804   6.846  0.00  0.00    +0.000 A 
ATOM      7  C   LIG    1       25.839 -24.426   7.037  0.00  0.00    +0.005 A 
ENDBRANCH   1   2
BRANCH   1   8
ATOM      8  C   LIG    1       26.634 -21.403   6.444  0.00  0.00    -0.030 A 
ATOM      9  C   LIG    1       27.508 -21.865   7.446  0.00  0.00    +0.005 A 
ATOM     10  C   LIG    1       28.760 -21.273   7.656  0.00  0.00    +0.000 A 
ATOM     11  C   LIG    1       29.168 -20.192   6.884  0.00  0.00    +0.000 A 
ATOM     12  C   LIG    1       28.328 -19.699   5.902  0.00  0.00    +0.000 A 
ATOM     13  C   LIG    1       27.082 -20.294   5.683  0.00  0.00    +0.005 A 
ENDBRANCH   1   8
BRANCH   1  14
ATOM     14  C   LIG    1       24.334 -21.700   7.542  0.00  0.00    +0.148 C 
ATOM     15  O   LIG    1       24.856 -21.280   8.585  0.00  0.00    -0.296 OA
BRANCH  14  17
ATOM     16  C   LIG    1       22.534 -23.364   6.966  0.00  0.00    +0.012 C 
ATOM     17  C   LIG    1       22.836 -21.987   7.561  0.00  0.00    +0.072 C 
ENDBRANCH  14  17
ENDBRANCH   1  14
BRANCH   1  18
ATOM     18  C   LIG    1       24.530 -21.324   4.985  0.00  0.00    +0.042 C 
BRANCH  18  19
ATOM     19  C   LIG    1       24.186 -19.801   4.902  0.00  0.00    +0.054 C 
ATOM     20  C   LIG    1       24.595 -19.248   3.529  0.00  0.00    +0.024 C 
BRANCH  19  21
ATOM     21  N   LIG    1       22.703 -19.610   5.097  0.00  0.00    -0.306 NA
ATOM     22  C   LIG    1       21.904 -20.728   4.570  0.00  0.00    +0.105 C 
ATOM     23  C   LIG    1       22.186 -18.373   4.497  0.00  0.00    +0.105 C 
ENDBRANCH  19  21
ENDBRANCH  18  19
ENDBRANCH   1  18
TORSDOF 7
ENDMDL
MODEL 3
REMARK VINA RESULT:      -8.2      1.794      5.289
REMARK  Name = *****
REMARK                            x       y       z     vdW  Elec       q    Type
REMARK                         _______ _______ _______ _____ _____    ______ ____
ROOT
ATOM      1  C   LIG    1       25.268 -21.692   6.274  0.00  0.00    +0.080 C 
ENDROOT
BRANCH   1   2
ATOM      2  C   LIG    1       26.743 -21.142   6.331  0.00  0.00    -0.030 A 
ATOM      3  C   LIG    1       27.116 -19.934   5.711  0.00  0.00    +0.005 A 
ATOM      4  C   LIG    1       28.422 -19.441   5.790  0.00  0.00    +0.000 A 
ATOM      5  C   LIG    1       29.396 -20.127   6.521  0.00  0.00    +0.000 A 
ATOM      6  C   LIG    1       29.053 -21.299   7.178  0.00  0.00    +0.000 A 
ATOM      7  C   LIG    1       27.747 -21.793   7.090  0.00  0.00    +0.005 A 
ENDBRANCH   1   2
BRANCH   1   8
ATOM      8  C   LIG    1       24.381 -20.727   5.385  0.00  0.00    -0.030 A 
ATOM      9  C   LIG    1       24.781 -20.337   4.092  0.00  0.00    +0.005 A 
ATOM     10  C   LIG    1       24.026 -19.433   3.333  0.00  0.00    +0.000 A 
ATOM     11  C   LIG    1       22.862 -18.878   3.849  0.00  0.00    +0.000 A 
ATOM     12  C   LIG    1       22.448 -19.224   5.123  0.00  0.00    +0.000 A 
ATOM     13  C   LIG    1       23.193 -20.134   5.879  0.00  0.00    +0.005 A 
ENDBRANCH   1   8
BRANCH   1  14
ATOM     14  C   LIG    1       24.632 -21.755   7.723  0.00  0.00    +0.148 C 
ATOM     15  O   LIG    1       23.407 -21.815   7.898  0.00  0.00    -0.296 OA
BRANCH  14  17
ATOM     16  C   LIG    1       25.916 -20.200   9.230  0.00  0.00    +0.012 C 
ATOM     17  C   LIG    1       25.524 -21.653   8.955  0.00  0.00    +0.072 C 
ENDBRANCH  14  17
ENDBRANCH   1  14
BRANCH   1  18
ATOM     18  C   LIG    1       25.227 -23.134   5.609  0.00  0.00    +0.042 C 
BRANCH  18  19
ATOM     19  C   LIG    1       25.118 -24.470   6.415  0.00  0.00    +0.054 C 
ATOM     20  C   LIG    1       23.659 -24.949   6.435  0.00  0.00    +0.024 C 
BRANCH  19  21
ATOM     21  N   LIG    1       25.981 -25.521   5.763  0.00  0.00    -0.306 NA
ATOM     22  C   LIG    1       25.399 -26.055   4.521  0.00  0.00    +0.105 C 
ATOM     23  C   LIG    1       26.280 -26.661   6.638  0.00  0.00    +0.105 C 
ENDBRANCH  19  21
ENDBRANCH  18  19
ENDBRANCH   1  18
TORSDOF 7
ENDMDL
MODEL 4
REMARK VINA RESULT:      -7.8      1.669      5.142
REMARK  Name = *****
REMARK                            x       y       z     vdW  Elec       q    Type
REMARK                         _______ _______ _______ _____ _____    ______ ____
ROOT
ATOM      1  C   LIG    1       25.661 -21.648   6.641  0.00  0.00    +0.080 C 
ENDROOT
BRANCH   1   2
ATOM      2  C   LIG    1       25.046 -20.725   5.522  0.00  0.00    -0.030 A 
ATOM      3  C   LIG    1       23.683 -20.374   5.506  0.00  0.00    +0.005 A 
ATOM      4  C   LIG    1       23.153 -19.533   4.523  0.00  0.00    +0.000 A 
ATOM      5  C   LIG    1       23.978 -18.986   3.536  0.00  0.00    +0.000 A 
ATOM      6  C   LIG    1       25.333 -19.279   3.546  0.00  0.00    +0.000 A 
ATOM      7  C   LIG    1       25.859 -20.127   4.527  0.00  0.00    +0.005 A 
ENDBRANCH   1   2
BRANCH   1   8
ATOM      8  C   LIG    1       25.481 -23.166   6.226  0.00  0.00    -0.030 A 
ATOM      9  C   LIG    1       25.952 -24.215   7.038  0.00  0.00    +0.005 A 
ATOM     10  C   LIG    1       25.848 -25.554   6.638  0.00  0.00    +0.000 A 
ATOM     11  C   LIG    1       25.289 -25.883   5.409  0.00  0.00    +0.000 A 
ATOM     12  C   LIG    1       24.832 -24.877   4.577  0.00  0.00    +0.000 A 
ATOM     13  C   LIG    1       24.924 -23.540   4.977  0.00  0.00    +0.005 A 
ENDBRANCH   1   8
BRANCH   1  14
ATOM     14  C   LIG    1       24.926 -21.422   8.025  0.00  0.00    +0.148 C 
ATOM     15  O   LIG    1       25.533 -21.474   9.104  0.00  0.00    -0.296 OA
BRANCH  14  17
ATOM     16  C   LIG    1       22.680 -22.472   7.589  0.00  0.00    +0.012 C 
ATOM     17  C   LIG    1       23.415 -21.218   8.066  0.00  0.00    +0.072 C 
ENDBRANCH  14  17
ENDBRANCH   1  14
BRANCH   1  18
ATOM     18  C   LIG    1       27.216 -21.374   6.809  0.00  0.00    +0.042 C 
BRANCH  18  19
ATOM     19  C   LIG    1       27.836 -19.961   7.061  0.00  0.00    +0.054 C 
ATOM     20  C   LIG    1       28.267 -19.836   8.530  0.00  0.00    +0.024 C 
BRANCH  19  21
ATOM     21  N   LIG    1       29.038 -19.774   6.169  0.00  0.00    -0.306 NA
ATOM     22  C   LIG    1       30.313 -19.819   6.904  0.00  0.00    +0.105 C 
ATOM     23  C   LIG    1       29.012 -18.522   5.402  0.00  0.00    +0.105 C 
ENDBRANCH  19  21
ENDBRANCH  18  19
ENDBRANCH   1  18
TORSDOF 7
ENDMDL
MODEL 5
REMARK VINA RESULT:      -7.6      1.741      5.207
REMARK  Name = *****
REMARK                            x       y       z     vdW  Elec       q    Type
REMARK                         _______ _______ _______ _____ _____    ______ ____
ROOT
ATOM      1  C   LIG    1       25.880 -21.289   6.557  0.00  0.00    +0.080 C 
ENDROOT
BRANCH   1   2
ATOM      2  C   LIG    1       25.154 -20.414   5.466  0.00  0.00    -0.030 A 
ATOM      3  C   LIG    1       25.860 -19.762   4.437  0.00  0.00    +0.005 A 
ATOM      4  C   LIG    1       25.203 -19.010   3.459  0.00  0.00    +0.000 A 
ATOM      5  C   LIG    1       23.809 -18.907   3.459  0.00  0.00    +0.000 A 
ATOM      6  C   LIG    1       23.080 -19.570   4.436  0.00  0.00    +0.000 A 
ATOM      7  C   LIG    1       23.741 -20.315   5.417  0.00  0.00    +0.005 A 
ENDBRANCH   1   2
BRANCH   1   8
ATOM      8  C   LIG    1       25.658 -22.823   6.231  0.00  0.00    -0.030 A 
ATOM      9  C   LIG    1       24.974 -23.242   5.074  0.00  0.00    +0.005 A 
ATOM     10  C   LIG    1       24.724 -24.598   4.822  0.00  0.00    +0.000 A 
ATOM     11  C   LIG    1       25.133 -25.571   5.725  0.00  0.00    +0.000 A 
ATOM     12  C   LIG    1       25.792 -25.195   6.882  0.00  0.00    +0.000 A 
ATOM     13  C   LIG    1       26.052 -23.844   7.132  0.00  0.00    +0.005 A 
ENDBRANCH   1   8
BRANCH   1  14
ATOM     14  C   LIG    1       25.293 -20.997   7.997  0.00  0.00    +0.148 C 
ATOM     15  O   LIG    1       26.000 -21.038   9.014  0.00  0.00    -0.296 OA
BRANCH  14  17
ATOM     16  C   LIG    1       22.987 -21.999   7.863  0.00  0.00    +0.012 C 
ATOM     17  C   LIG    1       23.800 -20.742   8.179  0.00  0.00    +0.072 C 
ENDBRANCH  14  17
ENDBRANCH   1  14
BRANCH   1  18
ATOM     18  C   LIG    1       27.444 -21.015   6.551  0.00  0.00    +0.042 C 
BRANCH  18  19
ATOM     19  C   LIG    1       28.247 -20.485   7.784  0.00  0.00    +0.054 C 
ATOM     20  C   LIG    1       29.364 -21.477   8.143  0.00  0.00    +0.024 C 
BRANCH  19  21
ATOM     21  N   LIG    1       28.856 -19.147   7.448  0.00  0.00    -0.306 NA
ATOM     22  C   LIG    1       29.250 -19.031   6.035  0.00  0.00    +0.105 C 
ATOM     23  C   LIG    1       30.031 -18.814   8.265  0.00  0.00    +0.105 C 
ENDBRANCH  19  21
ENDBRANCH  18  19
ENDBRANCH   1  18
TORSDOF 7
ENDMDL
MODEL 6
REMARK VINA RESULT:      -7.1      1.623      4.953
REMARK  Name = *****
REMARK                            x       y       z     vdW  Elec       q    Type
REMARK                         _______ _______ _______ _____ _____    ______ ____
ROOT
ATOM      1  C   LIG    1       24.815 -21.873   6.056  0.00  0.00    +0.080 C 
ENDROOT
BRANCH   1   2
ATOM      2  C   LIG    1       26.221 -21.357   6.543  0.00  0.00    -0.030 A 
ATOM      3  C   LIG    1       26.873 -21.905   7.664  0.00  0.00    +0.005 A 
ATOM      4  C   LIG    1       28.133 -21.457   8.072  0.00  0.00    +0.000 A 
ATOM      5  C   LIG    1       28.801 -20.463   7.352  0.00  0.00    +0.000 A 
ATOM      6  C   LIG    1       28.205 -19.930   6.219  0.00  0.00    +0.000 A 
ATOM      7  C   LIG    1       26.940 -20.375   5.818  0.00  0.00    +0.005 A 
ENDBRANCH   1   2
BRANCH   1   8
ATOM      8  C   LIG    1       24.125 -20.758   5.166  0.00  0.00    -0.030 A 
ATOM      9  C   LIG    1       24.611 -20.429   3.886  0.00  0.00    +0.005 A 
ATOM     10  C   LIG    1       24.038 -19.399   3.128  0.00  0.00    +0.000 A 
ATOM     11  C   LIG    1       22.978 -18.656   3.634  0.00  0.00    +0.000 A 
ATOM     12  C   LIG    1       22.487 -18.940   4.895  0.00  0.00    +0.000 A 
ATOM     13  C   LIG    1       23.049 -19.974   5.650  0.00  0.00    +0.005 A 
ENDBRANCH   1   8
BRANCH   1  14
ATOM     14  C   LIG    1       23.869 -22.180   7.288  0.00  0.00    +0.148 C 
ATOM     15  O   LIG    1       23.982 -21.579   8.366  0.00  0.00    -0.296 OA
BRANCH  14  17
ATOM     16  C   LIG    1       21.691 -22.920   6.265  0.00  0.00    +0.012 C 
ATOM     17  C   LIG    1       22.838 -23.300   7.201  0.00  0.00    +0.072 C 
ENDBRANCH  14  17
ENDBRANCH   1  14
BRANCH   1  18
ATOM     18  C   LIG    1       24.969 -23.177   5.162  0.00  0.00    +0.042 C 
BRANCH  18  19
ATOM     19  C   LIG    1       25.739 -24.462   5.611  0.00  0.00    +0.054 C 
ATOM     20  C   LIG    1       25.681 -24.597   7.139  0.00  0.00    +0.024 C 
BRANCH  19  21
ATOM     21  N   LIG    1       25.102 -25.674   4.978  0.00  0.00    -0.306 NA
ATOM     22  C   LIG    1       24.086 -26.305   5.835  0.00  0.00    +0.105 C 
ATOM     23  C   LIG    1       26.068 -26.713   4.595  0.00  0.00    +0.105 C 
ENDBRANCH  19  21
ENDBRANCH  18  19
ENDBRANCH   1  18
TORSDOF 7
ENDMDL
MODEL 7
REMARK VINA RESULT:      -6.7      5.918      9.857
REMARK  Name = *****
REMARK                            x       y       z     vdW  Elec       q    Type
REMARK                         _______ _______ _______ _____ _____    ______ ____
ROOT
ATOM      1  C   LIG    1       25.379 -30.291   8.015  0.00  0.00    +0.080 C 
ENDROOT
BRANCH   1   2
ATOM      2  C   LIG    1       25.239 -28.888   7.312  0.00  0.00    -0.030 A 
ATOM      3  C   LIG    1       26.084 -27.806   7.625  0.00  0.00    +0.005 A 
ATOM      4  C   LIG    1       25.968 -26.573   6.976  0.00  0.00    +0.000 A 
ATOM      5  C   LIG    1       25.020 -26.388   5.967  0.00  0.00    +0.000 A 
ATOM      6  C   LIG    1       24.198 -27.446   5.606  0.00  0.00    +0.000 A 
ATOM      7  C   LIG    1       24.311 -28.676   6.262  0.00  0.00    +0.005 A 
ENDBRANCH   1   2
BRANCH   1   8
ATOM      8  C   LIG    1       25.950 -31.343   6.978  0.00  0.00    -0.030 A 
ATOM      9  C   LIG    1       26.976 -32.242   7.326  0.00  0.00    +0.005 A 
ATOM     10  C   LIG    1       27.523 -33.128   6.389  0.00  0.00    +0.000 A 
ATOM     11  C   LIG    1       27.076 -33.129   5.073  0.00  0.00    +0.000 A 
ATOM     12  C   LIG    1       26.081 -32.247   4.691  0.00  0.00    +0.000 A 
ATOM     13  C   LIG    1       25.526 -31.368   5.626  0.00  0.00    +0.005 A 
ENDBRANCH   1   8
BRANCH   1  14
ATOM     14  C   LIG    1       23.972 -30.810   8.524  0.00  0.00    +0.148 C 
ATOM     15  O   LIG    1       23.170 -30.065   9.104  0.00  0.00    -0.296 OA
BRANCH  14  17
ATOM     16  C   LIG    1       23.935 -33.052   9.668  0.00  0.00    +0.012 C 
ATOM     17  C   LIG    1       23.605 -32.283   8.387  0.00  0.00    +0.072 C 
ENDBRANCH  14  17
ENDBRANCH   1  14
BRANCH   1  18
ATOM     18  C   LIG    1       26.394 -30.214   9.234  0.00  0.00    +0.042 C 
BRANCH  18  19
ATOM     19  C   LIG    1       26.076 -29.519  10.598  0.00  0.00    +0.054 C 
ATOM     20  C   LIG    1       25.861 -30.581  11.687  0.00  0.00    +0.024 C 
BRANCH  19  21
ATOM     21  N   LIG    1       27.230 -28.629  10.989  0.00  0.00    -0.306 NA
ATOM     22  C   LIG    1       28.305 -29.353  11.687  0.00  0.00    +0.105 C 
ATOM     23  C   LIG    1       26.837 -27.495  11.835  0.00  0.00    +0.105 C 
ENDBRANCH  19  21
ENDBRANCH  18  19
ENDBRANCH   1  18
TORSDOF 7
ENDMDL
MODEL 8
REMARK VINA RESULT:      -6.7      6.259      9.554
REMARK  Name = *****
REMARK                            x       y       z     vdW  Elec       q    Type
REMARK                         _______ _______ _______ _____ _____    ______ ____
ROOT
ATOM      1  C   LIG    1       25.520 -29.898   8.810  0.00  0.00    +0.080 C 
ENDROOT
BRANCH   1   2
ATOM      2  C   LIG    1       26.135 -31.201   8.174  0.00  0.00    -0.030 A 
ATOM      3  C   LIG    1       26.080 -31.457   6.790  0.00  0.00    +0.005 A 
ATOM      4  C   LIG    1       26.652 -32.604   6.233  0.00  0.00    +0.000 A 
ATOM      5  C   LIG    1       27.329 -33.524   7.039  0.00  0.00    +0.000 A 
ATOM      6  C   LIG    1       27.436 -33.282   8.400  0.00  0.00    +0.000 A 
ATOM      7  C   LIG    1       26.855 -32.137   8.956  0.00  0.00    +0.005 A 
ENDBRANCH   1   2
BRANCH   1   8
ATOM      8  C   LIG    1       25.374 -28.786   7.691  0.00  0.00    -0.030 A 
ATOM      9  C   LIG    1       26.159 -27.617   7.703  0.00  0.00    +0.005 A 
ATOM     10  C   LIG    1       25.984 -26.607   6.749  0.00  0.00    +0.000 A 
ATOM     11  C   LIG    1       25.009 -26.725   5.766  0.00  0.00    +0.000 A 
ATOM     12  C   LIG    1       24.207 -27.852   5.733  0.00  0.00    +0.000 A 
ATOM     13  C   LIG    1       24.386 -28.867   6.678  0.00  0.00    +0.005 A 
ENDBRANCH   1   8
BRANCH   1  14
ATOM     14  C   LIG    1       26.457 -29.331   9.953  0.00  0.00    +0.148 C 
ATOM     15  O   LIG    1       27.691 -29.406   9.884  0.00  0.00    -0.296 OA
BRANCH  14  17
ATOM     16  C   LIG    1       26.700 -27.603  11.767  0.00  0.00    +0.012 C 
ATOM     17  C   LIG    1       25.847 -28.751  11.225  0.00  0.00    +0.072 C 
ENDBRANCH  14  17
ENDBRANCH   1  14
BRANCH   1  18
ATOM     18  C   LIG    1       24.072 -30.184   9.397  0.00  0.00    +0.042 C 
BRANCH  18  19
ATOM     19  C   LIG    1       23.529 -31.611   9.736  0.00  0.00    +0.054 C 
ATOM     20  C   LIG    1       23.922 -31.989  11.172  0.00  0.00    +0.024 C 
BRANCH  19  21
ATOM     21  N   LIG    1       22.026 -31.618   9.611  0.00  0.00    -0.306 NA
ATOM     22  C   LIG    1       21.360 -30.777  10.618  0.00  0.00    +0.105 C 
ATOM     23  C   LIG    1       21.436 -32.961   9.694  0.00  0.00    +0.105 C 
ENDBRANCH  19  21
ENDBRANCH  18  19
ENDBRANCH   1  18
TORSDOF 7
ENDMDL
MODEL 9
REMARK VINA RESULT:      -6.4      1.936      5.028
REMARK  Name = *****
REMARK                            x       y       z     vdW  Elec       q    Type
REMARK                         _______ _______ _______ _____ _____    ______ ____
ROOT
ATOM      1  C   LIG    1       25.047 -22.700   6.383  0.00  0.00    +0.080 C 
ENDROOT
BRANCH   1   2
ATOM      2  C   LIG    1       24.965 -21.682   5.183  0.00  0.00    -0.030 A 
ATOM      3  C   LIG    1       25.886 -20.629   5.030  0.00  0.00    +0.005 A 
ATOM      4  C   LIG    1       25.820 -19.747   3.948  0.00  0.00    +0.000 A 
ATOM      5  C   LIG    1       24.844 -19.907   2.961  0.00  0.00    +0.000 A 
ATOM      6  C   LIG    1       23.945 -20.959   3.059  0.00  0.00    +0.000 A 
ATOM      7  C   LIG    1       24.010 -21.835   4.148  0.00  0.00    +0.005 A 
ENDBRANCH   1   2
BRANCH   1   8
ATOM      8  C   LIG    1       25.374 -24.146   5.823  0.00  0.00    -0.030 A 
ATOM      9  C   LIG    1       24.879 -24.587   4.581  0.00  0.00    +0.005 A 
ATOM     10  C   LIG    1       25.117 -25.887   4.118  0.00  0.00    +0.000 A 
ATOM     11  C   LIG    1       25.839 -26.791   4.889  0.00  0.00    +0.000 A 
ATOM     12  C   LIG    1       26.325 -26.398   6.123  0.00  0.00    +0.000 A 
ATOM     13  C   LIG    1       26.099 -25.097   6.584  0.00  0.00    +0.005 A 
ENDBRANCH   1   8
BRANCH   1  14
ATOM     14  C   LIG    1       23.670 -22.769   7.161  0.00  0.00    +0.148 C 
ATOM     15  O   LIG    1       22.888 -23.720   7.024  0.00  0.00    -0.296 OA
BRANCH  14  17
ATOM     16  C   LIG    1       23.135 -20.310   7.235  0.00  0.00    +0.012 C 
ATOM     17  C   LIG    1       23.230 -21.605   8.043  0.00  0.00    +0.072 C 
ENDBRANCH  14  17
ENDBRANCH   1  14
BRANCH   1  18
ATOM     18  C   LIG    1       26.210 -22.297   7.387  0.00  0.00    +0.042 C 
BRANCH  18  19
ATOM     19  C   LIG    1       26.932 -20.911   7.383  0.00  0.00    +0.054 C 
ATOM     20  C   LIG    1       26.768 -20.234   8.752  0.00  0.00    +0.024 C 
BRANCH  19  21
ATOM     21  N   LIG    1       28.400 -21.110   7.097  0.00  0.00    -0.306 NA
ATOM     22  C   LIG    1       29.186 -21.412   8.303  0.00  0.00    +0.105 C 
ATOM     23  C   LIG    1       29.030 -19.962   6.432  0.00  0.00    +0.105 C 
ENDBRANCH  19  21
ENDBRANCH  18  19
ENDBRANCH   1  18
TORSDOF 7
ENDMDL
