MODEL 1
REMARK VINA RESULT:      -6.6      0.000      0.000
REMARK  Name = *****
REMARK                            x       y       z     vdW  Elec       q    Type
REMARK                         _______ _______ _______ _____ _____    ______ ____
ROOT
ATOM      1  O   LIG    1       25.799 -21.222   5.838  0.00  0.00    -0.489 OA
ENDROOT
BRANCH   1   4
ATOM      2  C   LIG    1       23.239 -21.276   7.109  0.00  0.00    +0.048 C 
ATOM      3  C   LIG    1       23.536 -20.466   5.879  0.00  0.00    -0.009 A 
ATOM      4  C   LIG    1       24.798 -20.473   5.248  0.00  0.00    +0.123 A 
ATOM      5  C   LIG    1       24.962 -19.721   4.078  0.00  0.00    +0.046 A 
ATOM      6  C   LIG    1       23.930 -18.929   3.567  0.00  0.00    +0.004 A 
ATOM      7  C   LIG    1       22.705 -18.876   4.227  0.00  0.00    +0.001 A 
ATOM      8  C   LIG    1       22.512 -19.643   5.368  0.00  0.00    +0.007 A 
ENDBRANCH   1   4
BRANCH   1   9
ATOM      9  C   LIG    1       26.947 -20.485   6.293  0.00  0.00    +0.262 C 
BRANCH   9  10
ATOM     10  C   LIG    1       27.508 -21.038   7.611  0.00  0.00    +0.177 C 
BRANCH  10  11
ATOM     11  O   LIG    1       28.205 -20.024   8.354  0.00  0.00    -0.386 OA
ATOM     12  H   LIG    1       27.542 -19.581   8.916  0.00  0.00    +0.210 HD
ENDBRANCH  10  11
BRANCH  10  13
ATOM     13  C   LIG    1       26.443 -21.651   8.518  0.00  0.00    +0.190 C 
BRANCH  13  14
ATOM     14  O   LIG    1       25.914 -20.636   9.376  0.00  0.00    -0.392 OA
ATOM     15  H   LIG    1       25.285 -20.123   8.831  0.00  0.00    +0.209 HD
ENDBRANCH  13  14
ENDBRANCH  10  13
ENDBRANCH   9  10
ENDBRANCH   1   9
TORSDOF 6
ENDMDL
MODEL 2
REMARK VINA RESULT:      -6.5      4.736      6.330
REMARK  Name = *****
REMARK                            x       y       z     vdW  Elec       q    Type
REMARK                         _______ _______ _______ _____ _____    ______ ____
ROOT
ATOM      1  O   LIG    1       31.921 -19.191   7.914  0.00  0.00    -0.489 OA
ENDROOT
BRANCH   1   4
ATOM      2  C   LIG    1       30.889 -21.632   8.987  0.00  0.00    +0.048 C 
ATOM      3  C   LIG    1       30.176 -20.818   7.944  0.00  0.00    -0.009 A 
ATOM      4  C   LIG    1       30.715 -19.630   7.404  0.00  0.00    +0.123 A 
ATOM      5  C   LIG    1       29.995 -18.969   6.400  0.00  0.00    +0.046 A 
ATOM      6  C   LIG    1       28.745 -19.426   5.974  0.00  0.00    +0.004 A 
ATOM      7  C   LIG    1       28.189 -20.565   6.553  0.00  0.00    +0.001 A 
ATOM      8  C   LIG    1       28.904 -21.254   7.523  0.00  0.00    +0.007 A 
ENDBRANCH   1   4
BRANCH   1   9
ATOM      9  C   LIG    1       31.892 -17.922   8.589  0.00  0.00    +0.262 C 
BRANCH   9  10
ATOM     10  C   LIG    1       31.524 -18.062  10.074  0.00  0.00    +0.177 C 
BRANCH  10  11
ATOM     11  O   LIG    1       32.534 -17.490  10.922  0.00  0.00    -0.386 OA
ATOM     12  H   LIG    1       32.358 -16.531  10.963  0.00  0.00    +0.210 HD
ENDBRANCH  10  11
BRANCH  10  13
ATOM     13  C   LIG    1       30.181 -17.428  10.432  0.00  0.00    +0.190 C 
BRANCH  13  14
ATOM     14  O   LIG    1       30.401 -16.323  11.313  0.00  0.00    -0.392 OA
ATOM     15  H   LIG    1       30.490 -16.705  12.208  0.00  0.00    +0.209 HD
ENDBRANCH  13  14
ENDBRANCH  10  13
ENDBRANCH   9  10
ENDBRANCH   1   9
TORSDOF 6
ENDMDL
MODEL 3
REMARK VINA RESULT:      -6.4      1.785      2.418
REMARK  Name = *****
REMARK                            x       y       z     vdW  Elec       q    Type
REMARK                         _______ _______ _______ _____ _____    ______ ____
ROOT
ATOM      1  O   LIG    1       26.565 -20.680   5.994  0.00  0.00    -0.489 OA
ENDROOT
BRANCH   1   4
ATOM      2  C   LIG    1       24.235 -21.297   7.531  0.00  0.00    +0.048 C 
ATOM      3  C   LIG    1       24.190 -20.592   6.205  0.00  0.00    -0.009 A 
ATOM      4  C   LIG    1       25.349 -20.320   5.446  0.00  0.00    +0.123 A 
ATOM      5  C   LIG    1       25.198 -19.701   4.199  0.00  0.00    +0.046 A 
ATOM      6  C   LIG    1       23.945 -19.299   3.729  0.00  0.00    +0.004 A 
ATOM      7  C   LIG    1       22.810 -19.513   4.508  0.00  0.00    +0.001 A 
ATOM      8  C   LIG    1       22.936 -20.159   5.731  0.00  0.00    +0.007 A 
ENDBRANCH   1   4
BRANCH   1   9
ATOM      9  C   LIG    1       27.689 -19.868   5.610  0.00  0.00    +0.262 C 
BRANCH   9  10
ATOM     10  C   LIG    1       28.817 -19.908   6.652  0.00  0.00    +0.177 C 
BRANCH  10  11
ATOM     11  O   LIG    1       29.382 -21.224   6.766  0.00  0.00    -0.386 OA
ATOM     12  H   LIG    1       30.022 -21.194   7.502  0.00  0.00    +0.210 HD
ENDBRANCH  10  11
BRANCH  10  13
ATOM     13  C   LIG    1       29.949 -18.923   6.363  0.00  0.00    +0.190 C 
BRANCH  13  14
ATOM     14  O   LIG    1       29.565 -18.068   5.282  0.00  0.00    -0.392 OA
ATOM     15  H   LIG    1       28.638 -17.812   5.458  0.00  0.00    +0.209 HD
ENDBRANCH  13  14
ENDBRANCH  10  13
ENDBRANCH   9  10
ENDBRANCH   1   9
TORSDOF 6
ENDMDL
MODEL 4
REMARK VINA RESULT:      -6.3      2.427      3.688
REMARK  Name = *****
REMARK                            x       y       z     vdW  Elec       q    Type
REMARK                         _______ _______ _______ _____ _____    ______ ____
ROOT
ATOM      1  O   LIG    1       27.211 -21.978   7.118  0.00  0.00    -0.489 OA
ENDROOT
BRANCH   1   4
ATOM      2  C   LIG    1       25.927 -24.504   6.738  0.00  0.00    +0.048 C 
ATOM      3  C   LIG    1       25.180 -23.210   6.897  0.00  0.00    -0.009 A 
ATOM      4  C   LIG    1       25.831 -21.968   7.055  0.00  0.00    +0.123 A 
ATOM      5  C   LIG    1       25.046 -20.811   7.147  0.00  0.00    +0.046 A 
ATOM      6  C   LIG    1       23.650 -20.873   7.145  0.00  0.00    +0.004 A 
ATOM      7  C   LIG    1       23.011 -22.107   7.051  0.00  0.00    +0.001 A 
ATOM      8  C   LIG    1       23.772 -23.261   6.922  0.00  0.00    +0.007 A 
ENDBRANCH   1   4
BRANCH   1   9
ATOM      9  C   LIG    1       27.835 -20.711   7.394  0.00  0.00    +0.262 C 
BRANCH   9  10
ATOM     10  C   LIG    1       28.687 -20.214   6.216  0.00  0.00    +0.177 C 
BRANCH  10  11
ATOM     11  O   LIG    1       27.877 -19.921   5.066  0.00  0.00    -0.386 OA
ATOM     12  H   LIG    1       27.742 -20.763   4.594  0.00  0.00    +0.210 HD
ENDBRANCH  10  11
BRANCH  10  13
ATOM     13  C   LIG    1       29.519 -18.975   6.546  0.00  0.00    +0.190 C 
BRANCH  13  14
ATOM     14  O   LIG    1       29.726 -18.215   5.351  0.00  0.00    -0.392 OA
ATOM     15  H   LIG    1       30.694 -18.112   5.262  0.00  0.00    +0.209 HD
ENDBRANCH  13  14
ENDBRANCH  10  13
ENDBRANCH   9  10
ENDBRANCH   1   9
TORSDOF 6
ENDMDL
MODEL 5
REMARK VINA RESULT:      -6.3      2.545      3.892
REMARK  Name = *****
REMARK                            x       y       z     vdW  Elec       q    Type
REMARK                         _______ _______ _______ _____ _____    ______ ____
ROOT
ATOM      1  O   LIG    1       26.089 -21.546   7.538  0.00  0.00    -0.489 OA
ENDROOT
BRANCH   1   4
ATOM      2  C   LIG    1       23.246 -21.328   7.325  0.00  0.00    +0.048 C 
ATOM      3  C   LIG    1       24.001 -22.601   7.068  0.00  0.00    -0.009 A 
ATOM      4  C   LIG    1       25.402 -22.698   7.205  0.00  0.00    +0.123 A 
ATOM      5  C   LIG    1       26.008 -23.943   6.990  0.00  0.00    +0.046 A 
ATOM      6  C   LIG    1       25.267 -25.057   6.588  0.00  0.00    +0.004 A 
ATOM      7  C   LIG    1       23.893 -24.942   6.393  0.00  0.00    +0.001 A 
ATOM      8  C   LIG    1       23.269 -23.726   6.638  0.00  0.00    +0.007 A 
ENDBRANCH   1   4
BRANCH   1   9
ATOM      9  C   LIG    1       27.523 -21.629   7.466  0.00  0.00    +0.262 C 
BRANCH   9  10
ATOM     10  C   LIG    1       28.184 -20.242   7.428  0.00  0.00    +0.177 C 
BRANCH  10  11
ATOM     11  O   LIG    1       29.371 -20.203   8.237  0.00  0.00    -0.386 OA
ATOM     12  H   LIG    1       29.847 -21.040   8.081  0.00  0.00    +0.210 HD
ENDBRANCH  10  11
BRANCH  10  13
ATOM     13  C   LIG    1       28.548 -19.779   6.018  0.00  0.00    +0.190 C 
BRANCH  13  14
ATOM     14  O   LIG    1       27.546 -20.228   5.101  0.00  0.00    -0.392 OA
ATOM     15  H   LIG    1       26.704 -20.223   5.598  0.00  0.00    +0.209 HD
ENDBRANCH  13  14
ENDBRANCH  10  13
ENDBRANCH   9  10
ENDBRANCH   1   9
TORSDOF 6
ENDMDL
MODEL 6
REMARK VINA RESULT:      -6.3      2.448      4.035
REMARK  Name = *****
REMARK                            x       y       z     vdW  Elec       q    Type
REMARK                         _______ _______ _______ _____ _____    ______ ____
ROOT
ATOM      1  O   LIG    1       28.028 -20.038   5.778  0.00  0.00    -0.489 OA
ENDROOT
BRANCH   1   4
ATOM      2  C   LIG    1       25.579 -20.137   4.306  0.00  0.00    +0.048 C 
ATOM      3  C   LIG    1       25.669 -20.395   5.784  0.00  0.00    -0.009 A 
ATOM      4  C   LIG    1       26.882 -20.314   6.500  0.00  0.00    +0.123 A 
ATOM      5  C   LIG    1       26.854 -20.525   7.884  0.00  0.00    +0.046 A 
ATOM      6  C   LIG    1       25.673 -20.868   8.548  0.00  0.00    +0.004 A 
ATOM      7  C   LIG    1       24.489 -21.007   7.828  0.00  0.00    +0.001 A 
ATOM      8  C   LIG    1       24.490 -20.767   6.461  0.00  0.00    +0.007 A 
ENDBRANCH   1   4
BRANCH   1   9
ATOM      9  C   LIG    1       29.271 -20.298   6.454  0.00  0.00    +0.262 C 
BRANCH   9  10
ATOM     10  C   LIG    1       30.220 -19.091   6.408  0.00  0.00    +0.177 C 
BRANCH  10  11
ATOM     11  O   LIG    1       29.764 -18.097   5.476  0.00  0.00    -0.386 OA
ATOM     12  H   LIG    1       29.707 -18.532   4.604  0.00  0.00    +0.210 HD
ENDBRANCH  10  11
BRANCH  10  13
ATOM     13  C   LIG    1       30.420 -18.420   7.766  0.00  0.00    +0.190 C 
BRANCH  13  14
ATOM     14  O   LIG    1       31.794 -18.049   7.910  0.00  0.00    -0.392 OA
ATOM     15  H   LIG    1       32.280 -18.879   8.087  0.00  0.00    +0.209 HD
ENDBRANCH  13  14
ENDBRANCH  10  13
ENDBRANCH   9  10
ENDBRANCH   1   9
TORSDOF 6
ENDMDL
MODEL 7
REMARK VINA RESULT:      -6.3      1.838      2.845
REMARK  Name = *****
REMARK                            x       y       z     vdW  Elec       q    Type
REMARK                         _______ _______ _______ _____ _____    ______ ____
ROOT
ATOM      1  O   LIG    1       27.343 -20.984   6.405  0.00  0.00    -0.489 OA
ENDROOT
BRANCH   1   4
ATOM      2  C   LIG    1       25.668 -21.366   8.690  0.00  0.00    +0.048 C 
ATOM      3  C   LIG    1       25.149 -20.952   7.342  0.00  0.00    -0.009 A 
ATOM      4  C   LIG    1       25.987 -20.796   6.218  0.00  0.00    +0.123 A 
ATOM      5  C   LIG    1       25.400 -20.455   4.992  0.00  0.00    +0.046 A 
ATOM      6  C   LIG    1       24.029 -20.212   4.881  0.00  0.00    +0.004 A 
ATOM      7  C   LIG    1       23.214 -20.306   6.006  0.00  0.00    +0.001 A 
ATOM      8  C   LIG    1       23.772 -20.679   7.222  0.00  0.00    +0.007 A 
ENDBRANCH   1   4
BRANCH   1   9
ATOM      9  C   LIG    1       28.178 -19.849   6.117  0.00  0.00    +0.262 C 
BRANCH   9  10
ATOM     10  C   LIG    1       29.187 -19.569   7.241  0.00  0.00    +0.177 C 
BRANCH  10  11
ATOM     11  O   LIG    1       29.244 -20.656   8.179  0.00  0.00    -0.386 OA
ATOM     12  H   LIG    1       28.999 -21.464   7.691  0.00  0.00    +0.210 HD
ENDBRANCH  10  11
BRANCH  10  13
ATOM     13  C   LIG    1       30.603 -19.296   6.736  0.00  0.00    +0.190 C 
BRANCH  13  14
ATOM     14  O   LIG    1       31.517 -20.172   7.401  0.00  0.00    -0.392 OA
ATOM     15  H   LIG    1       32.361 -20.104   6.911  0.00  0.00    +0.209 HD
ENDBRANCH  13  14
ENDBRANCH  10  13
ENDBRANCH   9  10
ENDBRANCH   1   9
TORSDOF 6
ENDMDL
MODEL 8
REMARK VINA RESULT:      -6.2      2.873      3.696
REMARK  Name = *****
REMARK                            x       y       z     vdW  Elec       q    Type
REMARK                         _______ _______ _______ _____ _____    ______ ____
ROOT
ATOM      1  O   LIG    1       25.264 -22.351   5.855  0.00  0.00    -0.489 OA
ENDROOT
BRANCH   1   4
ATOM      2  C   LIG    1       23.203 -21.269   7.515  0.00  0.00    +0.048 C 
ATOM      3  C   LIG    1       23.493 -20.775   6.126  0.00  0.00    -0.009 A 
ATOM      4  C   LIG    1       24.496 -21.340   5.310  0.00  0.00    +0.123 A 
ATOM      5  C   LIG    1       24.658 -20.841   4.011  0.00  0.00    +0.046 A 
ATOM      6  C   LIG    1       23.895 -19.769   3.539  0.00  0.00    +0.004 A 
ATOM      7  C   LIG    1       22.948 -19.174   4.369  0.00  0.00    +0.001 A 
ATOM      8  C   LIG    1       22.749 -19.679   5.647  0.00  0.00    +0.007 A 
ENDBRANCH   1   4
BRANCH   1   9
ATOM      9  C   LIG    1       24.989 -23.677   5.370  0.00  0.00    +0.262 C 
BRANCH   9  10
ATOM     10  C   LIG    1       24.428 -24.593   6.469  0.00  0.00    +0.177 C 
BRANCH  10  11
ATOM     11  O   LIG    1       22.992 -24.544   6.511  0.00  0.00    -0.386 OA
ATOM     12  H   LIG    1       22.669 -25.354   6.075  0.00  0.00    +0.210 HD
ENDBRANCH  10  11
BRANCH  10  13
ATOM     13  C   LIG    1       24.854 -26.053   6.322  0.00  0.00    +0.190 C 
BRANCH  13  14
ATOM     14  O   LIG    1       23.971 -26.713   5.410  0.00  0.00    -0.392 OA
ATOM     15  H   LIG    1       23.929 -26.143   4.617  0.00  0.00    +0.209 HD
ENDBRANCH  13  14
ENDBRANCH  10  13
ENDBRANCH   9  10
ENDBRANCH   1   9
TORSDOF 6
ENDMDL
MODEL 9
REMARK VINA RESULT:      -6.2      4.107      5.085
REMARK  Name = *****
REMARK                            x       y       z     vdW  Elec       q    Type
REMARK                         _______ _______ _______ _____ _____    ______ ____
ROOT
ATOM      1  O   LIG    1       25.087 -24.919   6.709  0.00  0.00    -0.489 OA
ENDROOT
BRANCH   1   4
ATOM      2  C   LIG    1       22.590 -23.526   6.707  0.00  0.00    +0.048 C 
ATOM      3  C   LIG    1       23.906 -22.867   7.008  0.00  0.00    -0.009 A 
ATOM      4  C   LIG    1       25.133 -23.564   6.976  0.00  0.00    +0.123 A 
ATOM      5  C   LIG    1       26.312 -22.849   7.224  0.00  0.00    +0.046 A 
ATOM      6  C   LIG    1       26.288 -21.492   7.557  0.00  0.00    +0.004 A 
ATOM      7  C   LIG    1       25.071 -20.822   7.648  0.00  0.00    +0.001 A 
ATOM      8  C   LIG    1       23.894 -21.505   7.369  0.00  0.00    +0.007 A 
ENDBRANCH   1   4
BRANCH   1   9
ATOM      9  C   LIG    1       25.472 -25.308   5.379  0.00  0.00    +0.262 C 
BRANCH   9  10
ATOM     10  C   LIG    1       25.956 -26.764   5.316  0.00  0.00    +0.177 C 
BRANCH  10  11
ATOM     11  O   LIG    1       27.389 -26.846   5.394  0.00  0.00    -0.386 OA
ATOM     12  H   LIG    1       27.702 -25.989   5.740  0.00  0.00    +0.210 HD
ENDBRANCH  10  11
BRANCH  10  13
ATOM     13  C   LIG    1       25.365 -27.652   6.411  0.00  0.00    +0.190 C 
BRANCH  13  14
ATOM     14  O   LIG    1       26.191 -27.575   7.577  0.00  0.00    -0.392 OA
ATOM     15  H   LIG    1       26.955 -27.018   7.329  0.00  0.00    +0.209 HD
ENDBRANCH  13  14
ENDBRANCH  10  13
ENDBRANCH   9  10
ENDBRANCH   1   9
TORSDOF 6
ENDMDL
