MODEL 1
REMARK VINA RESULT:      -7.5      0.000      0.000
REMARK  Name = *****
REMARK                            x       y       z     vdW  Elec       q    Type
REMARK                         _______ _______ _______ _____ _____    ______ ____
ROOT
ATOM      1  C   LIG    1       25.162 -21.855   6.487  0.00  0.00    +0.178 C 
ATOM      2  C   LIG    1       24.632 -22.523   5.202  0.00  0.00    +0.151 C 
ATOM      3  C   LIG    1       25.032 -23.978   5.168  0.00  0.00    +0.095 C 
ATOM      4  C   LIG    1       24.721 -24.651   6.498  0.00  0.00    +0.253 C 
ATOM      5  O   LIG    1       24.015 -23.838   7.423  0.00  0.00    -0.346 OA
ATOM      6  C   LIG    1       24.492 -22.528   7.692  0.00  0.00    +0.150 C 
ATOM      7  C   LIG    1       23.295 -21.690   8.140  0.00  0.00    +0.040 C 
ENDROOT
BRANCH   2   8
ATOM      8  O   LIG    1       25.122 -21.923   3.996  0.00  0.00    -0.389 OA
ATOM      9  H   LIG    1       24.942 -22.538   3.259  0.00  0.00    +0.210 HD
ENDBRANCH   2   8
BRANCH   1  10
ATOM     10  O   LIG    1       26.592 -21.989   6.582  0.00  0.00    -0.343 OA
BRANCH  10  14
ATOM     11  C   LIG    1       29.898 -19.678   7.529  0.00  0.00    +0.178 C 
ATOM     12  C   LIG    1       29.650 -21.202   7.557  0.00  0.00    +0.151 C 
ATOM     13  C   LIG    1       28.270 -21.416   8.160  0.00  0.00    +0.095 C 
ATOM     14  C   LIG    1       27.245 -20.854   7.184  0.00  0.00    +0.254 C 
ATOM     15  O   LIG    1       27.816 -20.031   6.169  0.00  0.00    -0.346 OA
ATOM     16  C   LIG    1       28.789 -19.068   6.612  0.00  0.00    +0.150 C 
ATOM     17  C   LIG    1       29.375 -18.485   5.330  0.00  0.00    +0.040 C 
BRANCH  12  18
ATOM     18  O   LIG    1       30.677 -21.939   8.201  0.00  0.00    -0.389 OA
ATOM     19  H   LIG    1       30.794 -21.561   9.096  0.00  0.00    +0.210 HD
ENDBRANCH  12  18
BRANCH  11  20
ATOM     20  O   LIG    1       29.703 -19.008   8.799  0.00  0.00    -0.343 OA
BRANCH  20  26
ATOM     21  C   LIG    1       31.506 -17.772  12.968  0.00  0.00    +0.040 C 
ATOM     22  C   LIG    1       31.699 -17.548  11.473  0.00  0.00    +0.149 C 
ATOM     23  C   LIG    1       31.564 -16.069  11.093  0.00  0.00    +0.171 C 
ATOM     24  C   LIG    1       31.673 -15.928   9.568  0.00  0.00    +0.150 C 
ATOM     25  C   LIG    1       30.716 -16.878   8.859  0.00  0.00    +0.095 C 
ATOM     26  C   LIG    1       30.806 -18.319   9.397  0.00  0.00    +0.254 C 
ATOM     27  O   LIG    1       30.665 -18.285  10.812  0.00  0.00    -0.346 OA
BRANCH  23  28
ATOM     28  O   LIG    1       32.559 -15.266  11.726  0.00  0.00    -0.387 OA
ATOM     29  H   LIG    1       33.410 -15.524  11.318  0.00  0.00    +0.210 HD
ENDBRANCH  23  28
BRANCH  24  30
ATOM     30  O   LIG    1       33.025 -16.211   9.179  0.00  0.00    -0.389 OA
ATOM     31  H   LIG    1       33.145 -15.864   8.275  0.00  0.00    +0.210 HD
ENDBRANCH  24  30
ENDBRANCH  20  26
ENDBRANCH  11  20
ENDBRANCH  10  14
ENDBRANCH   1  10
BRANCH   4  32
ATOM     32  O   LIG    1       23.997 -25.873   6.292  0.00  0.00    -0.348 OA
BRANCH  32  33
ATOM     33  C   LIG    1       24.590 -26.863   5.425  0.00  0.00    +0.122 C 
ATOM     34  C   LIG    1       24.049 -28.290   5.609  0.00  0.00    +0.035 C 
ATOM     35  C   LIG    1       24.176 -28.698   7.084  0.00  0.00    -0.002 C 
ATOM     36  C   LIG    1       23.404 -29.988   7.408  0.00  0.00    +0.004 C 
ATOM     37  C   LIG    1       23.735 -30.552   8.799  0.00  0.00    +0.007 C 
ATOM     38  C   LIG    1       24.277 -29.463   9.716  0.00  0.00    +0.025 C 
ATOM     39  C   LIG    1       24.487 -29.747  11.203  0.00  0.00    +0.075 C 
ATOM     40  C   LIG    1       25.545 -30.844  11.508  0.00  0.00    +0.004 C 
ATOM     41  C   LIG    1       25.035 -32.317  11.312  0.00  0.00    +0.014 C 
ATOM     42  C   LIG    1       25.689 -30.678  13.067  0.00  0.00    +0.027 C 
ATOM     43  C   LIG    1       24.187 -30.407  13.484  0.00  0.00    +0.011 C 
ATOM     44  C   LIG    1       26.774 -30.710  10.581  0.00  0.00    +0.010 C 
ATOM     45  C   LIG    1       26.913 -29.381   9.832  0.00  0.00    +0.005 C 
ATOM     46  C   LIG    1       23.378 -30.095  12.183  0.00  0.00    +0.036 C 
ATOM     47  C   LIG    1       25.620 -28.854   9.141  0.00  0.00    +0.001 C 
ATOM     48  C   LIG    1       25.652 -28.730   7.568  0.00  0.00    -0.026 C 
ATOM     49  C   LIG    1       26.423 -29.880   6.878  0.00  0.00    +0.012 C 
ATOM     50  C   LIG    1       26.348 -27.378   7.190  0.00  0.00    +0.009 C 
ATOM     51  C   LIG    1       26.091 -26.903   5.752  0.00  0.00    +0.032 C 
BRANCH  42  52
ATOM     52  C   LIG    1       26.698 -29.674  13.593  0.00  0.00    -0.022 C 
ATOM     53  C   LIG    1       28.146 -29.966  13.592  0.00  0.00    +0.264 C 
ATOM     54  O   LIG    1       28.756 -28.727  14.070  0.00  0.00    -0.457 OA
ATOM     55  C   LIG    1       27.836 -27.818  14.409  0.00  0.00    +0.332 C 
ATOM     56  O   LIG    1       28.013 -26.707  14.792  0.00  0.00    -0.246 OA
ATOM     57  C   LIG    1       26.513 -28.467  14.141  0.00  0.00    +0.094 C 
ENDBRANCH  42  52
BRANCH  39  58
ATOM     58  O   LIG    1       24.919 -28.449  11.688  0.00  0.00    -0.388 OA
ATOM     59  H   LIG    1       25.878 -28.490  11.860  0.00  0.00    +0.210 HD
ENDBRANCH  39  58
ENDBRANCH  32  33
ENDBRANCH   4  32
TORSDOF 12
ENDMDL
MODEL 2
REMARK VINA RESULT:      -7.4      4.516      8.110
REMARK  Name = *****
REMARK                            x       y       z     vdW  Elec       q    Type
REMARK                         _______ _______ _______ _____ _____    ______ ____
ROOT
ATOM      1  C   LIG    1       25.680 -27.871   6.851  0.00  0.00    +0.178 C 
ATOM      2  C   LIG    1       26.235 -28.853   7.904  0.00  0.00    +0.151 C 
ATOM      3  C   LIG    1       25.184 -29.145   8.947  0.00  0.00    +0.095 C 
ATOM      4  C   LIG    1       23.854 -29.485   8.290  0.00  0.00    +0.253 C 
ATOM      5  O   LIG    1       23.902 -29.591   6.875  0.00  0.00    -0.346 OA
ATOM      6  C   LIG    1       24.511 -28.550   6.126  0.00  0.00    +0.150 C 
ATOM      7  C   LIG    1       25.010 -29.161   4.818  0.00  0.00    +0.040 C 
ENDROOT
BRANCH   2   8
ATOM      8  O   LIG    1       27.392 -28.366   8.594  0.00  0.00    -0.389 OA
ATOM      9  H   LIG    1       27.095 -27.719   9.262  0.00  0.00    +0.210 HD
ENDBRANCH   2   8
BRANCH   1  10
ATOM     10  O   LIG    1       25.233 -26.652   7.473  0.00  0.00    -0.343 OA
BRANCH  10  14
ATOM     11  C   LIG    1       24.350 -22.757   6.371  0.00  0.00    +0.178 C 
ATOM     12  C   LIG    1       23.467 -23.929   6.855  0.00  0.00    +0.151 C 
ATOM     13  C   LIG    1       23.948 -25.176   6.130  0.00  0.00    +0.095 C 
ATOM     14  C   LIG    1       25.352 -25.490   6.629  0.00  0.00    +0.254 C 
ATOM     15  O   LIG    1       25.949 -24.422   7.361  0.00  0.00    -0.346 OA
ATOM     16  C   LIG    1       25.816 -23.111   6.784  0.00  0.00    +0.150 C 
ATOM     17  C   LIG    1       26.346 -22.157   7.849  0.00  0.00    +0.040 C 
BRANCH  12  18
ATOM     18  O   LIG    1       22.075 -23.691   6.723  0.00  0.00    -0.389 OA
ATOM     19  H   LIG    1       21.965 -22.814   6.301  0.00  0.00    +0.210 HD
ENDBRANCH  12  18
BRANCH  11  20
ATOM     20  O   LIG    1       24.423 -22.607   4.932  0.00  0.00    -0.343 OA
BRANCH  20  26
ATOM     21  C   LIG    1       25.543 -18.363   3.232  0.00  0.00    +0.040 C 
ATOM     22  C   LIG    1       24.336 -19.229   3.573  0.00  0.00    +0.149 C 
ATOM     23  C   LIG    1       23.437 -18.570   4.625  0.00  0.00    +0.171 C 
ATOM     24  C   LIG    1       22.299 -19.534   4.991  0.00  0.00    +0.150 C 
ATOM     25  C   LIG    1       22.841 -20.909   5.359  0.00  0.00    +0.095 C 
ATOM     26  C   LIG    1       23.852 -21.442   4.325  0.00  0.00    +0.254 C 
ATOM     27  O   LIG    1       24.849 -20.451   4.113  0.00  0.00    -0.346 OA
BRANCH  23  28
ATOM     28  O   LIG    1       22.895 -17.335   4.160  0.00  0.00    -0.387 OA
ATOM     29  H   LIG    1       21.929 -17.397   4.301  0.00  0.00    +0.210 HD
ENDBRANCH  23  28
BRANCH  24  30
ATOM     30  O   LIG    1       21.412 -19.640   3.868  0.00  0.00    -0.389 OA
ATOM     31  H   LIG    1       21.355 -18.756   3.460  0.00  0.00    +0.210 HD
ENDBRANCH  24  30
ENDBRANCH  20  26
ENDBRANCH  11  20
ENDBRANCH  10  14
ENDBRANCH   1  10
BRANCH   4  32
ATOM     32  O   LIG    1       23.311 -30.695   8.838  0.00  0.00    -0.348 OA
BRANCH  32  33
ATOM     33  C   LIG    1       24.142 -31.449   9.747  0.00  0.00    +0.122 C 
ATOM     34  C   LIG    1       23.537 -32.781  10.220  0.00  0.00    +0.035 C 
ATOM     35  C   LIG    1       22.148 -32.526  10.821  0.00  0.00    -0.002 C 
ATOM     36  C   LIG    1       21.359 -33.825  11.057  0.00  0.00    +0.004 C 
ATOM     37  C   LIG    1       20.090 -33.613  11.897  0.00  0.00    +0.007 C 
ATOM     38  C   LIG    1       19.618 -32.166  11.819  0.00  0.00    +0.025 C 
ATOM     39  C   LIG    1       18.267 -31.767  12.412  0.00  0.00    +0.075 C 
ATOM     40  C   LIG    1       18.156 -31.956  13.951  0.00  0.00    +0.004 C 
ATOM     41  C   LIG    1       17.905 -33.439  14.411  0.00  0.00    +0.014 C 
ATOM     42  C   LIG    1       16.794 -31.218  14.233  0.00  0.00    +0.027 C 
ATOM     43  C   LIG    1       15.943 -31.656  12.974  0.00  0.00    +0.011 C 
ATOM     44  C   LIG    1       19.455 -31.522  14.665  0.00  0.00    +0.010 C 
ATOM     45  C   LIG    1       20.426 -30.672  13.840  0.00  0.00    +0.005 C 
ATOM     46  C   LIG    1       16.923 -32.287  11.931  0.00  0.00    +0.036 C 
ATOM     47  C   LIG    1       20.715 -31.182  12.396  0.00  0.00    +0.001 C 
ATOM     48  C   LIG    1       22.200 -31.607  12.073  0.00  0.00    -0.026 C 
ATOM     49  C   LIG    1       22.900 -32.330  13.248  0.00  0.00    +0.012 C 
ATOM     50  C   LIG    1       23.022 -30.318  11.731  0.00  0.00    +0.009 C 
ATOM     51  C   LIG    1       24.345 -30.576  10.995  0.00  0.00    +0.032 C 
BRANCH  42  52
ATOM     52  C   LIG    1       16.829 -29.725  14.503  0.00  0.00    -0.022 C 
ATOM     53  C   LIG    1       17.757 -29.143  15.494  0.00  0.00    +0.264 C 
ATOM     54  O   LIG    1       17.548 -27.702  15.371  0.00  0.00    -0.457 OA
ATOM     55  C   LIG    1       16.574 -27.414  14.502  0.00  0.00    +0.332 C 
ATOM     56  O   LIG    1       16.197 -26.341  14.156  0.00  0.00    -0.246 OA
ATOM     57  C   LIG    1       16.088 -28.735  13.990  0.00  0.00    +0.094 C 
ENDBRANCH  42  52
BRANCH  39  58
ATOM     58  O   LIG    1       18.193 -30.364  12.048  0.00  0.00    -0.388 OA
ATOM     59  H   LIG    1       19.013 -30.127  11.575  0.00  0.00    +0.210 HD
ENDBRANCH  39  58
ENDBRANCH  32  33
ENDBRANCH   4  32
TORSDOF 12
ENDMDL
MODEL 3
REMARK VINA RESULT:      -6.9      2.083      2.679
REMARK  Name = *****
REMARK                            x       y       z     vdW  Elec       q    Type
REMARK                         _______ _______ _______ _____ _____    ______ ____
ROOT
ATOM      1  C   LIG    1       24.059 -22.802   6.486  0.00  0.00    +0.178 C 
ATOM      2  C   LIG    1       24.765 -23.533   5.324  0.00  0.00    +0.151 C 
ATOM      3  C   LIG    1       25.274 -24.876   5.786  0.00  0.00    +0.095 C 
ATOM      4  C   LIG    1       24.190 -25.630   6.544  0.00  0.00    +0.253 C 
ATOM      5  O   LIG    1       22.919 -24.998   6.545  0.00  0.00    -0.346 OA
ATOM      6  C   LIG    1       22.832 -23.625   6.898  0.00  0.00    +0.150 C 
ATOM      7  C   LIG    1       21.588 -23.058   6.216  0.00  0.00    +0.040 C 
ENDROOT
BRANCH   2   8
ATOM      8  O   LIG    1       25.885 -22.817   4.788  0.00  0.00    -0.389 OA
ATOM      9  H   LIG    1       26.699 -23.264   5.090  0.00  0.00    +0.210 HD
ENDBRANCH   2   8
BRANCH   1  10
ATOM     10  O   LIG    1       24.947 -22.648   7.608  0.00  0.00    -0.343 OA
BRANCH  10  14
ATOM     11  C   LIG    1       28.106 -20.084   6.823  0.00  0.00    +0.178 C 
ATOM     12  C   LIG    1       28.048 -21.541   7.334  0.00  0.00    +0.151 C 
ATOM     13  C   LIG    1       26.938 -21.604   8.371  0.00  0.00    +0.095 C 
ATOM     14  C   LIG    1       25.616 -21.373   7.649  0.00  0.00    +0.254 C 
ATOM     15  O   LIG    1       25.771 -20.865   6.326  0.00  0.00    -0.346 OA
ATOM     16  C   LIG    1       26.717 -19.792   6.169  0.00  0.00    +0.150 C 
ATOM     17  C   LIG    1       26.835 -19.591   4.662  0.00  0.00    +0.040 C 
BRANCH  12  18
ATOM     18  O   LIG    1       29.294 -22.036   7.799  0.00  0.00    -0.389 OA
ATOM     19  H   LIG    1       29.793 -21.279   8.166  0.00  0.00    +0.210 HD
ENDBRANCH  12  18
BRANCH  11  20
ATOM     20  O   LIG    1       28.216 -19.081   7.862  0.00  0.00    -0.343 OA
BRANCH  20  26
ATOM     21  C   LIG    1       30.384 -16.549  11.185  0.00  0.00    +0.040 C 
ATOM     22  C   LIG    1       30.609 -17.737  10.257  0.00  0.00    +0.149 C 
ATOM     23  C   LIG    1       31.793 -17.510   9.311  0.00  0.00    +0.171 C 
ATOM     24  C   LIG    1       31.901 -18.698   8.345  0.00  0.00    +0.150 C 
ATOM     25  C   LIG    1       30.566 -18.979   7.668  0.00  0.00    +0.095 C 
ATOM     26  C   LIG    1       29.398 -19.047   8.671  0.00  0.00    +0.254 C 
ATOM     27  O   LIG    1       29.419 -17.873   9.473  0.00  0.00    -0.346 OA
BRANCH  23  28
ATOM     28  O   LIG    1       33.019 -17.353  10.025  0.00  0.00    -0.387 OA
ATOM     29  H   LIG    1       33.454 -16.565   9.641  0.00  0.00    +0.210 HD
ENDBRANCH  23  28
BRANCH  24  30
ATOM     30  O   LIG    1       32.330 -19.851   9.085  0.00  0.00    -0.389 OA
ATOM     31  H   LIG    1       31.565 -20.161   9.605  0.00  0.00    +0.210 HD
ENDBRANCH  24  30
ENDBRANCH  20  26
ENDBRANCH  11  20
ENDBRANCH  10  14
ENDBRANCH   1  10
BRANCH   4  32
ATOM     32  O   LIG    1       24.055 -26.967   6.042  0.00  0.00    -0.348 OA
BRANCH  32  33
ATOM     33  C   LIG    1       25.266 -27.694   5.741  0.00  0.00    +0.122 C 
ATOM     34  C   LIG    1       25.083 -29.211   5.574  0.00  0.00    +0.035 C 
ATOM     35  C   LIG    1       24.390 -29.782   6.819  0.00  0.00    -0.002 C 
ATOM     36  C   LIG    1       23.915 -31.230   6.618  0.00  0.00    +0.004 C 
ATOM     37  C   LIG    1       23.464 -31.902   7.925  0.00  0.00    +0.007 C 
ATOM     38  C   LIG    1       23.063 -30.862   8.963  0.00  0.00    +0.025 C 
ATOM     39  C   LIG    1       22.395 -31.298  10.268  0.00  0.00    +0.075 C 
ATOM     40  C   LIG    1       23.280 -32.195  11.178  0.00  0.00    +0.004 C 
ATOM     41  C   LIG    1       23.361 -33.700  10.732  0.00  0.00    +0.014 C 
ATOM     42  C   LIG    1       22.410 -32.218  12.491  0.00  0.00    +0.027 C 
ATOM     43  C   LIG    1       20.951 -32.307  11.888  0.00  0.00    +0.011 C 
ATOM     44  C   LIG    1       24.742 -31.698  11.205  0.00  0.00    +0.010 C 
ATOM     45  C   LIG    1       24.982 -30.278  10.681  0.00  0.00    +0.005 C 
ATOM     46  C   LIG    1       21.044 -31.988  10.360  0.00  0.00    +0.036 C 
ATOM     47  C   LIG    1       24.287 -29.928   9.331  0.00  0.00    +0.001 C 
ATOM     48  C   LIG    1       25.230 -29.588   8.112  0.00  0.00    -0.026 C 
ATOM     49  C   LIG    1       26.508 -30.459   8.062  0.00  0.00    +0.012 C 
ATOM     50  C   LIG    1       25.664 -28.086   8.223  0.00  0.00    +0.009 C 
ATOM     51  C   LIG    1       26.221 -27.481   6.926  0.00  0.00    +0.032 C 
BRANCH  42  52
ATOM     52  C   LIG    1       22.623 -31.115  13.512  0.00  0.00    -0.022 C 
ATOM     53  C   LIG    1       23.880 -31.008  14.280  0.00  0.00    +0.264 C 
ATOM     54  O   LIG    1       23.718 -29.779  15.054  0.00  0.00    -0.457 OA
ATOM     55  C   LIG    1       22.509 -29.236  14.876  0.00  0.00    +0.332 C 
ATOM     56  O   LIG    1       22.091 -28.222  15.333  0.00  0.00    -0.246 OA
ATOM     57  C   LIG    1       21.800 -30.140  13.916  0.00  0.00    +0.094 C 
ENDBRANCH  42  52
BRANCH  39  58
ATOM     58  O   LIG    1       22.122 -30.018  10.896  0.00  0.00    -0.388 OA
ATOM     59  H   LIG    1       22.893 -29.774  11.442  0.00  0.00    +0.210 HD
ENDBRANCH  39  58
ENDBRANCH  32  33
ENDBRANCH   4  32
TORSDOF 12
ENDMDL
MODEL 4
REMARK VINA RESULT:      -6.0      2.359      5.087
REMARK  Name = *****
REMARK                            x       y       z     vdW  Elec       q    Type
REMARK                         _______ _______ _______ _____ _____    ______ ____
ROOT
ATOM      1  C   LIG    1       25.114 -26.790   5.567  0.00  0.00    +0.178 C 
ATOM      2  C   LIG    1       26.484 -27.477   5.744  0.00  0.00    +0.151 C 
ATOM      3  C   LIG    1       26.527 -28.224   7.054  0.00  0.00    +0.095 C 
ATOM      4  C   LIG    1       25.278 -29.078   7.227  0.00  0.00    +0.253 C 
ATOM      5  O   LIG    1       24.418 -29.105   6.097  0.00  0.00    -0.346 OA
ATOM      6  C   LIG    1       24.035 -27.879   5.493  0.00  0.00    +0.150 C 
ATOM      7  C   LIG    1       23.711 -28.174   4.030  0.00  0.00    +0.040 C 
ENDROOT
BRANCH   2   8
ATOM      8  O   LIG    1       27.591 -26.566   5.741  0.00  0.00    -0.389 OA
ATOM      9  H   LIG    1       27.974 -26.561   4.843  0.00  0.00    +0.210 HD
ENDBRANCH   2   8
BRANCH   1  10
ATOM     10  O   LIG    1       24.841 -25.902   6.666  0.00  0.00    -0.343 OA
BRANCH  10  14
ATOM     11  C   LIG    1       25.261 -21.780   6.599  0.00  0.00    +0.178 C 
ATOM     12  C   LIG    1       24.314 -22.744   5.849  0.00  0.00    +0.151 C 
ATOM     13  C   LIG    1       25.155 -23.925   5.391  0.00  0.00    +0.095 C 
ATOM     14  C   LIG    1       25.608 -24.682   6.632  0.00  0.00    +0.254 C 
ATOM     15  O   LIG    1       25.414 -23.957   7.844  0.00  0.00    -0.346 OA
ATOM     16  C   LIG    1       25.818 -22.576   7.824  0.00  0.00    +0.150 C 
ATOM     17  C   LIG    1       25.317 -22.000   9.144  0.00  0.00    +0.040 C 
BRANCH  12  18
ATOM     18  O   LIG    1       23.576 -22.127   4.806  0.00  0.00    -0.389 OA
ATOM     19  H   LIG    1       23.336 -22.825   4.163  0.00  0.00    +0.210 HD
ENDBRANCH  12  18
BRANCH  11  20
ATOM     20  O   LIG    1       26.450 -21.403   5.862  0.00  0.00    -0.343 OA
BRANCH  20  26
ATOM     21  C   LIG    1       29.284 -17.767   4.912  0.00  0.00    +0.040 C 
ATOM     22  C   LIG    1       28.944 -18.753   6.023  0.00  0.00    +0.149 C 
ATOM     23  C   LIG    1       30.158 -19.591   6.438  0.00  0.00    +0.171 C 
ATOM     24  C   LIG    1       29.723 -20.625   7.487  0.00  0.00    +0.150 C 
ATOM     25  C   LIG    1       28.512 -21.415   7.009  0.00  0.00    +0.095 C 
ATOM     26  C   LIG    1       27.389 -20.508   6.470  0.00  0.00    +0.254 C 
ATOM     27  O   LIG    1       27.942 -19.630   5.498  0.00  0.00    -0.346 OA
BRANCH  23  28
ATOM     28  O   LIG    1       31.208 -18.780   6.963  0.00  0.00    -0.387 OA
ATOM     29  H   LIG    1       30.769 -18.005   7.368  0.00  0.00    +0.210 HD
ENDBRANCH  23  28
BRANCH  24  30
ATOM     30  O   LIG    1       29.410 -19.934   8.705  0.00  0.00    -0.389 OA
ATOM     31  H   LIG    1       28.690 -20.426   9.140  0.00  0.00    +0.210 HD
ENDBRANCH  24  30
ENDBRANCH  20  26
ENDBRANCH  11  20
ENDBRANCH  10  14
ENDBRANCH   1  10
BRANCH   4  32
ATOM     32  O   LIG    1       25.627 -30.422   7.590  0.00  0.00    -0.348 OA
BRANCH  32  33
ATOM     33  C   LIG    1       24.580 -31.263   8.121  0.00  0.00    +0.122 C 
ATOM     34  C   LIG    1       23.615 -30.558   9.088  0.00  0.00    +0.035 C 
ATOM     35  C   LIG    1       24.417 -29.892  10.216  0.00  0.00    -0.002 C 
ATOM     36  C   LIG    1       23.562 -28.934  11.061  0.00  0.00    +0.004 C 
ATOM     37  C   LIG    1       24.271 -28.468  12.343  0.00  0.00    +0.007 C 
ATOM     38  C   LIG    1       25.783 -28.591  12.206  0.00  0.00    +0.025 C 
ATOM     39  C   LIG    1       26.701 -28.002  13.278  0.00  0.00    +0.075 C 
ATOM     40  C   LIG    1       26.550 -28.650  14.683  0.00  0.00    +0.004 C 
ATOM     41  C   LIG    1       25.301 -28.156  15.500  0.00  0.00    +0.014 C 
ATOM     42  C   LIG    1       27.785 -28.014  15.425  0.00  0.00    +0.027 C 
ATOM     43  C   LIG    1       27.762 -26.542  14.849  0.00  0.00    +0.011 C 
ATOM     44  C   LIG    1       26.390 -30.183  14.580  0.00  0.00    +0.010 C 
ATOM     45  C   LIG    1       26.771 -30.812  13.236  0.00  0.00    +0.005 C 
ATOM     46  C   LIG    1       26.798 -26.524  13.618  0.00  0.00    +0.036 C 
ATOM     47  C   LIG    1       26.211 -30.096  11.970  0.00  0.00    +0.001 C 
ATOM     48  C   LIG    1       25.210 -30.919  11.070  0.00  0.00    -0.026 C 
ATOM     49  C   LIG    1       24.241 -31.809  11.885  0.00  0.00    +0.012 C 
ATOM     50  C   LIG    1       26.043 -31.845  10.119  0.00  0.00    +0.009 C 
ATOM     51  C   LIG    1       25.268 -32.388   8.910  0.00  0.00    +0.032 C 
BRANCH  42  52
ATOM     52  C   LIG    1       29.123 -28.726  15.332  0.00  0.00    -0.022 C 
ATOM     53  C   LIG    1       30.376 -27.980  15.097  0.00  0.00    +0.264 C 
ATOM     54  O   LIG    1       31.416 -29.003  15.180  0.00  0.00    -0.457 OA
ATOM     55  C   LIG    1       30.899 -30.225  15.350  0.00  0.00    +0.332 C 
ATOM     56  O   LIG    1       31.482 -31.251  15.492  0.00  0.00    -0.246 OA
ATOM     57  C   LIG    1       29.415 -30.030  15.395  0.00  0.00    +0.094 C 
ENDBRANCH  42  52
BRANCH  39  58
ATOM     58  O   LIG    1       28.012 -28.266  12.715  0.00  0.00    -0.388 OA
ATOM     59  H   LIG    1       28.611 -28.524  13.441  0.00  0.00    +0.210 HD
ENDBRANCH  39  58
ENDBRANCH  32  33
ENDBRANCH   4  32
TORSDOF 12
ENDMDL
MODEL 5
REMARK VINA RESULT:      -5.7      2.783      5.772
REMARK  Name = *****
REMARK                            x       y       z     vdW  Elec       q    Type
REMARK                         _______ _______ _______ _____ _____    ______ ____
ROOT
ATOM      1  C   LIG    1       25.217 -26.570   5.895  0.00  0.00    +0.178 C 
ATOM      2  C   LIG    1       26.478 -27.341   6.341  0.00  0.00    +0.151 C 
ATOM      3  C   LIG    1       26.250 -27.973   7.692  0.00  0.00    +0.095 C 
ATOM      4  C   LIG    1       24.919 -28.711   7.723  0.00  0.00    +0.253 C 
ATOM      5  O   LIG    1       24.245 -28.771   6.474  0.00  0.00    -0.346 OA
ATOM      6  C   LIG    1       24.071 -27.576   5.728  0.00  0.00    +0.150 C 
ATOM      7  C   LIG    1       23.953 -27.971   4.257  0.00  0.00    +0.040 C 
ENDROOT
BRANCH   2   8
ATOM      8  O   LIG    1       27.648 -26.520   6.450  0.00  0.00    -0.389 OA
ATOM      9  H   LIG    1       28.197 -26.875   7.175  0.00  0.00    +0.210 HD
ENDBRANCH   2   8
BRANCH   1  10
ATOM     10  O   LIG    1       24.858 -25.571   6.867  0.00  0.00    -0.343 OA
BRANCH  10  14
ATOM     11  C   LIG    1       25.319 -21.468   6.531  0.00  0.00    +0.178 C 
ATOM     12  C   LIG    1       24.388 -22.474   5.818  0.00  0.00    +0.151 C 
ATOM     13  C   LIG    1       25.232 -23.690   5.470  0.00  0.00    +0.095 C 
ATOM     14  C   LIG    1       25.636 -24.363   6.775  0.00  0.00    +0.254 C 
ATOM     15  O   LIG    1       25.410 -23.554   7.927  0.00  0.00    -0.346 OA
ATOM     16  C   LIG    1       25.828 -22.180   7.825  0.00  0.00    +0.150 C 
ATOM     17  C   LIG    1       25.289 -21.512   9.086  0.00  0.00    +0.040 C 
BRANCH  12  18
ATOM     18  O   LIG    1       23.690 -21.925   4.711  0.00  0.00    -0.389 OA
ATOM     19  H   LIG    1       23.406 -21.022   4.960  0.00  0.00    +0.210 HD
ENDBRANCH  12  18
BRANCH  11  20
ATOM     20  O   LIG    1       26.534 -21.150   5.810  0.00  0.00    -0.343 OA
BRANCH  20  26
ATOM     21  C   LIG    1       29.564 -17.669   4.883  0.00  0.00    +0.040 C 
ATOM     22  C   LIG    1       29.155 -18.627   5.995  0.00  0.00    +0.149 C 
ATOM     23  C   LIG    1       30.318 -19.522   6.438  0.00  0.00    +0.171 C 
ATOM     24  C   LIG    1       29.813 -20.523   7.488  0.00  0.00    +0.150 C 
ATOM     25  C   LIG    1       28.572 -21.256   6.994  0.00  0.00    +0.095 C 
ATOM     26  C   LIG    1       27.506 -20.299   6.427  0.00  0.00    +0.254 C 
ATOM     27  O   LIG    1       28.119 -19.458   5.459  0.00  0.00    -0.346 OA
BRANCH  23  28
ATOM     28  O   LIG    1       31.397 -18.759   6.976  0.00  0.00    -0.387 OA
ATOM     29  H   LIG    1       32.212 -19.247   6.742  0.00  0.00    +0.210 HD
ENDBRANCH  23  28
BRANCH  24  30
ATOM     30  O   LIG    1       29.514 -19.806   8.695  0.00  0.00    -0.389 OA
ATOM     31  H   LIG    1       29.230 -20.463   9.358  0.00  0.00    +0.210 HD
ENDBRANCH  24  30
ENDBRANCH  20  26
ENDBRANCH  11  20
ENDBRANCH  10  14
ENDBRANCH   1  10
BRANCH   4  32
ATOM     32  O   LIG    1       25.086 -30.041   8.235  0.00  0.00    -0.348 OA
BRANCH  32  33
ATOM     33  C   LIG    1       26.222 -30.289   9.091  0.00  0.00    +0.122 C 
ATOM     34  C   LIG    1       26.075 -31.503  10.023  0.00  0.00    +0.035 C 
ATOM     35  C   LIG    1       24.784 -31.364  10.843  0.00  0.00    -0.002 C 
ATOM     36  C   LIG    1       24.415 -32.658  11.586  0.00  0.00    +0.004 C 
ATOM     37  C   LIG    1       23.288 -32.460  12.612  0.00  0.00    +0.007 C 
ATOM     38  C   LIG    1       22.446 -31.237  12.270  0.00  0.00    +0.025 C 
ATOM     39  C   LIG    1       21.151 -30.958  13.035  0.00  0.00    +0.075 C 
ATOM     40  C   LIG    1       21.345 -30.680  14.552  0.00  0.00    +0.004 C 
ATOM     41  C   LIG    1       21.571 -31.965  15.429  0.00  0.00    +0.014 C 
ATOM     42  C   LIG    1       19.901 -30.186  14.940  0.00  0.00    +0.027 C 
ATOM     43  C   LIG    1       19.004 -31.157  14.072  0.00  0.00    +0.011 C 
ATOM     44  C   LIG    1       22.582 -29.790  14.806  0.00  0.00    +0.010 C 
ATOM     45  C   LIG    1       23.148 -29.058  13.585  0.00  0.00    +0.005 C 
ATOM     46  C   LIG    1       19.932 -31.866  13.032  0.00  0.00    +0.036 C 
ATOM     47  C   LIG    1       23.322 -29.920  12.298  0.00  0.00    +0.001 C 
ATOM     48  C   LIG    1       24.794 -30.111  11.762  0.00  0.00    -0.026 C 
ATOM     49  C   LIG    1       25.841 -30.275  12.890  0.00  0.00    +0.012 C 
ATOM     50  C   LIG    1       25.181 -28.852  10.914  0.00  0.00    +0.009 C 
ATOM     51  C   LIG    1       26.388 -29.050   9.984  0.00  0.00    +0.032 C 
BRANCH  42  52
ATOM     52  C   LIG    1       19.585 -28.708  14.793  0.00  0.00    -0.022 C 
ATOM     53  C   LIG    1       20.375 -27.678  15.498  0.00  0.00    +0.264 C 
ATOM     54  O   LIG    1       19.822 -26.416  15.012  0.00  0.00    -0.457 OA
ATOM     55  C   LIG    1       18.782 -26.610  14.195  0.00  0.00    +0.332 C 
ATOM     56  O   LIG    1       18.149 -25.791  13.611  0.00  0.00    -0.246 OA
ATOM     57  C   LIG    1       18.614 -28.096  14.106  0.00  0.00    +0.094 C 
ENDBRANCH  42  52
BRANCH  39  58
ATOM     58  O   LIG    1       20.653 -29.784  12.344  0.00  0.00    -0.388 OA
ATOM     59  H   LIG    1       21.356 -29.455  11.753  0.00  0.00    +0.210 HD
ENDBRANCH  39  58
ENDBRANCH  32  33
ENDBRANCH   4  32
TORSDOF 12
ENDMDL
MODEL 6
REMARK VINA RESULT:      -5.7      3.161      5.791
REMARK  Name = *****
REMARK                            x       y       z     vdW  Elec       q    Type
REMARK                         _______ _______ _______ _____ _____    ______ ____
ROOT
ATOM      1  C   LIG    1       26.183 -26.811   6.310  0.00  0.00    +0.178 C 
ATOM      2  C   LIG    1       26.198 -27.826   7.473  0.00  0.00    +0.151 C 
ATOM      3  C   LIG    1       24.810 -28.369   7.707  0.00  0.00    +0.095 C 
ATOM      4  C   LIG    1       24.175 -28.804   6.394  0.00  0.00    +0.253 C 
ATOM      5  O   LIG    1       25.038 -28.742   5.268  0.00  0.00    -0.346 OA
ATOM      6  C   LIG    1       25.774 -27.552   5.030  0.00  0.00    +0.150 C 
ATOM      7  C   LIG    1       27.026 -27.940   4.246  0.00  0.00    +0.040 C 
ENDROOT
BRANCH   2   8
ATOM      8  O   LIG    1       26.650 -27.272   8.715  0.00  0.00    -0.389 OA
ATOM      9  H   LIG    1       27.493 -26.808   8.549  0.00  0.00    +0.210 HD
ENDBRANCH   2   8
BRANCH   1  10
ATOM     10  O   LIG    1       25.259 -25.741   6.576  0.00  0.00    -0.343 OA
BRANCH  10  14
ATOM     11  C   LIG    1       25.141 -21.601   6.683  0.00  0.00    +0.178 C 
ATOM     12  C   LIG    1       24.243 -22.652   5.992  0.00  0.00    +0.151 C 
ATOM     13  C   LIG    1       25.169 -23.692   5.381  0.00  0.00    +0.095 C 
ATOM     14  C   LIG    1       25.855 -24.430   6.523  0.00  0.00    +0.254 C 
ATOM     15  O   LIG    1       25.713 -23.784   7.786  0.00  0.00    -0.346 OA
ATOM     16  C   LIG    1       25.933 -22.362   7.794  0.00  0.00    +0.150 C 
ATOM     17  C   LIG    1       25.520 -21.909   9.191  0.00  0.00    +0.040 C 
BRANCH  12  18
ATOM     18  O   LIG    1       23.317 -22.098   5.070  0.00  0.00    -0.389 OA
ATOM     19  H   LIG    1       22.787 -22.836   4.706  0.00  0.00    +0.210 HD
ENDBRANCH  12  18
BRANCH  11  20
ATOM     20  O   LIG    1       26.178 -21.041   5.840  0.00  0.00    -0.343 OA
BRANCH  20  26
ATOM     21  C   LIG    1       29.348 -17.702   4.864  0.00  0.00    +0.040 C 
ATOM     22  C   LIG    1       28.920 -18.648   5.979  0.00  0.00    +0.149 C 
ATOM     23  C   LIG    1       30.049 -19.600   6.388  0.00  0.00    +0.171 C 
ATOM     24  C   LIG    1       29.522 -20.584   7.443  0.00  0.00    +0.150 C 
ATOM     25  C   LIG    1       28.236 -21.253   6.975  0.00  0.00    +0.095 C 
ATOM     26  C   LIG    1       27.204 -20.242   6.440  0.00  0.00    +0.254 C 
ATOM     27  O   LIG    1       27.834 -19.424   5.463  0.00  0.00    -0.346 OA
BRANCH  23  28
ATOM     28  O   LIG    1       31.176 -18.894   6.905  0.00  0.00    -0.387 OA
ATOM     29  H   LIG    1       31.387 -19.316   7.762  0.00  0.00    +0.210 HD
ENDBRANCH  23  28
BRANCH  24  30
ATOM     30  O   LIG    1       29.286 -19.863   8.662  0.00  0.00    -0.389 OA
ATOM     31  H   LIG    1       28.358 -20.022   8.916  0.00  0.00    +0.210 HD
ENDBRANCH  24  30
ENDBRANCH  20  26
ENDBRANCH  11  20
ENDBRANCH  10  14
ENDBRANCH   1  10
BRANCH   4  32
ATOM     32  O   LIG    1       23.635 -30.130   6.505  0.00  0.00    -0.348 OA
BRANCH  32  33
ATOM     33  C   LIG    1       24.545 -31.194   6.860  0.00  0.00    +0.122 C 
ATOM     34  C   LIG    1       23.871 -32.539   7.177  0.00  0.00    +0.035 C 
ATOM     35  C   LIG    1       22.807 -32.334   8.264  0.00  0.00    -0.002 C 
ATOM     36  C   LIG    1       21.896 -33.560   8.437  0.00  0.00    +0.004 C 
ATOM     37  C   LIG    1       21.008 -33.476   9.689  0.00  0.00    +0.007 C 
ATOM     38  C   LIG    1       20.820 -32.030  10.130  0.00  0.00    +0.025 C 
ATOM     39  C   LIG    1       19.816 -31.689  11.232  0.00  0.00    +0.075 C 
ATOM     40  C   LIG    1       20.146 -32.306  12.620  0.00  0.00    +0.004 C 
ATOM     41  C   LIG    1       19.770 -33.825  12.766  0.00  0.00    +0.014 C 
ATOM     42  C   LIG    1       19.102 -31.550  13.525  0.00  0.00    +0.027 C 
ATOM     43  C   LIG    1       17.840 -31.517  12.572  0.00  0.00    +0.011 C 
ATOM     44  C   LIG    1       21.659 -32.229  12.923  0.00  0.00    +0.010 C 
ATOM     45  C   LIG    1       22.475 -31.276  12.044  0.00  0.00    +0.005 C 
ATOM     46  C   LIG    1       18.316 -31.911  11.135  0.00  0.00    +0.036 C 
ATOM     47  C   LIG    1       22.206 -31.370  10.512  0.00  0.00    +0.001 C 
ATOM     48  C   LIG    1       23.413 -31.828   9.603  0.00  0.00    -0.026 C 
ATOM     49  C   LIG    1       24.286 -32.927  10.252  0.00  0.00    +0.012 C 
ATOM     50  C   LIG    1       24.321 -30.583   9.319  0.00  0.00    +0.009 C 
ATOM     51  C   LIG    1       25.282 -30.746   8.132  0.00  0.00    +0.032 C 
BRANCH  42  52
ATOM     52  C   LIG    1       19.501 -30.211  14.117  0.00  0.00    -0.022 C 
ATOM     53  C   LIG    1       20.674 -30.081  15.006  0.00  0.00    +0.264 C 
ATOM     54  O   LIG    1       20.766 -28.646  15.262  0.00  0.00    -0.457 OA
ATOM     55  C   LIG    1       19.756 -27.975  14.698  0.00  0.00    +0.332 C 
ATOM     56  O   LIG    1       19.573 -26.800  14.692  0.00  0.00    -0.246 OA
ATOM     57  C   LIG    1       18.923 -29.009  14.006  0.00  0.00    +0.094 C 
ENDBRANCH  42  52
BRANCH  39  58
ATOM     58  O   LIG    1       19.903 -30.240  11.265  0.00  0.00    -0.388 OA
ATOM     59  H   LIG    1       19.659 -29.899  10.385  0.00  0.00    +0.210 HD
ENDBRANCH  39  58
ENDBRANCH  32  33
ENDBRANCH   4  32
TORSDOF 12
ENDMDL
MODEL 7
REMARK VINA RESULT:      -5.5      4.205      7.054
REMARK  Name = *****
REMARK                            x       y       z     vdW  Elec       q    Type
REMARK                         _______ _______ _______ _____ _____    ______ ____
ROOT
ATOM      1  C   LIG    1       25.564 -26.651   5.936  0.00  0.00    +0.178 C 
ATOM      2  C   LIG    1       26.841 -27.483   6.179  0.00  0.00    +0.151 C 
ATOM      3  C   LIG    1       26.970 -27.823   7.644  0.00  0.00    +0.095 C 
ATOM      4  C   LIG    1       25.655 -28.366   8.187  0.00  0.00    +0.253 C 
ATOM      5  O   LIG    1       24.647 -28.566   7.207  0.00  0.00    -0.346 OA
ATOM      6  C   LIG    1       24.349 -27.515   6.300  0.00  0.00    +0.150 C 
ATOM      7  C   LIG    1       23.783 -28.154   5.034  0.00  0.00    +0.040 C 
ENDROOT
BRANCH   2   8
ATOM      8  O   LIG    1       28.048 -26.813   5.793  0.00  0.00    -0.389 OA
ATOM      9  H   LIG    1       28.623 -26.752   6.580  0.00  0.00    +0.210 HD
ENDBRANCH   2   8
BRANCH   1  10
ATOM     10  O   LIG    1       25.573 -25.454   6.735  0.00  0.00    -0.343 OA
BRANCH  10  14
ATOM     11  C   LIG    1       24.027 -21.702   5.899  0.00  0.00    +0.178 C 
ATOM     12  C   LIG    1       23.364 -23.032   6.322  0.00  0.00    +0.151 C 
ATOM     13  C   LIG    1       24.025 -24.135   5.511  0.00  0.00    +0.095 C 
ATOM     14  C   LIG    1       25.475 -24.240   5.966  0.00  0.00    +0.254 C 
ATOM     15  O   LIG    1       25.906 -23.133   6.754  0.00  0.00    -0.346 OA
ATOM     16  C   LIG    1       25.542 -21.830   6.263  0.00  0.00    +0.150 C 
ATOM     17  C   LIG    1       25.936 -20.867   7.379  0.00  0.00    +0.040 C 
BRANCH  12  18
ATOM     18  O   LIG    1       21.948 -23.022   6.229  0.00  0.00    -0.389 OA
ATOM     19  H   LIG    1       21.658 -22.088   6.251  0.00  0.00    +0.210 HD
ENDBRANCH  12  18
BRANCH  11  20
ATOM     20  O   LIG    1       24.035 -21.456   4.471  0.00  0.00    -0.343 OA
BRANCH  20  26
ATOM     21  C   LIG    1       25.529 -17.147   3.308  0.00  0.00    +0.040 C 
ATOM     22  C   LIG    1       24.250 -17.951   3.505  0.00  0.00    +0.149 C 
ATOM     23  C   LIG    1       23.355 -17.347   4.594  0.00  0.00    +0.171 C 
ATOM     24  C   LIG    1       22.136 -18.256   4.806  0.00  0.00    +0.150 C 
ATOM     25  C   LIG    1       22.562 -19.701   5.033  0.00  0.00    +0.095 C 
ATOM     26  C   LIG    1       23.576 -20.191   3.982  0.00  0.00    +0.254 C 
ATOM     27  O   LIG    1       24.650 -19.261   3.919  0.00  0.00    -0.346 OA
BRANCH  23  28
ATOM     28  O   LIG    1       22.924 -16.030   4.254  0.00  0.00    -0.387 OA
ATOM     29  H   LIG    1       23.672 -15.439   4.473  0.00  0.00    +0.210 HD
ENDBRANCH  23  28
BRANCH  24  30
ATOM     30  O   LIG    1       21.293 -18.168   3.647  0.00  0.00    -0.389 OA
ATOM     31  H   LIG    1       21.277 -17.233   3.372  0.00  0.00    +0.210 HD
ENDBRANCH  24  30
ENDBRANCH  20  26
ENDBRANCH  11  20
ENDBRANCH  10  14
ENDBRANCH   1  10
BRANCH   4  32
ATOM     32  O   LIG    1       25.869 -29.591   8.904  0.00  0.00    -0.348 OA
BRANCH  32  33
ATOM     33  C   LIG    1       26.902 -29.602   9.913  0.00  0.00    +0.122 C 
ATOM     34  C   LIG    1       26.920 -30.856  10.803  0.00  0.00    +0.035 C 
ATOM     35  C   LIG    1       25.533 -31.060  11.428  0.00  0.00    -0.002 C 
ATOM     36  C   LIG    1       25.384 -32.436  12.098  0.00  0.00    +0.004 C 
ATOM     37  C   LIG    1       24.111 -32.553  12.951  0.00  0.00    +0.007 C 
ATOM     38  C   LIG    1       23.058 -31.549  12.503  0.00  0.00    +0.025 C 
ATOM     39  C   LIG    1       21.641 -31.615  13.075  0.00  0.00    +0.075 C 
ATOM     40  C   LIG    1       21.551 -31.366  14.607  0.00  0.00    +0.004 C 
ATOM     41  C   LIG    1       21.954 -32.599  15.495  0.00  0.00    +0.014 C 
ATOM     42  C   LIG    1       19.992 -31.242  14.786  0.00  0.00    +0.027 C 
ATOM     43  C   LIG    1       19.481 -32.357  13.788  0.00  0.00    +0.011 C 
ATOM     44  C   LIG    1       22.493 -30.222  15.045  0.00  0.00    +0.010 C 
ATOM     45  C   LIG    1       23.031 -29.325  13.926  0.00  0.00    +0.005 C 
ATOM     46  C   LIG    1       20.686 -32.782  12.887  0.00  0.00    +0.036 C 
ATOM     47  C   LIG    1       23.582 -30.065  12.670  0.00  0.00    +0.001 C 
ATOM     48  C   LIG    1       25.117 -29.882  12.351  0.00  0.00    -0.026 C 
ATOM     49  C   LIG    1       26.006 -29.845  13.617  0.00  0.00    +0.012 C 
ATOM     50  C   LIG    1       25.306 -28.531  11.580  0.00  0.00    +0.009 C 
ATOM     51  C   LIG    1       26.642 -28.399  10.833  0.00  0.00    +0.032 C 
BRANCH  42  52
ATOM     52  C   LIG    1       19.356 -29.875  14.609  0.00  0.00    -0.022 C 
ATOM     53  C   LIG    1       17.997 -29.725  14.049  0.00  0.00    +0.264 C 
ATOM     54  O   LIG    1       17.731 -28.291  14.146  0.00  0.00    -0.457 OA
ATOM     55  C   LIG    1       18.790 -27.620  14.611  0.00  0.00    +0.332 C 
ATOM     56  O   LIG    1       18.875 -26.456  14.839  0.00  0.00    -0.246 OA
ATOM     57  C   LIG    1       19.845 -28.654  14.856  0.00  0.00    +0.094 C 
ENDBRANCH  42  52
BRANCH  39  58
ATOM     58  O   LIG    1       20.977 -30.561  12.330  0.00  0.00    -0.388 OA
ATOM     59  H   LIG    1       21.550 -30.309  11.582  0.00  0.00    +0.210 HD
ENDBRANCH  39  58
ENDBRANCH  32  33
ENDBRANCH   4  32
TORSDOF 12
ENDMDL
MODEL 8
REMARK VINA RESULT:      -4.6      4.256      6.330
REMARK  Name = *****
REMARK                            x       y       z     vdW  Elec       q    Type
REMARK                         _______ _______ _______ _____ _____    ______ ____
ROOT
ATOM      1  C   LIG    1       25.926 -26.068   5.356  0.00  0.00    +0.178 C 
ATOM      2  C   LIG    1       25.528 -26.525   6.775  0.00  0.00    +0.151 C 
ATOM      3  C   LIG    1       24.274 -27.362   6.720  0.00  0.00    +0.095 C 
ATOM      4  C   LIG    1       24.386 -28.427   5.637  0.00  0.00    +0.253 C 
ATOM      5  O   LIG    1       25.658 -28.504   5.010  0.00  0.00    -0.346 OA
ATOM      6  C   LIG    1       26.259 -27.314   4.524  0.00  0.00    +0.150 C 
ATOM      7  C   LIG    1       27.771 -27.534   4.524  0.00  0.00    +0.040 C 
ENDROOT
BRANCH   2   8
ATOM      8  O   LIG    1       25.274 -25.443   7.679  0.00  0.00    -0.389 OA
ATOM      9  H   LIG    1       24.376 -25.560   8.044  0.00  0.00    +0.210 HD
ENDBRANCH   2   8
BRANCH   1  10
ATOM     10  O   LIG    1       24.854 -25.335   4.735  0.00  0.00    -0.343 OA
BRANCH  10  14
ATOM     11  C   LIG    1       23.941 -22.263   7.361  0.00  0.00    +0.178 C 
ATOM     12  C   LIG    1       23.170 -23.532   6.932  0.00  0.00    +0.151 C 
ATOM     13  C   LIG    1       23.324 -23.657   5.425  0.00  0.00    +0.095 C 
ATOM     14  C   LIG    1       24.790 -23.951   5.131  0.00  0.00    +0.254 C 
ATOM     15  O   LIG    1       25.650 -23.728   6.246  0.00  0.00    -0.346 OA
ATOM     16  C   LIG    1       25.435 -22.504   6.973  0.00  0.00    +0.150 C 
ATOM     17  C   LIG    1       26.326 -22.619   8.205  0.00  0.00    +0.040 C 
BRANCH  12  18
ATOM     18  O   LIG    1       21.822 -23.561   7.375  0.00  0.00    -0.389 OA
ATOM     19  H   LIG    1       21.793 -24.095   8.195  0.00  0.00    +0.210 HD
ENDBRANCH  12  18
BRANCH  11  20
ATOM     20  O   LIG    1       23.584 -21.062   6.634  0.00  0.00    -0.343 OA
BRANCH  20  26
ATOM     21  C   LIG    1       27.627 -19.218   5.082  0.00  0.00    +0.040 C 
ATOM     22  C   LIG    1       26.265 -19.691   4.586  0.00  0.00    +0.149 C 
ATOM     23  C   LIG    1       25.487 -18.569   3.891  0.00  0.00    +0.171 C 
ATOM     24  C   LIG    1       24.094 -19.087   3.504  0.00  0.00    +0.150 C 
ATOM     25  C   LIG    1       23.396 -19.728   4.697  0.00  0.00    +0.095 C 
ATOM     26  C   LIG    1       24.295 -20.739   5.434  0.00  0.00    +0.254 C 
ATOM     27  O   LIG    1       25.531 -20.107   5.742  0.00  0.00    -0.346 OA
BRANCH  23  28
ATOM     28  O   LIG    1       26.166 -18.093   2.730  0.00  0.00    -0.387 OA
ATOM     29  H   LIG    1       26.902 -18.719   2.575  0.00  0.00    +0.210 HD
ENDBRANCH  23  28
BRANCH  24  30
ATOM     30  O   LIG    1       24.240 -20.045   2.446  0.00  0.00    -0.389 OA
ATOM     31  H   LIG    1       24.799 -20.768   2.786  0.00  0.00    +0.210 HD
ENDBRANCH  24  30
ENDBRANCH  20  26
ENDBRANCH  11  20
ENDBRANCH  10  14
ENDBRANCH   1  10
BRANCH   4  32
ATOM     32  O   LIG    1       24.033 -29.718   6.154  0.00  0.00    -0.348 OA
BRANCH  32  33
ATOM     33  C   LIG    1       25.110 -30.599   6.542  0.00  0.00    +0.122 C 
ATOM     34  C   LIG    1       24.673 -32.026   6.911  0.00  0.00    +0.035 C 
ATOM     35  C   LIG    1       23.590 -31.964   7.998  0.00  0.00    -0.002 C 
ATOM     36  C   LIG    1       22.900 -33.320   8.221  0.00  0.00    +0.004 C 
ATOM     37  C   LIG    1       22.011 -33.341   9.474  0.00  0.00    +0.007 C 
ATOM     38  C   LIG    1       21.581 -31.933   9.864  0.00  0.00    +0.025 C 
ATOM     39  C   LIG    1       20.534 -31.726  10.960  0.00  0.00    +0.075 C 
ATOM     40  C   LIG    1       20.964 -32.227  12.367  0.00  0.00    +0.004 C 
ATOM     41  C   LIG    1       20.851 -33.781  12.570  0.00  0.00    +0.014 C 
ATOM     42  C   LIG    1       19.808 -31.626  13.251  0.00  0.00    +0.027 C 
ATOM     43  C   LIG    1       18.559 -31.842  12.305  0.00  0.00    +0.011 C 
ATOM     44  C   LIG    1       22.443 -31.884  12.657  0.00  0.00    +0.010 C 
ATOM     45  C   LIG    1       23.086 -30.840  11.739  0.00  0.00    +0.005 C 
ATOM     46  C   LIG    1       19.093 -32.202  10.880  0.00  0.00    +0.036 C 
ATOM     47  C   LIG    1       22.836 -31.034  10.212  0.00  0.00    +0.001 C 
ATOM     48  C   LIG    1       24.102 -31.314   9.313  0.00  0.00    -0.026 C 
ATOM     49  C   LIG    1       25.150 -32.226   9.995  0.00  0.00    +0.012 C 
ATOM     50  C   LIG    1       24.787 -29.945   8.979  0.00  0.00    +0.009 C 
ATOM     51  C   LIG    1       25.761 -29.987   7.791  0.00  0.00    +0.032 C 
BRANCH  42  52
ATOM     52  C   LIG    1       19.975 -30.218  13.791  0.00  0.00    -0.022 C 
ATOM     53  C   LIG    1       21.125 -29.852  14.644  0.00  0.00    +0.264 C 
ATOM     54  O   LIG    1       20.965 -28.415  14.854  0.00  0.00    -0.457 OA
ATOM     55  C   LIG    1       19.841 -27.953  14.298  0.00  0.00    +0.332 C 
ATOM     56  O   LIG    1       19.452 -26.830  14.262  0.00  0.00    -0.246 OA
ATOM     57  C   LIG    1       19.191 -29.142  13.660  0.00  0.00    +0.094 C 
ENDBRANCH  42  52
BRANCH  39  58
ATOM     58  O   LIG    1       20.375 -30.283  10.940  0.00  0.00    -0.388 OA
ATOM     59  H   LIG    1       19.605 -30.053  11.492  0.00  0.00    +0.210 HD
ENDBRANCH  39  58
ENDBRANCH  32  33
ENDBRANCH   4  32
TORSDOF 12
ENDMDL
MODEL 9
REMARK VINA RESULT:      -4.5      3.818      5.040
REMARK  Name = *****
REMARK                            x       y       z     vdW  Elec       q    Type
REMARK                         _______ _______ _______ _____ _____    ______ ____
ROOT
ATOM      1  C   LIG    1       24.582 -22.426   6.855  0.00  0.00    +0.178 C 
ATOM      2  C   LIG    1       23.376 -23.304   7.251  0.00  0.00    +0.151 C 
ATOM      3  C   LIG    1       23.262 -24.484   6.318  0.00  0.00    +0.095 C 
ATOM      4  C   LIG    1       24.611 -25.167   6.148  0.00  0.00    +0.253 C 
ATOM      5  O   LIG    1       25.643 -24.658   6.981  0.00  0.00    -0.346 OA
ATOM      6  C   LIG    1       25.861 -23.256   7.029  0.00  0.00    +0.150 C 
ATOM      7  C   LIG    1       26.491 -22.940   8.384  0.00  0.00    +0.040 C 
ENDROOT
BRANCH   2   8
ATOM      8  O   LIG    1       22.122 -22.612   7.214  0.00  0.00    -0.389 OA
ATOM      9  H   LIG    1       22.237 -21.754   7.667  0.00  0.00    +0.210 HD
ENDBRANCH   2   8
BRANCH   1  10
ATOM     10  O   LIG    1       24.466 -21.983   5.491  0.00  0.00    -0.343 OA
BRANCH  10  14
ATOM     11  C   LIG    1       23.553 -18.570   3.325  0.00  0.00    +0.178 C 
ATOM     12  C   LIG    1       24.590 -19.696   3.109  0.00  0.00    +0.151 C 
ATOM     13  C   LIG    1       25.222 -19.982   4.462  0.00  0.00    +0.095 C 
ATOM     14  C   LIG    1       24.147 -20.584   5.359  0.00  0.00    +0.254 C 
ATOM     15  O   LIG    1       22.827 -20.436   4.842  0.00  0.00    -0.346 OA
ATOM     16  C   LIG    1       22.494 -19.134   4.326  0.00  0.00    +0.150 C 
ATOM     17  C   LIG    1       21.131 -19.311   3.664  0.00  0.00    +0.040 C 
BRANCH  12  18
ATOM     18  O   LIG    1       25.532 -19.420   2.084  0.00  0.00    -0.389 OA
ATOM     19  H   LIG    1       26.132 -20.190   2.021  0.00  0.00    +0.210 HD
ENDBRANCH  12  18
BRANCH  11  20
ATOM     20  O   LIG    1       24.068 -17.392   3.993  0.00  0.00    -0.343 OA
BRANCH  20  26
ATOM     21  C   LIG    1       28.732 -17.032   4.512  0.00  0.00    +0.040 C 
ATOM     22  C   LIG    1       27.566 -16.408   3.754  0.00  0.00    +0.149 C 
ATOM     23  C   LIG    1       27.417 -14.914   4.061  0.00  0.00    +0.171 C 
ATOM     24  C   LIG    1       26.172 -14.374   3.343  0.00  0.00    +0.150 C 
ATOM     25  C   LIG    1       24.949 -15.231   3.644  0.00  0.00    +0.095 C 
ATOM     26  C   LIG    1       25.221 -16.736   3.454  0.00  0.00    +0.254 C 
ATOM     27  O   LIG    1       26.384 -17.085   4.194  0.00  0.00    -0.346 OA
BRANCH  23  28
ATOM     28  O   LIG    1       28.568 -14.173   3.658  0.00  0.00    -0.387 OA
ATOM     29  H   LIG    1       28.957 -14.669   2.910  0.00  0.00    +0.210 HD
ENDBRANCH  23  28
BRANCH  24  30
ATOM     30  O   LIG    1       26.428 -14.362   1.931  0.00  0.00    -0.389 OA
ATOM     31  H   LIG    1       25.744 -13.803   1.517  0.00  0.00    +0.210 HD
ENDBRANCH  24  30
ENDBRANCH  20  26
ENDBRANCH  11  20
ENDBRANCH  10  14
ENDBRANCH   1  10
BRANCH   4  32
ATOM     32  O   LIG    1       24.494 -26.583   6.350  0.00  0.00    -0.348 OA
BRANCH  32  33
ATOM     33  C   LIG    1       25.622 -27.406   5.983  0.00  0.00    +0.122 C 
ATOM     34  C   LIG    1       25.290 -28.890   5.756  0.00  0.00    +0.035 C 
ATOM     35  C   LIG    1       24.576 -29.450   6.994  0.00  0.00    -0.002 C 
ATOM     36  C   LIG    1       23.959 -30.836   6.743  0.00  0.00    +0.004 C 
ATOM     37  C   LIG    1       23.478 -31.521   8.033  0.00  0.00    +0.007 C 
ATOM     38  C   LIG    1       23.205 -30.496   9.127  0.00  0.00    +0.025 C 
ATOM     39  C   LIG    1       22.531 -30.927  10.430  0.00  0.00    +0.075 C 
ATOM     40  C   LIG    1       23.348 -31.945  11.274  0.00  0.00    +0.004 C 
ATOM     41  C   LIG    1       23.273 -33.429  10.761  0.00  0.00    +0.014 C 
ATOM     42  C   LIG    1       22.512 -31.945  12.609  0.00  0.00    +0.027 C 
ATOM     43  C   LIG    1       21.037 -31.868  12.045  0.00  0.00    +0.011 C 
ATOM     44  C   LIG    1       24.851 -31.590  11.280  0.00  0.00    +0.010 C 
ATOM     45  C   LIG    1       25.213 -30.177  10.812  0.00  0.00    +0.005 C 
ATOM     46  C   LIG    1       21.123 -31.489  10.530  0.00  0.00    +0.036 C 
ATOM     47  C   LIG    1       24.522 -29.701   9.499  0.00  0.00    +0.001 C 
ATOM     48  C   LIG    1       25.462 -29.396   8.269  0.00  0.00    -0.026 C 
ATOM     49  C   LIG    1       26.649 -30.381   8.145  0.00  0.00    +0.012 C 
ATOM     50  C   LIG    1       26.041 -27.949   8.433  0.00  0.00    +0.009 C 
ATOM     51  C   LIG    1       26.622 -27.340   7.148  0.00  0.00    +0.032 C 
BRANCH  42  52
ATOM     52  C   LIG    1       22.855 -30.915  13.670  0.00  0.00    -0.022 C 
ATOM     53  C   LIG    1       24.025 -31.083  14.556  0.00  0.00    +0.264 C 
ATOM     54  O   LIG    1       24.054 -29.849  15.339  0.00  0.00    -0.457 OA
ATOM     55  C   LIG    1       23.012 -29.059  15.060  0.00  0.00    +0.332 C 
ATOM     56  O   LIG    1       22.777 -27.980  15.499  0.00  0.00    -0.246 OA
ATOM     57  C   LIG    1       22.223 -29.788  14.017  0.00  0.00    +0.094 C 
ENDBRANCH  42  52
BRANCH  39  58
ATOM     58  O   LIG    1       22.397 -29.657  11.120  0.00  0.00    -0.388 OA
ATOM     59  H   LIG    1       21.448 -29.495  11.280  0.00  0.00    +0.210 HD
ENDBRANCH  39  58
ENDBRANCH  32  33
ENDBRANCH   4  32
TORSDOF 12
ENDMDL
