MODEL 1
REMARK VINA RESULT:       0.5      0.000      0.000
REMARK  Name = *****
REMARK                            x       y       z     vdW  Elec       q    Type
REMARK                         _______ _______ _______ _____ _____    ______ ____
ROOT
ATOM      1  C   LIG    1       24.740 -19.794   4.159  0.00  0.00    -0.021 C 
ATOM      2  C   LIG    1       25.646 -18.918   3.306  0.00  0.00    +0.104 C 
ATOM      3  S   LIG    1       25.335 -17.139   3.512  0.00  0.00    -0.131 S 
ATOM      4  C   LIG    1       23.549 -17.301   3.225  0.00  0.00    +0.169 C 
ATOM      5  N   LIG    1       23.004 -18.168   4.261  0.00  0.00    -0.249 N 
ATOM      6  C   LIG    1       22.384 -17.181   4.943  0.00  0.00    +0.244 C 
ATOM      7  O   LIG    1       21.881 -17.187   6.052  0.00  0.00    -0.273 OA
ATOM      8  CA  LIG    1       22.650 -16.169   3.817  0.00  0.00    +0.191 C 
ATOM      9  CA  LIG    1       23.532 -19.382   4.639  0.00  0.00    +0.123 C 
ENDROOT
BRANCH   8  10
ATOM     10  N   LIG    1       23.320 -14.892   4.194  0.00  0.00    -0.299 N 
ATOM     11  H   LIG    1       23.956 -14.883   4.986  0.00  0.00    +0.150 HD
ATOM     12  C   LIG    1       23.497 -13.915   3.237  0.00  0.00    +0.247 C 
ATOM     13  O   LIG    1       23.075 -14.052   2.088  0.00  0.00    -0.273 OA
BRANCH  12  14
ATOM     14  C   LIG    1       24.210 -12.628   3.702  0.00  0.00    +0.230 C 
BRANCH  14  15
ATOM     15  C   LIG    1       25.688 -12.855   3.939  0.00  0.00    -0.010 A 
ATOM     16  C   LIG    1       26.574 -12.992   2.858  0.00  0.00    +0.006 A 
ATOM     17  C   LIG    1       27.940 -13.189   3.082  0.00  0.00    +0.000 A 
ATOM     18  C   LIG    1       28.438 -13.249   4.382  0.00  0.00    +0.000 A 
ATOM     19  C   LIG    1       27.573 -13.111   5.462  0.00  0.00    +0.000 A 
ATOM     20  C   LIG    1       26.211 -12.913   5.243  0.00  0.00    +0.006 A 
ENDBRANCH  14  15
BRANCH  14  21
ATOM     21  O   LIG    1       24.030 -11.602   2.722  0.00  0.00    -0.378 OA
ATOM     22  H   LIG    1       24.388 -11.969   1.892  0.00  0.00    +0.211 HD
ENDBRANCH  14  21
ENDBRANCH  12  14
ENDBRANCH   8  10
BRANCH   9  23
ATOM     23  C   LIG    1       22.739 -20.290   5.560  0.00  0.00    +0.351 C 
ATOM     24  O   LIG    1       22.764 -20.215   6.781  0.00  0.00    -0.244 OA
BRANCH  23  25
ATOM     25  OXT LIG    1       21.996 -21.241   4.973  0.00  0.00    -0.476 OA
ATOM     26  HXT LIG    1       21.612 -21.036   4.096  0.00  0.00    +0.295 HD
ENDBRANCH  23  25
ENDBRANCH   9  23
BRANCH   1  27
ATOM     27  C   LIG    1       25.398 -21.120   4.534  0.00  0.00    +0.111 C 
BRANCH  27  28
ATOM     28  S   LIG    1       25.650 -21.243   6.335  0.00  0.00    -0.080 S 
BRANCH  28  31
ATOM     29  C   LIG    1       27.418 -18.786   4.945  0.00  0.00    +0.177 C 
ATOM     30  N   LIG    1       27.949 -19.825   5.780  0.00  0.00    -0.223 N 
ATOM     31  C   LIG    1       27.340 -20.881   6.396  0.00  0.00    +0.209 A 
ATOM     32  N   LIG    1       28.247 -21.558   7.062  0.00  0.00    -0.102 NA
ATOM     33  N   LIG    1       29.432 -20.891   6.868  0.00  0.00    -0.022 NA
ATOM     34  N   LIG    1       29.261 -19.830   6.089  0.00  0.00    -0.043 NA
ENDBRANCH  28  31
ENDBRANCH  27  28
ENDBRANCH   1  27
TORSDOF 9
ENDMDL
MODEL 2
REMARK VINA RESULT:       2.2      3.166      8.000
REMARK  Name = *****
REMARK                            x       y       z     vdW  Elec       q    Type
REMARK                         _______ _______ _______ _____ _____    ______ ____
ROOT
ATOM      1  C   LIG    1       26.557 -14.015   2.737  0.00  0.00    -0.021 C 
ATOM      2  C   LIG    1       25.579 -15.072   2.244  0.00  0.00    +0.104 C 
ATOM      3  S   LIG    1       25.582 -16.584   3.252  0.00  0.00    -0.131 S 
ATOM      4  C   LIG    1       27.386 -16.778   3.163  0.00  0.00    +0.169 C 
ATOM      5  N   LIG    1       27.994 -15.604   3.774  0.00  0.00    -0.249 N 
ATOM      6  C   LIG    1       28.398 -16.237   4.896  0.00  0.00    +0.244 C 
ATOM      7  O   LIG    1       28.820 -15.785   5.945  0.00  0.00    -0.273 OA
ATOM      8  CA  LIG    1       28.047 -17.612   4.307  0.00  0.00    +0.191 C 
ATOM      9  CA  LIG    1       27.646 -14.299   3.505  0.00  0.00    +0.123 C 
ENDROOT
BRANCH   8  10
ATOM     10  N   LIG    1       27.155 -18.491   5.114  0.00  0.00    -0.299 N 
ATOM     11  H   LIG    1       26.209 -18.668   4.788  0.00  0.00    +0.150 HD
ATOM     12  C   LIG    1       27.714 -19.432   5.952  0.00  0.00    +0.247 C 
ATOM     13  O   LIG    1       28.934 -19.535   6.086  0.00  0.00    -0.273 OA
BRANCH  12  14
ATOM     14  C   LIG    1       26.724 -20.312   6.744  0.00  0.00    +0.230 C 
BRANCH  14  15
ATOM     15  C   LIG    1       25.435 -20.538   5.982  0.00  0.00    -0.010 A 
ATOM     16  C   LIG    1       25.443 -20.676   4.585  0.00  0.00    +0.006 A 
ATOM     17  C   LIG    1       24.252 -20.898   3.888  0.00  0.00    +0.000 A 
ATOM     18  C   LIG    1       23.042 -20.986   4.573  0.00  0.00    +0.000 A 
ATOM     19  C   LIG    1       23.019 -20.856   5.958  0.00  0.00    +0.000 A 
ATOM     20  C   LIG    1       24.205 -20.636   6.656  0.00  0.00    +0.006 A 
ENDBRANCH  14  15
BRANCH  14  21
ATOM     21  O   LIG    1       27.336 -21.570   7.041  0.00  0.00    -0.378 OA
ATOM     22  H   LIG    1       26.635 -22.238   6.918  0.00  0.00    +0.211 HD
ENDBRANCH  14  21
ENDBRANCH  12  14
ENDBRANCH   8  10
BRANCH   9  23
ATOM     23  C   LIG    1       28.514 -13.170   4.030  0.00  0.00    +0.351 C 
ATOM     24  O   LIG    1       28.378 -12.660   5.133  0.00  0.00    -0.244 OA
BRANCH  23  25
ATOM     25  OXT LIG    1       29.460 -12.703   3.200  0.00  0.00    -0.476 OA
ATOM     26  HXT LIG    1       30.118 -12.080   3.572  0.00  0.00    +0.295 HD
ENDBRANCH  23  25
ENDBRANCH   9  23
BRANCH   1  27
ATOM     27  C   LIG    1       26.100 -12.597   2.399  0.00  0.00    +0.111 C 
BRANCH  27  28
ATOM     28  S   LIG    1       24.299 -12.534   2.128  0.00  0.00    -0.080 S 
BRANCH  28  31
ATOM     29  C   LIG    1       24.735 -11.967   5.381  0.00  0.00    +0.177 C 
ATOM     30  N   LIG    1       24.025 -13.080   4.816  0.00  0.00    -0.223 N 
ATOM     31  C   LIG    1       23.785 -13.425   3.517  0.00  0.00    +0.209 A 
ATOM     32  N   LIG    1       23.079 -14.532   3.501  0.00  0.00    -0.102 NA
ATOM     33  N   LIG    1       22.863 -14.859   4.819  0.00  0.00    -0.022 NA
ATOM     34  N   LIG    1       23.434 -13.978   5.629  0.00  0.00    -0.043 NA
ENDBRANCH  28  31
ENDBRANCH  27  28
ENDBRANCH   1  27
TORSDOF 9
ENDMDL
