MODEL 1
REMARK VINA RESULT:      -6.9      0.000      0.000
REMARK  Name = *****
REMARK                            x       y       z     vdW  Elec       q    Type
REMARK                         _______ _______ _______ _____ _____    ______ ____
ROOT
ATOM      1  O   LIG    1       27.560 -20.470   7.312  0.00  0.00    -0.340 OA
ENDROOT
BRANCH   1   6
ATOM      2  C   LIG    1       30.935 -21.330   8.360  0.00  0.00    +0.178 C 
ATOM      3  C   LIG    1       31.416 -19.917   8.702  0.00  0.00    +0.177 C 
ATOM      4  C   LIG    1       31.007 -18.969   7.571  0.00  0.00    +0.179 C 
ATOM      5  C   LIG    1       29.497 -19.030   7.310  0.00  0.00    +0.201 C 
ATOM      6  C   LIG    1       28.996 -20.492   7.239  0.00  0.00    +0.282 C 
ATOM      7  O   LIG    1       29.494 -21.299   8.304  0.00  0.00    -0.341 OA
BRANCH   3   8
ATOM      8  O   LIG    1       30.802 -19.440   9.916  0.00  0.00    -0.387 OA
ATOM      9  H   LIG    1       30.860 -20.165  10.571  0.00  0.00    +0.210 HD
ENDBRANCH   3   8
BRANCH   4  10
ATOM     10  O   LIG    1       31.352 -17.615   7.905  0.00  0.00    -0.386 OA
ATOM     11  H   LIG    1       30.501 -17.138   7.992  0.00  0.00    +0.210 HD
ENDBRANCH   4  10
BRANCH   5  12
ATOM     12  O   LIG    1       29.218 -18.346   6.074  0.00  0.00    -0.384 OA
ATOM     13  H   LIG    1       29.734 -18.813   5.388  0.00  0.00    +0.210 HD
ENDBRANCH   5  12
BRANCH   2  14
ATOM     14  C   LIG    1       31.347 -22.360   9.408  0.00  0.00    +0.190 C 
BRANCH  14  15
ATOM     15  O   LIG    1       30.647 -22.152  10.625  0.00  0.00    -0.392 OA
ATOM     16  H   LIG    1       29.696 -22.179  10.414  0.00  0.00    +0.209 HD
ENDBRANCH  14  15
ENDBRANCH   2  14
ENDBRANCH   1   6
BRANCH   1  17
ATOM     17  C   LIG    1       26.885 -21.214   6.270  0.00  0.00    +0.183 C 
ATOM     18  C   LIG    1       26.325 -22.501   6.931  0.00  0.00    +0.179 C 
ATOM     19  C   LIG    1       25.196 -22.159   7.912  0.00  0.00    +0.201 C 
ATOM     20  C   LIG    1       24.149 -21.247   7.244  0.00  0.00    +0.279 C 
ATOM     21  O   LIG    1       24.731 -20.094   6.652  0.00  0.00    -0.341 OA
ATOM     22  C   LIG    1       25.740 -20.379   5.665  0.00  0.00    +0.178 C 
BRANCH  18  23
ATOM     23  O   LIG    1       25.866 -23.406   5.925  0.00  0.00    -0.386 OA
ATOM     24  H   LIG    1       25.957 -22.961   5.061  0.00  0.00    +0.210 HD
ENDBRANCH  18  23
BRANCH  19  25
ATOM     25  O   LIG    1       25.714 -21.507   9.085  0.00  0.00    -0.384 OA
ATOM     26  H   LIG    1       25.126 -21.759   9.831  0.00  0.00    +0.210 HD
ENDBRANCH  19  25
BRANCH  20  27
ATOM     27  O   LIG    1       23.215 -20.806   8.222  0.00  0.00    -0.365 OA
ATOM     28  H   LIG    1       23.667 -20.952   9.075  0.00  0.00    +0.213 HD
ENDBRANCH  20  27
BRANCH  22  29
ATOM     29  C   LIG    1       25.124 -20.943   4.379  0.00  0.00    +0.190 C 
BRANCH  29  30
ATOM     30  O   LIG    1       25.369 -20.017   3.317  0.00  0.00    -0.392 OA
ATOM     31  H   LIG    1       26.291 -19.709   3.431  0.00  0.00    +0.209 HD
ENDBRANCH  29  30
ENDBRANCH  22  29
ENDBRANCH   1  17
TORSDOF 12
ENDMDL
MODEL 2
REMARK VINA RESULT:      -6.8      1.497      3.047
REMARK  Name = *****
REMARK                            x       y       z     vdW  Elec       q    Type
REMARK                         _______ _______ _______ _____ _____    ______ ____
ROOT
ATOM      1  O   LIG    1       25.929 -20.729   7.439  0.00  0.00    -0.340 OA
ENDROOT
BRANCH   1   6
ATOM      2  C   LIG    1       29.537 -21.110   7.699  0.00  0.00    +0.178 C 
ATOM      3  C   LIG    1       29.937 -19.827   6.967  0.00  0.00    +0.177 C 
ATOM      4  C   LIG    1       29.106 -19.707   5.687  0.00  0.00    +0.179 C 
ATOM      5  C   LIG    1       27.603 -19.768   5.990  0.00  0.00    +0.201 C 
ATOM      6  C   LIG    1       27.269 -20.926   6.959  0.00  0.00    +0.282 C 
ATOM      7  O   LIG    1       28.151 -20.982   8.079  0.00  0.00    -0.341 OA
BRANCH   3   8
ATOM      8  O   LIG    1       29.666 -18.663   7.775  0.00  0.00    -0.387 OA
ATOM      9  H   LIG    1       29.873 -17.879   7.226  0.00  0.00    +0.210 HD
ENDBRANCH   3   8
BRANCH   4  10
ATOM     10  O   LIG    1       29.382 -18.462   5.026  0.00  0.00    -0.386 OA
ATOM     11  H   LIG    1       30.226 -18.141   5.406  0.00  0.00    +0.210 HD
ENDBRANCH   4  10
BRANCH   5  12
ATOM     12  O   LIG    1       26.892 -19.934   4.749  0.00  0.00    -0.384 OA
ATOM     13  H   LIG    1       25.974 -20.164   4.996  0.00  0.00    +0.210 HD
ENDBRANCH   5  12
BRANCH   2  14
ATOM     14  C   LIG    1       30.356 -21.344   8.965  0.00  0.00    +0.190 C 
BRANCH  14  15
ATOM     15  O   LIG    1       31.578 -20.625   8.918  0.00  0.00    -0.392 OA
ATOM     16  H   LIG    1       31.841 -20.450   9.840  0.00  0.00    +0.209 HD
ENDBRANCH  14  15
ENDBRANCH   2  14
ENDBRANCH   1   6
BRANCH   1  17
ATOM     17  C   LIG    1       25.130 -21.933   7.531  0.00  0.00    +0.183 C 
ATOM     18  C   LIG    1       23.656 -21.509   7.298  0.00  0.00    +0.179 C 
ATOM     19  C   LIG    1       23.446 -21.052   5.849  0.00  0.00    +0.201 C 
ATOM     20  C   LIG    1       23.998 -22.097   4.861  0.00  0.00    +0.279 C 
ATOM     21  O   LIG    1       25.347 -22.446   5.137  0.00  0.00    -0.341 OA
ATOM     22  C   LIG    1       25.568 -22.956   6.466  0.00  0.00    +0.178 C 
BRANCH  18  23
ATOM     23  O   LIG    1       22.780 -22.590   7.622  0.00  0.00    -0.386 OA
ATOM     24  H   LIG    1       22.586 -22.540   8.577  0.00  0.00    +0.210 HD
ENDBRANCH  18  23
BRANCH  19  25
ATOM     25  O   LIG    1       24.087 -19.787   5.609  0.00  0.00    -0.384 OA
ATOM     26  H   LIG    1       24.751 -19.667   6.323  0.00  0.00    +0.210 HD
ENDBRANCH  19  25
BRANCH  20  27
ATOM     27  O   LIG    1       23.950 -21.571   3.541  0.00  0.00    -0.365 OA
ATOM     28  H   LIG    1       24.566 -22.132   3.031  0.00  0.00    +0.213 HD
ENDBRANCH  20  27
BRANCH  22  29
ATOM     29  C   LIG    1       24.987 -24.365   6.630  0.00  0.00    +0.190 C 
BRANCH  29  30
ATOM     30  O   LIG    1       25.571 -25.214   5.638  0.00  0.00    -0.392 OA
ATOM     31  H   LIG    1       25.978 -25.961   6.122  0.00  0.00    +0.209 HD
ENDBRANCH  29  30
ENDBRANCH  22  29
ENDBRANCH   1  17
TORSDOF 12
ENDMDL
MODEL 3
REMARK VINA RESULT:      -6.2      0.996      2.711
REMARK  Name = *****
REMARK                            x       y       z     vdW  Elec       q    Type
REMARK                         _______ _______ _______ _____ _____    ______ ____
ROOT
ATOM      1  O   LIG    1       27.614 -20.304   6.044  0.00  0.00    -0.340 OA
ENDROOT
BRANCH   1   6
ATOM      2  C   LIG    1       30.487 -21.260   8.058  0.00  0.00    +0.178 C 
ATOM      3  C   LIG    1       30.892 -19.860   8.525  0.00  0.00    +0.177 C 
ATOM      4  C   LIG    1       30.875 -18.913   7.322  0.00  0.00    +0.179 C 
ATOM      5  C   LIG    1       29.512 -18.928   6.619  0.00  0.00    +0.201 C 
ATOM      6  C   LIG    1       29.003 -20.373   6.405  0.00  0.00    +0.282 C 
ATOM      7  O   LIG    1       29.131 -21.183   7.572  0.00  0.00    -0.341 OA
BRANCH   3   8
ATOM      8  O   LIG    1       29.959 -19.348   9.498  0.00  0.00    -0.387 OA
ATOM      9  H   LIG    1       29.102 -19.790   9.333  0.00  0.00    +0.210 HD
ENDBRANCH   3   8
BRANCH   4  10
ATOM     10  O   LIG    1       31.151 -17.567   7.741  0.00  0.00    -0.386 OA
ATOM     11  H   LIG    1       31.557 -17.125   6.966  0.00  0.00    +0.210 HD
ENDBRANCH   4  10
BRANCH   5  12
ATOM     12  O   LIG    1       29.640 -18.250   5.356  0.00  0.00    -0.384 OA
ATOM     13  H   LIG    1       30.514 -17.814   5.374  0.00  0.00    +0.210 HD
ENDBRANCH   5  12
BRANCH   2  14
ATOM     14  C   LIG    1       30.529 -22.290   9.184  0.00  0.00    +0.190 C 
BRANCH  14  15
ATOM     15  O   LIG    1       31.616 -22.037  10.061  0.00  0.00    -0.392 OA
ATOM     16  H   LIG    1       31.274 -21.481  10.784  0.00  0.00    +0.209 HD
ENDBRANCH  14  15
ENDBRANCH   2  14
ENDBRANCH   1   6
BRANCH   1  17
ATOM     17  C   LIG    1       26.690 -20.657   7.101  0.00  0.00    +0.183 C 
ATOM     18  C   LIG    1       25.274 -20.254   6.610  0.00  0.00    +0.179 C 
ATOM     19  C   LIG    1       24.833 -21.142   5.440  0.00  0.00    +0.201 C 
ATOM     20  C   LIG    1       25.014 -22.632   5.787  0.00  0.00    +0.279 C 
ATOM     21  O   LIG    1       26.328 -22.929   6.237  0.00  0.00    -0.341 OA
ATOM     22  C   LIG    1       26.747 -22.170   7.387  0.00  0.00    +0.178 C 
BRANCH  18  23
ATOM     23  O   LIG    1       24.342 -20.335   7.690  0.00  0.00    -0.386 OA
ATOM     24  H   LIG    1       24.174 -21.280   7.867  0.00  0.00    +0.210 HD
ENDBRANCH  18  23
BRANCH  19  25
ATOM     25  O   LIG    1       25.582 -20.837   4.251  0.00  0.00    -0.384 OA
ATOM     26  H   LIG    1       25.912 -21.692   3.897  0.00  0.00    +0.210 HD
ENDBRANCH  19  25
BRANCH  20  27
ATOM     27  O   LIG    1       24.766 -23.420   4.629  0.00  0.00    -0.365 OA
ATOM     28  H   LIG    1       25.407 -24.154   4.691  0.00  0.00    +0.213 HD
ENDBRANCH  20  27
BRANCH  22  29
ATOM     29  C   LIG    1       26.021 -22.627   8.657  0.00  0.00    +0.190 C 
BRANCH  29  30
ATOM     30  O   LIG    1       25.891 -21.504   9.533  0.00  0.00    -0.392 OA
ATOM     31  H   LIG    1       24.946 -21.461   9.784  0.00  0.00    +0.209 HD
ENDBRANCH  29  30
ENDBRANCH  22  29
ENDBRANCH   1  17
TORSDOF 12
ENDMDL
MODEL 4
REMARK VINA RESULT:      -6.0      1.628      6.522
REMARK  Name = *****
REMARK                            x       y       z     vdW  Elec       q    Type
REMARK                         _______ _______ _______ _____ _____    ______ ____
ROOT
ATOM      1  O   LIG    1       27.006 -19.765   7.647  0.00  0.00    -0.340 OA
ENDROOT
BRANCH   1   6
ATOM      2  C   LIG    1       24.816 -21.270   5.165  0.00  0.00    +0.178 C 
ATOM      3  C   LIG    1       23.547 -21.341   6.019  0.00  0.00    +0.177 C 
ATOM      4  C   LIG    1       23.909 -21.898   7.398  0.00  0.00    +0.179 C 
ATOM      5  C   LIG    1       25.019 -21.072   8.060  0.00  0.00    +0.201 C 
ATOM      6  C   LIG    1       26.175 -20.787   7.073  0.00  0.00    +0.282 C 
ATOM      7  O   LIG    1       25.717 -20.340   5.799  0.00  0.00    -0.341 OA
BRANCH   3   8
ATOM      8  O   LIG    1       22.979 -20.029   6.212  0.00  0.00    -0.387 OA
ATOM      9  H   LIG    1       23.704 -19.382   6.090  0.00  0.00    +0.210 HD
ENDBRANCH   3   8
BRANCH   4  10
ATOM     10  O   LIG    1       22.760 -21.882   8.261  0.00  0.00    -0.386 OA
ATOM     11  H   LIG    1       23.031 -21.372   9.053  0.00  0.00    +0.210 HD
ENDBRANCH   4  10
BRANCH   5  12
ATOM     12  O   LIG    1       25.506 -21.794   9.206  0.00  0.00    -0.384 OA
ATOM     13  H   LIG    1       25.728 -22.690   8.883  0.00  0.00    +0.210 HD
ENDBRANCH   5  12
BRANCH   2  14
ATOM     14  C   LIG    1       24.543 -20.777   3.747  0.00  0.00    +0.190 C 
BRANCH  14  15
ATOM     15  O   LIG    1       25.523 -19.834   3.342  0.00  0.00    -0.392 OA
ATOM     16  H   LIG    1       25.698 -19.258   4.108  0.00  0.00    +0.209 HD
ENDBRANCH  14  15
ENDBRANCH   2  14
ENDBRANCH   1   6
BRANCH   1  17
ATOM     17  C   LIG    1       28.290 -20.223   8.135  0.00  0.00    +0.183 C 
ATOM     18  C   LIG    1       28.908 -21.097   7.012  0.00  0.00    +0.179 C 
ATOM     19  C   LIG    1       29.276 -20.237   5.797  0.00  0.00    +0.201 C 
ATOM     20  C   LIG    1       30.115 -19.017   6.225  0.00  0.00    +0.279 C 
ATOM     21  O   LIG    1       29.495 -18.268   7.261  0.00  0.00    -0.341 OA
ATOM     22  C   LIG    1       29.208 -19.027   8.451  0.00  0.00    +0.178 C 
BRANCH  18  23
ATOM     23  O   LIG    1       30.054 -21.791   7.509  0.00  0.00    -0.386 OA
ATOM     24  H   LIG    1       29.878 -22.748   7.432  0.00  0.00    +0.210 HD
ENDBRANCH  18  23
BRANCH  19  25
ATOM     25  O   LIG    1       28.096 -19.784   5.110  0.00  0.00    -0.384 OA
ATOM     26  H   LIG    1       27.403 -20.464   5.258  0.00  0.00    +0.210 HD
ENDBRANCH  19  25
BRANCH  20  27
ATOM     27  O   LIG    1       30.289 -18.150   5.111  0.00  0.00    -0.365 OA
ATOM     28  H   LIG    1       30.232 -18.737   4.333  0.00  0.00    +0.213 HD
ENDBRANCH  20  27
BRANCH  22  29
ATOM     29  C   LIG    1       30.487 -19.366   9.223  0.00  0.00    +0.190 C 
BRANCH  29  30
ATOM     30  O   LIG    1       30.452 -18.686  10.480  0.00  0.00    -0.392 OA
ATOM     31  H   LIG    1       29.542 -18.796  10.825  0.00  0.00    +0.209 HD
ENDBRANCH  29  30
ENDBRANCH  22  29
ENDBRANCH   1  17
TORSDOF 12
ENDMDL
MODEL 5
REMARK VINA RESULT:      -5.9      3.171      6.494
REMARK  Name = *****
REMARK                            x       y       z     vdW  Elec       q    Type
REMARK                         _______ _______ _______ _____ _____    ______ ____
ROOT
ATOM      1  O   LIG    1       26.293 -23.693   7.096  0.00  0.00    -0.340 OA
ENDROOT
BRANCH   1   6
ATOM      2  C   LIG    1       25.390 -27.215   7.065  0.00  0.00    +0.178 C 
ATOM      3  C   LIG    1       25.701 -27.499   5.593  0.00  0.00    +0.177 C 
ATOM      4  C   LIG    1       25.104 -26.380   4.736  0.00  0.00    +0.179 C 
ATOM      5  C   LIG    1       25.605 -25.003   5.189  0.00  0.00    +0.201 C 
ATOM      6  C   LIG    1       25.527 -24.851   6.727  0.00  0.00    +0.282 C 
ATOM      7  O   LIG    1       26.049 -25.983   7.421  0.00  0.00    -0.341 OA
BRANCH   3   8
ATOM      8  O   LIG    1       27.123 -27.519   5.358  0.00  0.00    -0.387 OA
ATOM      9  H   LIG    1       27.253 -27.549   4.388  0.00  0.00    +0.210 HD
ENDBRANCH   3   8
BRANCH   4  10
ATOM     10  O   LIG    1       25.464 -26.559   3.357  0.00  0.00    -0.386 OA
ATOM     11  H   LIG    1       25.625 -25.659   3.006  0.00  0.00    +0.210 HD
ENDBRANCH   4  10
BRANCH   5  12
ATOM     12  O   LIG    1       24.809 -23.991   4.546  0.00  0.00    -0.384 OA
ATOM     13  H   LIG    1       25.422 -23.258   4.342  0.00  0.00    +0.210 HD
ENDBRANCH   5  12
BRANCH   2  14
ATOM     14  C   LIG    1       25.900 -28.312   7.996  0.00  0.00    +0.190 C 
BRANCH  14  15
ATOM     15  O   LIG    1       25.887 -29.574   7.346  0.00  0.00    -0.392 OA
ATOM     16  H   LIG    1       25.662 -29.411   6.412  0.00  0.00    +0.209 HD
ENDBRANCH  14  15
ENDBRANCH   2  14
ENDBRANCH   1   6
BRANCH   1  17
ATOM     17  C   LIG    1       25.519 -22.596   7.639  0.00  0.00    +0.183 C 
ATOM     18  C   LIG    1       26.520 -21.659   8.364  0.00  0.00    +0.179 C 
ATOM     19  C   LIG    1       27.449 -20.973   7.355  0.00  0.00    +0.201 C 
ATOM     20  C   LIG    1       26.635 -20.322   6.219  0.00  0.00    +0.279 C 
ATOM     21  O   LIG    1       25.734 -21.233   5.606  0.00  0.00    -0.341 OA
ATOM     22  C   LIG    1       24.792 -21.837   6.513  0.00  0.00    +0.178 C 
BRANCH  18  23
ATOM     23  O   LIG    1       25.808 -20.692   9.140  0.00  0.00    -0.386 OA
ATOM     24  H   LIG    1       25.643 -21.080  10.019  0.00  0.00    +0.210 HD
ENDBRANCH  18  23
BRANCH  19  25
ATOM     25  O   LIG    1       28.382 -21.911   6.793  0.00  0.00    -0.384 OA
ATOM     26  H   LIG    1       29.169 -21.394   6.513  0.00  0.00    +0.210 HD
ENDBRANCH  19  25
BRANCH  20  27
ATOM     27  O   LIG    1       27.523 -19.851   5.213  0.00  0.00    -0.365 OA
ATOM     28  H   LIG    1       27.088 -20.088   4.372  0.00  0.00    +0.213 HD
ENDBRANCH  20  27
BRANCH  22  29
ATOM     29  C   LIG    1       23.734 -20.830   6.976  0.00  0.00    +0.190 C 
BRANCH  29  30
ATOM     30  O   LIG    1       23.000 -21.409   8.057  0.00  0.00    -0.392 OA
ATOM     31  H   LIG    1       22.738 -22.305   7.761  0.00  0.00    +0.209 HD
ENDBRANCH  29  30
ENDBRANCH  22  29
ENDBRANCH   1  17
TORSDOF 12
ENDMDL
MODEL 6
REMARK VINA RESULT:      -5.7      1.749      4.055
REMARK  Name = *****
REMARK                            x       y       z     vdW  Elec       q    Type
REMARK                         _______ _______ _______ _____ _____    ______ ____
ROOT
ATOM      1  O   LIG    1       26.786 -21.654   6.276  0.00  0.00    -0.340 OA
ENDROOT
BRANCH   1   6
ATOM      2  C   LIG    1       28.923 -18.712   6.297  0.00  0.00    +0.178 C 
ATOM      3  C   LIG    1       30.076 -19.295   7.118  0.00  0.00    +0.177 C 
ATOM      4  C   LIG    1       29.498 -20.032   8.329  0.00  0.00    +0.179 C 
ATOM      5  C   LIG    1       28.482 -21.097   7.901  0.00  0.00    +0.201 C 
ATOM      6  C   LIG    1       27.487 -20.541   6.855  0.00  0.00    +0.282 C 
ATOM      7  O   LIG    1       28.132 -19.816   5.811  0.00  0.00    -0.341 OA
BRANCH   3   8
ATOM      8  O   LIG    1       30.832 -20.250   6.346  0.00  0.00    -0.387 OA
ATOM      9  H   LIG    1       30.205 -20.678   5.727  0.00  0.00    +0.210 HD
ENDBRANCH   3   8
BRANCH   4  10
ATOM     10  O   LIG    1       30.546 -20.679   9.068  0.00  0.00    -0.386 OA
ATOM     11  H   LIG    1       31.378 -20.459   8.598  0.00  0.00    +0.210 HD
ENDBRANCH   4  10
BRANCH   5  12
ATOM     12  O   LIG    1       27.776 -21.553   9.070  0.00  0.00    -0.384 OA
ATOM     13  H   LIG    1       27.912 -22.521   9.104  0.00  0.00    +0.210 HD
ENDBRANCH   5  12
BRANCH   2  14
ATOM     14  C   LIG    1       29.407 -17.908   5.093  0.00  0.00    +0.190 C 
BRANCH  14  15
ATOM     15  O   LIG    1       28.317 -17.523   4.270  0.00  0.00    -0.392 OA
ATOM     16  H   LIG    1       27.554 -18.068   4.535  0.00  0.00    +0.209 HD
ENDBRANCH  14  15
ENDBRANCH   2  14
ENDBRANCH   1   6
BRANCH   1  17
ATOM     17  C   LIG    1       25.426 -21.829   6.742  0.00  0.00    +0.183 C 
ATOM     18  C   LIG    1       24.643 -20.560   6.314  0.00  0.00    +0.179 C 
ATOM     19  C   LIG    1       24.492 -20.503   4.789  0.00  0.00    +0.201 C 
ATOM     20  C   LIG    1       23.942 -21.836   4.245  0.00  0.00    +0.279 C 
ATOM     21  O   LIG    1       24.701 -22.955   4.682  0.00  0.00    -0.341 OA
ATOM     22  C   LIG    1       24.796 -23.086   6.113  0.00  0.00    +0.178 C 
BRANCH  18  23
ATOM     23  O   LIG    1       23.364 -20.538   6.952  0.00  0.00    -0.386 OA
ATOM     24  H   LIG    1       23.238 -21.398   7.395  0.00  0.00    +0.210 HD
ENDBRANCH  18  23
BRANCH  19  25
ATOM     25  O   LIG    1       25.752 -20.216   4.157  0.00  0.00    -0.384 OA
ATOM     26  H   LIG    1       26.355 -20.960   4.377  0.00  0.00    +0.210 HD
ENDBRANCH  19  25
BRANCH  20  27
ATOM     27  O   LIG    1       23.981 -21.817   2.824  0.00  0.00    -0.365 OA
ATOM     28  H   LIG    1       23.103 -22.147   2.551  0.00  0.00    +0.213 HD
ENDBRANCH  20  27
BRANCH  22  29
ATOM     29  C   LIG    1       23.463 -23.529   6.726  0.00  0.00    +0.190 C 
BRANCH  29  30
ATOM     30  O   LIG    1       23.228 -24.892   6.361  0.00  0.00    -0.392 OA
ATOM     31  H   LIG    1       22.360 -25.132   6.746  0.00  0.00    +0.209 HD
ENDBRANCH  29  30
ENDBRANCH  22  29
ENDBRANCH   1  17
TORSDOF 12
ENDMDL
MODEL 7
REMARK VINA RESULT:      -5.4      1.894      3.713
REMARK  Name = *****
REMARK                            x       y       z     vdW  Elec       q    Type
REMARK                         _______ _______ _______ _____ _____    ______ ____
ROOT
ATOM      1  O   LIG    1       26.369 -21.476   6.078  0.00  0.00    -0.340 OA
ENDROOT
BRANCH   1   6
ATOM      2  C   LIG    1       28.724 -18.710   6.228  0.00  0.00    +0.178 C 
ATOM      3  C   LIG    1       29.799 -19.394   7.077  0.00  0.00    +0.177 C 
ATOM      4  C   LIG    1       29.123 -20.103   8.254  0.00  0.00    +0.179 C 
ATOM      5  C   LIG    1       28.043 -21.080   7.770  0.00  0.00    +0.201 C 
ATOM      6  C   LIG    1       27.133 -20.431   6.702  0.00  0.00    +0.282 C 
ATOM      7  O   LIG    1       27.868 -19.740   5.694  0.00  0.00    -0.341 OA
BRANCH   3   8
ATOM      8  O   LIG    1       30.506 -20.391   6.313  0.00  0.00    -0.387 OA
ATOM      9  H   LIG    1       29.962 -21.205   6.332  0.00  0.00    +0.210 HD
ENDBRANCH   3   8
BRANCH   4  10
ATOM     10  O   LIG    1       30.091 -20.842   9.015  0.00  0.00    -0.386 OA
ATOM     11  H   LIG    1       30.739 -21.181   8.363  0.00  0.00    +0.210 HD
ENDBRANCH   4  10
BRANCH   5  12
ATOM     12  O   LIG    1       27.263 -21.498   8.905  0.00  0.00    -0.384 OA
ATOM     13  H   LIG    1       27.260 -22.475   8.882  0.00  0.00    +0.210 HD
ENDBRANCH   5  12
BRANCH   2  14
ATOM     14  C   LIG    1       29.311 -17.926   5.057  0.00  0.00    +0.190 C 
BRANCH  14  15
ATOM     15  O   LIG    1       28.283 -17.388   4.241  0.00  0.00    -0.392 OA
ATOM     16  H   LIG    1       28.610 -17.405   3.323  0.00  0.00    +0.209 HD
ENDBRANCH  14  15
ENDBRANCH   2  14
ENDBRANCH   1   6
BRANCH   1  17
ATOM     17  C   LIG    1       25.125 -21.047   5.474  0.00  0.00    +0.183 C 
ATOM     18  C   LIG    1       24.753 -22.114   4.411  0.00  0.00    +0.179 C 
ATOM     19  C   LIG    1       24.384 -23.443   5.082  0.00  0.00    +0.201 C 
ATOM     20  C   LIG    1       23.338 -23.221   6.192  0.00  0.00    +0.279 C 
ATOM     21  O   LIG    1       23.738 -22.227   7.124  0.00  0.00    -0.341 OA
ATOM     22  C   LIG    1       24.016 -20.941   6.538  0.00  0.00    +0.178 C 
BRANCH  18  23
ATOM     23  O   LIG    1       23.678 -21.639   3.598  0.00  0.00    -0.386 OA
ATOM     24  H   LIG    1       22.855 -22.051   3.923  0.00  0.00    +0.210 HD
ENDBRANCH  18  23
BRANCH  19  25
ATOM     25  O   LIG    1       25.546 -24.077   5.644  0.00  0.00    -0.384 OA
ATOM     26  H   LIG    1       25.539 -25.008   5.331  0.00  0.00    +0.210 HD
ENDBRANCH  19  25
BRANCH  20  27
ATOM     27  O   LIG    1       23.147 -24.434   6.910  0.00  0.00    -0.365 OA
ATOM     28  H   LIG    1       22.222 -24.393   7.218  0.00  0.00    +0.213 HD
ENDBRANCH  20  27
BRANCH  22  29
ATOM     29  C   LIG    1       22.730 -20.243   6.080  0.00  0.00    +0.190 C 
BRANCH  29  30
ATOM     30  O   LIG    1       23.062 -19.322   5.038  0.00  0.00    -0.392 OA
ATOM     31  H   LIG    1       24.017 -19.130   5.136  0.00  0.00    +0.209 HD
ENDBRANCH  29  30
ENDBRANCH  22  29
ENDBRANCH   1  17
TORSDOF 12
ENDMDL
MODEL 8
REMARK VINA RESULT:      -5.4      1.513      2.122
REMARK  Name = *****
REMARK                            x       y       z     vdW  Elec       q    Type
REMARK                         _______ _______ _______ _____ _____    ______ ____
ROOT
ATOM      1  O   LIG    1       27.477 -19.944   8.017  0.00  0.00    -0.340 OA
ENDROOT
BRANCH   1   6
ATOM      2  C   LIG    1       30.428 -18.848   9.837  0.00  0.00    +0.178 C 
ATOM      3  C   LIG    1       31.298 -18.487   8.630  0.00  0.00    +0.177 C 
ATOM      4  C   LIG    1       31.208 -19.615   7.599  0.00  0.00    +0.179 C 
ATOM      5  C   LIG    1       29.752 -19.902   7.211  0.00  0.00    +0.201 C 
ATOM      6  C   LIG    1       28.843 -19.993   8.460  0.00  0.00    +0.282 C 
ATOM      7  O   LIG    1       29.062 -18.928   9.382  0.00  0.00    -0.341 OA
BRANCH   3   8
ATOM      8  O   LIG    1       30.829 -17.278   7.997  0.00  0.00    -0.387 OA
ATOM      9  H   LIG    1       31.454 -16.566   8.243  0.00  0.00    +0.210 HD
ENDBRANCH   3   8
BRANCH   4  10
ATOM     10  O   LIG    1       31.930 -19.264   6.408  0.00  0.00    -0.386 OA
ATOM     11  H   LIG    1       32.859 -19.530   6.572  0.00  0.00    +0.210 HD
ENDBRANCH   4  10
BRANCH   5  12
ATOM     12  O   LIG    1       29.709 -21.136   6.470  0.00  0.00    -0.384 OA
ATOM     13  H   LIG    1       29.152 -20.957   5.687  0.00  0.00    +0.210 HD
ENDBRANCH   5  12
BRANCH   2  14
ATOM     14  C   LIG    1       30.499 -17.803  10.946  0.00  0.00    +0.190 C 
BRANCH  14  15
ATOM     15  O   LIG    1       30.041 -16.541  10.484  0.00  0.00    -0.392 OA
ATOM     16  H   LIG    1       29.675 -16.681   9.592  0.00  0.00    +0.209 HD
ENDBRANCH  14  15
ENDBRANCH   2  14
ENDBRANCH   1   6
BRANCH   1  17
ATOM     17  C   LIG    1       27.157 -20.836   6.922  0.00  0.00    +0.183 C 
ATOM     18  C   LIG    1       26.790 -22.204   7.554  0.00  0.00    +0.179 C 
ATOM     19  C   LIG    1       25.471 -22.107   8.331  0.00  0.00    +0.201 C 
ATOM     20  C   LIG    1       24.373 -21.462   7.463  0.00  0.00    +0.279 C 
ATOM     21  O   LIG    1       24.778 -20.218   6.909  0.00  0.00    -0.341 OA
ATOM     22  C   LIG    1       25.971 -20.287   6.105  0.00  0.00    +0.178 C 
BRANCH  18  23
ATOM     23  O   LIG    1       26.708 -23.205   6.537  0.00  0.00    -0.386 OA
ATOM     24  H   LIG    1       25.776 -23.270   6.258  0.00  0.00    +0.210 HD
ENDBRANCH  18  23
BRANCH  19  25
ATOM     25  O   LIG    1       25.637 -21.338   9.534  0.00  0.00    -0.384 OA
ATOM     26  H   LIG    1       25.457 -21.945  10.285  0.00  0.00    +0.210 HD
ENDBRANCH  19  25
BRANCH  20  27
ATOM     27  O   LIG    1       23.220 -21.224   8.260  0.00  0.00    -0.365 OA
ATOM     28  H   LIG    1       22.475 -21.259   7.630  0.00  0.00    +0.213 HD
ENDBRANCH  20  27
BRANCH  22  29
ATOM     29  C   LIG    1       25.709 -20.994   4.771  0.00  0.00    +0.190 C 
BRANCH  29  30
ATOM     30  O   LIG    1       25.928 -20.058   3.712  0.00  0.00    -0.392 OA
ATOM     31  H   LIG    1       26.899 -19.974   3.619  0.00  0.00    +0.209 HD
ENDBRANCH  29  30
ENDBRANCH  22  29
ENDBRANCH   1  17
TORSDOF 12
ENDMDL
MODEL 9
REMARK VINA RESULT:      -5.3      7.993     11.214
REMARK  Name = *****
REMARK                            x       y       z     vdW  Elec       q    Type
REMARK                         _______ _______ _______ _____ _____    ______ ____
ROOT
ATOM      1  O   LIG    1       24.659 -29.581   9.351  0.00  0.00    -0.340 OA
ENDROOT
BRANCH   1   6
ATOM      2  C   LIG    1       25.379 -28.252   6.043  0.00  0.00    +0.178 C 
ATOM      3  C   LIG    1       24.739 -29.373   5.222  0.00  0.00    +0.177 C 
ATOM      4  C   LIG    1       25.180 -30.722   5.797  0.00  0.00    +0.179 C 
ATOM      5  C   LIG    1       24.851 -30.825   7.291  0.00  0.00    +0.201 C 
ATOM      6  C   LIG    1       25.273 -29.546   8.052  0.00  0.00    +0.282 C 
ATOM      7  O   LIG    1       24.868 -28.350   7.389  0.00  0.00    -0.341 OA
BRANCH   3   8
ATOM      8  O   LIG    1       23.300 -29.316   5.297  0.00  0.00    -0.387 OA
ATOM      9  H   LIG    1       22.994 -30.191   5.611  0.00  0.00    +0.210 HD
ENDBRANCH   3   8
BRANCH   4  10
ATOM     10  O   LIG    1       24.517 -31.798   5.114  0.00  0.00    -0.386 OA
ATOM     11  H   LIG    1       24.792 -32.616   5.578  0.00  0.00    +0.210 HD
ENDBRANCH   4  10
BRANCH   5  12
ATOM     12  O   LIG    1       25.530 -31.975   7.831  0.00  0.00    -0.384 OA
ATOM     13  H   LIG    1       26.090 -31.637   8.558  0.00  0.00    +0.210 HD
ENDBRANCH   5  12
BRANCH   2  14
ATOM     14  C   LIG    1       25.039 -26.864   5.508  0.00  0.00    +0.190 C 
BRANCH  14  15
ATOM     15  O   LIG    1       23.747 -26.458   5.934  0.00  0.00    -0.392 OA
ATOM     16  H   LIG    1       23.122 -27.143   5.635  0.00  0.00    +0.209 HD
ENDBRANCH  14  15
ENDBRANCH   2  14
ENDBRANCH   1   6
BRANCH   1  17
ATOM     17  C   LIG    1       25.512 -29.160  10.442  0.00  0.00    +0.183 C 
ATOM     18  C   LIG    1       24.698 -29.357  11.747  0.00  0.00    +0.179 C 
ATOM     19  C   LIG    1       24.474 -30.849  12.026  0.00  0.00    +0.201 C 
ATOM     20  C   LIG    1       25.804 -31.624  11.951  0.00  0.00    +0.279 C 
ATOM     21  O   LIG    1       26.500 -31.391  10.735  0.00  0.00    -0.341 OA
ATOM     22  C   LIG    1       26.800 -30.005  10.479  0.00  0.00    +0.178 C 
BRANCH  18  23
ATOM     23  O   LIG    1       25.371 -28.731  12.842  0.00  0.00    -0.386 OA
ATOM     24  H   LIG    1       24.824 -28.859  13.640  0.00  0.00    +0.210 HD
ENDBRANCH  18  23
BRANCH  19  25
ATOM     25  O   LIG    1       23.541 -31.414  11.089  0.00  0.00    -0.384 OA
ATOM     26  H   LIG    1       23.284 -32.294  11.442  0.00  0.00    +0.210 HD
ENDBRANCH  19  25
BRANCH  20  27
ATOM     27  O   LIG    1       25.542 -33.019  12.038  0.00  0.00    -0.365 OA
ATOM     28  H   LIG    1       25.936 -33.393  11.226  0.00  0.00    +0.213 HD
ENDBRANCH  20  27
BRANCH  22  29
ATOM     29  C   LIG    1       27.899 -29.487  11.412  0.00  0.00    +0.190 C 
BRANCH  29  30
ATOM     30  O   LIG    1       27.797 -28.062  11.485  0.00  0.00    -0.392 OA
ATOM     31  H   LIG    1       28.352 -27.712  10.758  0.00  0.00    +0.209 HD
ENDBRANCH  29  30
ENDBRANCH  22  29
ENDBRANCH   1  17
TORSDOF 12
ENDMDL
