MODEL 1
REMARK VINA RESULT:      -9.4      0.000      0.000
REMARK  Name = *****
REMARK                            x       y       z     vdW  Elec       q    Type
REMARK                         _______ _______ _______ _____ _____    ______ ____
ROOT
ATOM      1  C   LIG    1       27.307 -21.804   7.484  0.00  0.00    +0.084 C 
ATOM      2  C   LIG    1       26.514 -20.681   8.188  0.00  0.00    +0.027 C 
ENDROOT
BRANCH   1   3
ATOM      3  N   LIG    1       26.379 -22.570   6.670  0.00  0.00    -0.308 NA
ATOM      4  H   LIG    1       26.468 -22.538   5.663  0.00  0.00    +0.122 HD
BRANCH   3   6
ATOM      5  C   LIG    1       25.743 -24.812   6.739  0.00  0.00    +0.024 C 
ATOM      6  C   LIG    1       25.347 -23.440   7.235  0.00  0.00    +0.051 C 
BRANCH   6   7
ATOM      7  C   LIG    1       23.884 -23.030   6.823  0.00  0.00    +0.023 C 
BRANCH   7   8
ATOM      8  C   LIG    1       23.319 -21.577   6.905  0.00  0.00    +0.036 C 
BRANCH   8   9
ATOM      9  C   LIG    1       23.451 -20.542   5.781  0.00  0.00    -0.047 A 
ATOM     10  C   LIG    1       22.444 -19.662   5.441  0.00  0.00    +0.003 A 
ATOM     11  C   LIG    1       22.613 -18.764   4.348  0.00  0.00    +0.000 A 
ATOM     12  C   LIG    1       23.770 -18.776   3.562  0.00  0.00    +0.000 A 
ATOM     13  C   LIG    1       24.742 -19.675   3.874  0.00  0.00    +0.000 A 
ATOM     14  C   LIG    1       24.594 -20.458   4.963  0.00  0.00    +0.003 A 
ENDBRANCH   8   9
ENDBRANCH   7   8
ENDBRANCH   6   7
ENDBRANCH   3   6
ENDBRANCH   1   3
BRANCH   1  15
ATOM     15  C   LIG    1       28.559 -21.144   6.748  0.00  0.00    +0.161 C 
BRANCH  15  16
ATOM     16  C   LIG    1       29.598 -20.336   7.534  0.00  0.00    -0.018 A 
ATOM     17  C   LIG    1       30.515 -20.960   8.410  0.00  0.00    +0.010 A 
ATOM     18  C   LIG    1       31.406 -20.222   9.201  0.00  0.00    +0.046 A 
ATOM     19  C   LIG    1       31.401 -18.839   9.131  0.00  0.00    +0.117 A 
ATOM     20  C   LIG    1       30.493 -18.185   8.308  0.00  0.00    +0.046 A 
ATOM     21  C   LIG    1       29.594 -18.929   7.524  0.00  0.00    +0.010 A 
BRANCH  19  22
ATOM     22  O   LIG    1       32.309 -18.156   9.885  0.00  0.00    -0.507 OA
ATOM     23  H   LIG    1       33.201 -18.425   9.616  0.00  0.00    +0.292 HD
ENDBRANCH  19  22
ENDBRANCH  15  16
BRANCH  15  24
ATOM     24  O   LIG    1       28.081 -20.282   5.690  0.00  0.00    -0.386 OA
ATOM     25  H   LIG    1       27.167 -20.514   5.470  0.00  0.00    +0.210 HD
ENDBRANCH  15  24
ENDBRANCH   1  15
TORSDOF 9
ENDMDL
MODEL 2
REMARK VINA RESULT:      -9.3      0.101      1.029
REMARK  Name = *****
REMARK                            x       y       z     vdW  Elec       q    Type
REMARK                         _______ _______ _______ _____ _____    ______ ____
ROOT
ATOM      1  C   LIG    1       27.263 -21.835   7.528  0.00  0.00    +0.084 C 
ATOM      2  C   LIG    1       26.460 -20.701   8.202  0.00  0.00    +0.027 C 
ENDROOT
BRANCH   1   3
ATOM      3  N   LIG    1       26.353 -22.589   6.682  0.00  0.00    -0.308 NA
ATOM      4  H   LIG    1       26.459 -22.534   5.677  0.00  0.00    +0.122 HD
BRANCH   3   6
ATOM      5  C   LIG    1       25.728 -24.835   6.684  0.00  0.00    +0.024 C 
ATOM      6  C   LIG    1       25.319 -23.479   7.211  0.00  0.00    +0.051 C 
BRANCH   6   7
ATOM      7  C   LIG    1       23.859 -23.065   6.791  0.00  0.00    +0.023 C 
BRANCH   7   8
ATOM      8  C   LIG    1       23.296 -21.611   6.875  0.00  0.00    +0.036 C 
BRANCH   8   9
ATOM      9  C   LIG    1       23.449 -20.568   5.761  0.00  0.00    -0.047 A 
ATOM     10  C   LIG    1       22.451 -19.679   5.415  0.00  0.00    +0.003 A 
ATOM     11  C   LIG    1       22.639 -18.773   4.332  0.00  0.00    +0.000 A 
ATOM     12  C   LIG    1       23.806 -18.786   3.561  0.00  0.00    +0.000 A 
ATOM     13  C   LIG    1       24.770 -19.692   3.878  0.00  0.00    +0.000 A 
ATOM     14  C   LIG    1       24.603 -20.484   4.959  0.00  0.00    +0.003 A 
ENDBRANCH   8   9
ENDBRANCH   7   8
ENDBRANCH   6   7
ENDBRANCH   3   6
ENDBRANCH   1   3
BRANCH   1  15
ATOM     15  C   LIG    1       28.549 -21.193   6.837  0.00  0.00    +0.161 C 
BRANCH  15  16
ATOM     16  C   LIG    1       29.533 -20.338   7.645  0.00  0.00    -0.018 A 
ATOM     17  C   LIG    1       29.565 -18.930   7.524  0.00  0.00    +0.010 A 
ATOM     18  C   LIG    1       30.520 -18.150   8.189  0.00  0.00    +0.046 A 
ATOM     19  C   LIG    1       31.465 -18.762   8.994  0.00  0.00    +0.117 A 
ATOM     20  C   LIG    1       31.489 -20.145   9.115  0.00  0.00    +0.046 A 
ATOM     21  C   LIG    1       30.536 -20.926   8.437  0.00  0.00    +0.010 A 
BRANCH  19  22
ATOM     22  O   LIG    1       32.353 -17.967   9.656  0.00  0.00    -0.507 OA
ATOM     23  H   LIG    1       33.124 -18.501   9.904  0.00  0.00    +0.292 HD
ENDBRANCH  19  22
ENDBRANCH  15  16
BRANCH  15  24
ATOM     24  O   LIG    1       28.125 -20.385   5.716  0.00  0.00    -0.386 OA
ATOM     25  H   LIG    1       27.212 -20.607   5.481  0.00  0.00    +0.210 HD
ENDBRANCH  15  24
ENDBRANCH   1  15
TORSDOF 9
ENDMDL
MODEL 3
REMARK VINA RESULT:      -9.1      1.341      4.033
REMARK  Name = *****
REMARK                            x       y       z     vdW  Elec       q    Type
REMARK                         _______ _______ _______ _____ _____    ______ ____
ROOT
ATOM      1  C   LIG    1       26.077 -21.081   6.951  0.00  0.00    +0.084 C 
ATOM      2  C   LIG    1       26.133 -20.533   8.395  0.00  0.00    +0.027 C 
ENDROOT
BRANCH   1   3
ATOM      3  N   LIG    1       24.950 -20.459   6.277  0.00  0.00    -0.308 NA
ATOM      4  H   LIG    1       24.993 -19.473   6.058  0.00  0.00    +0.122 HD
BRANCH   3   6
ATOM      5  C   LIG    1       22.809 -20.113   5.423  0.00  0.00    +0.024 C 
ATOM      6  C   LIG    1       23.768 -21.204   5.842  0.00  0.00    +0.051 C 
BRANCH   6   7
ATOM      7  C   LIG    1       23.180 -22.155   6.951  0.00  0.00    +0.023 C 
BRANCH   7   8
ATOM      8  C   LIG    1       22.951 -23.689   6.767  0.00  0.00    +0.036 C 
BRANCH   8   9
ATOM      9  C   LIG    1       24.072 -24.691   6.470  0.00  0.00    -0.047 A 
ATOM     10  C   LIG    1       25.391 -24.476   6.815  0.00  0.00    +0.003 A 
ATOM     11  C   LIG    1       26.392 -25.425   6.459  0.00  0.00    +0.000 A 
ATOM     12  C   LIG    1       26.085 -26.569   5.716  0.00  0.00    +0.000 A 
ATOM     13  C   LIG    1       24.790 -26.757   5.340  0.00  0.00    +0.000 A 
ATOM     14  C   LIG    1       23.848 -25.887   5.760  0.00  0.00    +0.003 A 
ENDBRANCH   8   9
ENDBRANCH   7   8
ENDBRANCH   6   7
ENDBRANCH   3   6
ENDBRANCH   1   3
BRANCH   1  15
ATOM     15  C   LIG    1       27.519 -20.898   6.293  0.00  0.00    +0.161 C 
BRANCH  15  16
ATOM     16  C   LIG    1       28.724 -20.474   7.142  0.00  0.00    -0.018 A 
ATOM     17  C   LIG    1       29.241 -19.160   7.090  0.00  0.00    +0.010 A 
ATOM     18  C   LIG    1       30.396 -18.789   7.793  0.00  0.00    +0.046 A 
ATOM     19  C   LIG    1       31.059 -19.726   8.566  0.00  0.00    +0.117 A 
ATOM     20  C   LIG    1       30.602 -21.037   8.618  0.00  0.00    +0.046 A 
ATOM     21  C   LIG    1       29.450 -21.408   7.904  0.00  0.00    +0.010 A 
BRANCH  19  22
ATOM     22  O   LIG    1       32.155 -19.318   9.266  0.00  0.00    -0.507 OA
ATOM     23  H   LIG    1       32.944 -19.725   8.874  0.00  0.00    +0.292 HD
ENDBRANCH  19  22
ENDBRANCH  15  16
BRANCH  15  24
ATOM     24  O   LIG    1       27.424 -19.947   5.209  0.00  0.00    -0.386 OA
ATOM     25  H   LIG    1       28.043 -20.193   4.505  0.00  0.00    +0.210 HD
ENDBRANCH  15  24
ENDBRANCH   1  15
TORSDOF 9
ENDMDL
MODEL 4
REMARK VINA RESULT:      -9.0      1.789      2.970
REMARK  Name = *****
REMARK                            x       y       z     vdW  Elec       q    Type
REMARK                         _______ _______ _______ _____ _____    ______ ____
ROOT
ATOM      1  C   LIG    1       29.003 -19.617   7.736  0.00  0.00    +0.084 C 
ATOM      2  C   LIG    1       29.178 -19.590   6.201  0.00  0.00    +0.027 C 
ENDROOT
BRANCH   1   3
ATOM      3  N   LIG    1       28.086 -20.695   8.066  0.00  0.00    -0.308 NA
ATOM      4  H   LIG    1       28.395 -21.427   8.694  0.00  0.00    +0.122 HD
BRANCH   3   6
ATOM      5  C   LIG    1       25.892 -20.518   8.832  0.00  0.00    +0.024 C 
ATOM      6  C   LIG    1       26.707 -20.750   7.581  0.00  0.00    +0.051 C 
BRANCH   6   7
ATOM      7  C   LIG    1       26.351 -22.099   6.851  0.00  0.00    +0.023 C 
BRANCH   7   8
ATOM      8  C   LIG    1       25.146 -22.282   5.874  0.00  0.00    +0.036 C 
BRANCH   8   9
ATOM      9  C   LIG    1       24.386 -21.119   5.225  0.00  0.00    -0.047 A 
ATOM     10  C   LIG    1       24.871 -20.407   4.146  0.00  0.00    +0.003 A 
ATOM     11  C   LIG    1       24.138 -19.301   3.627  0.00  0.00    +0.000 A 
ATOM     12  C   LIG    1       22.943 -18.873   4.215  0.00  0.00    +0.000 A 
ATOM     13  C   LIG    1       22.491 -19.551   5.305  0.00  0.00    +0.000 A 
ATOM     14  C   LIG    1       23.159 -20.645   5.727  0.00  0.00    +0.003 A 
ENDBRANCH   8   9
ENDBRANCH   7   8
ENDBRANCH   6   7
ENDBRANCH   3   6
ENDBRANCH   1   3
BRANCH   1  15
ATOM     15  C   LIG    1       30.453 -19.655   8.402  0.00  0.00    +0.161 C 
BRANCH  15  16
ATOM     16  C   LIG    1       30.985 -18.455   9.195  0.00  0.00    -0.018 A 
ATOM     17  C   LIG    1       32.120 -17.729   8.769  0.00  0.00    +0.010 A 
ATOM     18  C   LIG    1       32.667 -16.691   9.535  0.00  0.00    +0.046 A 
ATOM     19  C   LIG    1       32.088 -16.354  10.746  0.00  0.00    +0.117 A 
ATOM     20  C   LIG    1       30.991 -17.064  11.217  0.00  0.00    +0.046 A 
ATOM     21  C   LIG    1       30.452 -18.112  10.451  0.00  0.00    +0.010 A 
BRANCH  19  22
ATOM     22  O   LIG    1       32.624 -15.312  11.444  0.00  0.00    -0.507 OA
ATOM     23  H   LIG    1       32.205 -14.490  11.145  0.00  0.00    +0.292 HD
ENDBRANCH  19  22
ENDBRANCH  15  16
BRANCH  15  24
ATOM     24  O   LIG    1       31.433 -19.939   7.377  0.00  0.00    -0.386 OA
ATOM     25  H   LIG    1       31.334 -19.308   6.649  0.00  0.00    +0.210 HD
ENDBRANCH  15  24
ENDBRANCH   1  15
TORSDOF 9
ENDMDL
MODEL 5
REMARK VINA RESULT:      -8.9      3.106      6.840
REMARK  Name = *****
REMARK                            x       y       z     vdW  Elec       q    Type
REMARK                         _______ _______ _______ _____ _____    ______ ____
ROOT
ATOM      1  C   LIG    1       23.047 -21.714   6.168  0.00  0.00    +0.084 C 
ATOM      2  C   LIG    1       23.317 -20.633   7.238  0.00  0.00    +0.027 C 
ENDROOT
BRANCH   1   3
ATOM      3  N   LIG    1       23.996 -21.521   5.084  0.00  0.00    -0.308 NA
ATOM      4  H   LIG    1       24.166 -22.282   4.440  0.00  0.00    +0.122 HD
BRANCH   3   6
ATOM      5  C   LIG    1       24.340 -19.953   3.394  0.00  0.00    +0.024 C 
ATOM      6  C   LIG    1       24.681 -20.252   4.835  0.00  0.00    +0.051 C 
BRANCH   6   7
ATOM      7  C   LIG    1       26.230 -20.310   5.108  0.00  0.00    +0.023 C 
BRANCH   7   8
ATOM      8  C   LIG    1       26.871 -20.532   6.514  0.00  0.00    +0.036 C 
BRANCH   8   9
ATOM      9  C   LIG    1       28.353 -20.292   6.827  0.00  0.00    -0.047 A 
ATOM     10  C   LIG    1       29.047 -20.999   7.788  0.00  0.00    +0.003 A 
ATOM     11  C   LIG    1       30.409 -20.687   8.067  0.00  0.00    +0.000 A 
ATOM     12  C   LIG    1       31.066 -19.636   7.420  0.00  0.00    +0.000 A 
ATOM     13  C   LIG    1       30.366 -18.913   6.504  0.00  0.00    +0.000 A 
ATOM     14  C   LIG    1       29.104 -19.280   6.198  0.00  0.00    +0.003 A 
ENDBRANCH   8   9
ENDBRANCH   7   8
ENDBRANCH   6   7
ENDBRANCH   3   6
ENDBRANCH   1   3
BRANCH   1  15
ATOM     15  C   LIG    1       23.034 -23.137   6.889  0.00  0.00    +0.161 C 
BRANCH  15  16
ATOM     16  C   LIG    1       24.107 -24.187   6.577  0.00  0.00    -0.018 A 
ATOM     17  C   LIG    1       25.469 -23.971   6.887  0.00  0.00    +0.010 A 
ATOM     18  C   LIG    1       26.467 -24.885   6.523  0.00  0.00    +0.046 A 
ATOM     19  C   LIG    1       26.123 -26.040   5.841  0.00  0.00    +0.117 A 
ATOM     20  C   LIG    1       24.800 -26.274   5.488  0.00  0.00    +0.046 A 
ATOM     21  C   LIG    1       23.803 -25.350   5.845  0.00  0.00    +0.010 A 
BRANCH  19  22
ATOM     22  O   LIG    1       27.115 -26.924   5.539  0.00  0.00    -0.507 OA
ATOM     23  H   LIG    1       27.286 -26.887   4.584  0.00  0.00    +0.292 HD
ENDBRANCH  19  22
ENDBRANCH  15  16
BRANCH  15  24
ATOM     24  O   LIG    1       21.756 -23.770   6.654  0.00  0.00    -0.386 OA
ATOM     25  H   LIG    1       21.153 -23.566   7.384  0.00  0.00    +0.210 HD
ENDBRANCH  15  24
ENDBRANCH   1  15
TORSDOF 9
ENDMDL
MODEL 6
REMARK VINA RESULT:      -8.9      3.259      6.972
REMARK  Name = *****
REMARK                            x       y       z     vdW  Elec       q    Type
REMARK                         _______ _______ _______ _____ _____    ______ ____
ROOT
ATOM      1  C   LIG    1       23.234 -21.841   6.093  0.00  0.00    +0.084 C 
ATOM      2  C   LIG    1       23.364 -20.745   7.173  0.00  0.00    +0.027 C 
ENDROOT
BRANCH   1   3
ATOM      3  N   LIG    1       24.256 -21.605   5.087  0.00  0.00    -0.308 NA
ATOM      4  H   LIG    1       24.604 -22.388   4.549  0.00  0.00    +0.122 HD
BRANCH   3   6
ATOM      5  C   LIG    1       24.482 -20.140   3.289  0.00  0.00    +0.024 C 
ATOM      6  C   LIG    1       24.771 -20.274   4.766  0.00  0.00    +0.051 C 
BRANCH   6   7
ATOM      7  C   LIG    1       26.294 -20.088   5.120  0.00  0.00    +0.023 C 
BRANCH   7   8
ATOM      8  C   LIG    1       26.989 -20.700   6.377  0.00  0.00    +0.036 C 
BRANCH   8   9
ATOM      9  C   LIG    1       28.439 -20.408   6.781  0.00  0.00    -0.047 A 
ATOM     10  C   LIG    1       29.104 -21.105   7.770  0.00  0.00    +0.003 A 
ATOM     11  C   LIG    1       30.433 -20.744   8.134  0.00  0.00    +0.000 A 
ATOM     12  C   LIG    1       31.084 -19.655   7.545  0.00  0.00    +0.000 A 
ATOM     13  C   LIG    1       30.410 -18.944   6.601  0.00  0.00    +0.000 A 
ATOM     14  C   LIG    1       29.183 -19.355   6.214  0.00  0.00    +0.003 A 
ENDBRANCH   8   9
ENDBRANCH   7   8
ENDBRANCH   6   7
ENDBRANCH   3   6
ENDBRANCH   1   3
BRANCH   1  15
ATOM     15  C   LIG    1       23.233 -23.261   6.821  0.00  0.00    +0.161 C 
BRANCH  15  16
ATOM     16  C   LIG    1       24.218 -24.360   6.404  0.00  0.00    -0.018 A 
ATOM     17  C   LIG    1       23.784 -25.532   5.744  0.00  0.00    +0.010 A 
ATOM     18  C   LIG    1       24.663 -26.581   5.441  0.00  0.00    +0.046 A 
ATOM     19  C   LIG    1       25.998 -26.479   5.792  0.00  0.00    +0.117 A 
ATOM     20  C   LIG    1       26.458 -25.359   6.471  0.00  0.00    +0.046 A 
ATOM     21  C   LIG    1       25.572 -24.313   6.782  0.00  0.00    +0.010 A 
BRANCH  19  22
ATOM     22  O   LIG    1       26.831 -27.503   5.445  0.00  0.00    -0.507 OA
ATOM     23  H   LIG    1       26.348 -28.340   5.533  0.00  0.00    +0.292 HD
ENDBRANCH  19  22
ENDBRANCH  15  16
BRANCH  15  24
ATOM     24  O   LIG    1       21.910 -23.836   6.728  0.00  0.00    -0.386 OA
ATOM     25  H   LIG    1       21.247 -23.129   6.731  0.00  0.00    +0.210 HD
ENDBRANCH  15  24
ENDBRANCH   1  15
TORSDOF 9
ENDMDL
MODEL 7
REMARK VINA RESULT:      -8.7      1.990      4.909
REMARK  Name = *****
REMARK                            x       y       z     vdW  Elec       q    Type
REMARK                         _______ _______ _______ _____ _____    ______ ____
ROOT
ATOM      1  C   LIG    1       24.218 -20.039   4.816  0.00  0.00    +0.084 C 
ATOM      2  C   LIG    1       23.484 -19.236   3.720  0.00  0.00    +0.027 C 
ENDROOT
BRANCH   1   3
ATOM      3  N   LIG    1       23.530 -21.308   4.983  0.00  0.00    -0.308 NA
ATOM      4  H   LIG    1       23.618 -22.012   4.262  0.00  0.00    +0.122 HD
BRANCH   3   6
ATOM      5  C   LIG    1       23.149 -20.571   7.161  0.00  0.00    +0.024 C 
ATOM      6  C   LIG    1       22.754 -21.647   6.176  0.00  0.00    +0.051 C 
BRANCH   6   7
ATOM      7  C   LIG    1       23.024 -23.105   6.708  0.00  0.00    +0.023 C 
BRANCH   7   8
ATOM      8  C   LIG    1       24.444 -23.723   6.904  0.00  0.00    +0.036 C 
BRANCH   8   9
ATOM      9  C   LIG    1       24.877 -25.074   6.324  0.00  0.00    -0.047 A 
ATOM     10  C   LIG    1       23.983 -26.040   5.907  0.00  0.00    +0.003 A 
ATOM     11  C   LIG    1       24.453 -27.297   5.430  0.00  0.00    +0.000 A 
ATOM     12  C   LIG    1       25.816 -27.611   5.412  0.00  0.00    +0.000 A 
ATOM     13  C   LIG    1       26.692 -26.672   5.864  0.00  0.00    +0.000 A 
ATOM     14  C   LIG    1       26.229 -25.460   6.234  0.00  0.00    +0.003 A 
ENDBRANCH   8   9
ENDBRANCH   7   8
ENDBRANCH   6   7
ENDBRANCH   3   6
ENDBRANCH   1   3
BRANCH   1  15
ATOM     15  C   LIG    1       25.769 -20.087   4.444  0.00  0.00    +0.161 C 
BRANCH  15  16
ATOM     16  C   LIG    1       26.841 -20.130   5.540  0.00  0.00    -0.018 A 
ATOM     17  C   LIG    1       26.575 -20.676   6.816  0.00  0.00    +0.010 A 
ATOM     18  C   LIG    1       27.518 -20.636   7.851  0.00  0.00    +0.046 A 
ATOM     19  C   LIG    1       28.753 -20.050   7.632  0.00  0.00    +0.117 A 
ATOM     20  C   LIG    1       29.042 -19.473   6.402  0.00  0.00    +0.046 A 
ATOM     21  C   LIG    1       28.090 -19.505   5.369  0.00  0.00    +0.010 A 
BRANCH  19  22
ATOM     22  O   LIG    1       29.659 -20.066   8.650  0.00  0.00    -0.507 OA
ATOM     23  H   LIG    1       30.216 -19.274   8.584  0.00  0.00    +0.292 HD
ENDBRANCH  19  22
ENDBRANCH  15  16
BRANCH  15  24
ATOM     24  O   LIG    1       26.086 -18.955   3.602  0.00  0.00    -0.386 OA
ATOM     25  H   LIG    1       25.643 -19.053   2.746  0.00  0.00    +0.210 HD
ENDBRANCH  15  24
ENDBRANCH   1  15
TORSDOF 9
ENDMDL
MODEL 8
REMARK VINA RESULT:      -8.6      2.696      7.187
REMARK  Name = *****
REMARK                            x       y       z     vdW  Elec       q    Type
REMARK                         _______ _______ _______ _____ _____    ______ ____
ROOT
ATOM      1  C   LIG    1       25.592 -22.833   6.843  0.00  0.00    +0.084 C 
ATOM      2  C   LIG    1       25.431 -24.368   6.898  0.00  0.00    +0.027 C 
ENDROOT
BRANCH   1   3
ATOM      3  N   LIG    1       26.888 -22.495   7.405  0.00  0.00    -0.308 NA
ATOM      4  H   LIG    1       27.634 -23.178   7.363  0.00  0.00    +0.122 HD
BRANCH   3   6
ATOM      5  C   LIG    1       25.865 -20.733   8.537  0.00  0.00    +0.024 C 
ATOM      6  C   LIG    1       27.195 -21.185   7.981  0.00  0.00    +0.051 C 
BRANCH   6   7
ATOM      7  C   LIG    1       27.811 -20.172   6.945  0.00  0.00    +0.023 C 
BRANCH   7   8
ATOM      8  C   LIG    1       29.339 -19.888   6.790  0.00  0.00    +0.036 C 
BRANCH   8   9
ATOM      9  C   LIG    1       30.144 -18.995   7.741  0.00  0.00    -0.047 A 
ATOM     10  C   LIG    1       31.508 -18.813   7.635  0.00  0.00    +0.003 A 
ATOM     11  C   LIG    1       32.203 -18.013   8.587  0.00  0.00    +0.000 A 
ATOM     12  C   LIG    1       31.545 -17.431   9.675  0.00  0.00    +0.000 A 
ATOM     13  C   LIG    1       30.207 -17.648   9.800  0.00  0.00    +0.000 A 
ATOM     14  C   LIG    1       29.557 -18.340   8.842  0.00  0.00    +0.003 A 
ENDBRANCH   8   9
ENDBRANCH   7   8
ENDBRANCH   6   7
ENDBRANCH   3   6
ENDBRANCH   1   3
BRANCH   1  15
ATOM     15  C   LIG    1       25.288 -22.353   5.352  0.00  0.00    +0.161 C 
BRANCH  15  16
ATOM     16  C   LIG    1       24.446 -21.099   5.085  0.00  0.00    -0.018 A 
ATOM     17  C   LIG    1       23.270 -20.826   5.818  0.00  0.00    +0.010 A 
ATOM     18  C   LIG    1       22.446 -19.732   5.519  0.00  0.00    +0.046 A 
ATOM     19  C   LIG    1       22.784 -18.884   4.478  0.00  0.00    +0.117 A 
ATOM     20  C   LIG    1       23.915 -19.135   3.712  0.00  0.00    +0.046 A 
ATOM     21  C   LIG    1       24.732 -20.240   4.008  0.00  0.00    +0.010 A 
BRANCH  19  22
ATOM     22  O   LIG    1       21.980 -17.808   4.243  0.00  0.00    -0.507 OA
ATOM     23  H   LIG    1       22.463 -17.001   4.481  0.00  0.00    +0.292 HD
ENDBRANCH  19  22
ENDBRANCH  15  16
BRANCH  15  24
ATOM     24  O   LIG    1       24.657 -23.435   4.630  0.00  0.00    -0.386 OA
ATOM     25  H   LIG    1       23.723 -23.491   4.881  0.00  0.00    +0.210 HD
ENDBRANCH  15  24
ENDBRANCH   1  15
TORSDOF 9
ENDMDL
MODEL 9
REMARK VINA RESULT:      -8.6      3.325      7.318
REMARK  Name = *****
REMARK                            x       y       z     vdW  Elec       q    Type
REMARK                         _______ _______ _______ _____ _____    ______ ____
ROOT
ATOM      1  C   LIG    1       23.907 -21.933   6.152  0.00  0.00    +0.084 C 
ATOM      2  C   LIG    1       22.589 -21.287   5.670  0.00  0.00    +0.027 C 
ENDROOT
BRANCH   1   3
ATOM      3  N   LIG    1       24.623 -20.953   6.951  0.00  0.00    -0.308 NA
ATOM      4  H   LIG    1       24.110 -20.182   7.356  0.00  0.00    +0.122 HD
BRANCH   3   6
ATOM      5  C   LIG    1       26.148 -20.505   8.656  0.00  0.00    +0.024 C 
ATOM      6  C   LIG    1       26.051 -21.055   7.252  0.00  0.00    +0.051 C 
BRANCH   6   7
ATOM      7  C   LIG    1       26.967 -20.293   6.222  0.00  0.00    +0.023 C 
BRANCH   7   8
ATOM      8  C   LIG    1       28.521 -20.431   6.152  0.00  0.00    +0.036 C 
BRANCH   8   9
ATOM      9  C   LIG    1       29.479 -19.864   7.205  0.00  0.00    -0.047 A 
ATOM     10  C   LIG    1       29.739 -18.515   7.343  0.00  0.00    +0.003 A 
ATOM     11  C   LIG    1       30.684 -18.060   8.307  0.00  0.00    +0.000 A 
ATOM     12  C   LIG    1       31.407 -18.954   9.103  0.00  0.00    +0.000 A 
ATOM     13  C   LIG    1       31.179 -20.285   8.935  0.00  0.00    +0.000 A 
ATOM     14  C   LIG    1       30.220 -20.688   8.074  0.00  0.00    +0.003 A 
ENDBRANCH   8   9
ENDBRANCH   7   8
ENDBRANCH   6   7
ENDBRANCH   3   6
ENDBRANCH   1   3
BRANCH   1  15
ATOM     15  C   LIG    1       23.554 -23.328   6.841  0.00  0.00    +0.161 C 
BRANCH  15  16
ATOM     16  C   LIG    1       24.344 -24.597   6.498  0.00  0.00    -0.018 A 
ATOM     17  C   LIG    1       25.747 -24.660   6.647  0.00  0.00    +0.010 A 
ATOM     18  C   LIG    1       26.486 -25.783   6.250  0.00  0.00    +0.046 A 
ATOM     19  C   LIG    1       25.835 -26.871   5.695  0.00  0.00    +0.117 A 
ATOM     20  C   LIG    1       24.460 -26.837   5.501  0.00  0.00    +0.046 A 
ATOM     21  C   LIG    1       23.724 -25.705   5.890  0.00  0.00    +0.010 A 
BRANCH  19  22
ATOM     22  O   LIG    1       26.582 -27.961   5.358  0.00  0.00    -0.507 OA
ATOM     23  H   LIG    1       26.784 -27.918   4.410  0.00  0.00    +0.292 HD
ENDBRANCH  19  22
ENDBRANCH  15  16
BRANCH  15  24
ATOM     24  O   LIG    1       22.161 -23.632   6.600  0.00  0.00    -0.386 OA
ATOM     25  H   LIG    1       21.955 -24.511   6.952  0.00  0.00    +0.210 HD
ENDBRANCH  15  24
ENDBRANCH   1  15
TORSDOF 9
ENDMDL
