MODEL 1
REMARK VINA RESULT:      -7.2      0.000      0.000
REMARK  Name = *****
REMARK                            x       y       z     vdW  Elec       q    Type
REMARK                         _______ _______ _______ _____ _____    ______ ____
ROOT
ATOM      1  C   LIG    1       25.298 -25.116   6.536  0.00  0.00    +0.235 C 
ATOM      2  N   LIG    1       25.961 -23.959   6.883  0.00  0.00    -0.300 N 
ATOM      3  H   LIG    1       26.976 -23.993   6.973  0.00  0.00    +0.150 HD
ATOM      4  O   LIG    1       24.080 -25.134   6.359  0.00  0.00    -0.274 OA
ENDROOT
BRANCH   2   5
ATOM      5  CA  LIG    1       25.272 -22.654   7.110  0.00  0.00    +0.191 C 
ATOM      6  C   LIG    1       26.207 -21.414   7.311  0.00  0.00    +0.169 C 
ATOM      7  N   LIG    1       25.904 -21.055   5.936  0.00  0.00    -0.248 N 
ATOM      8  CA  LIG    1       26.519 -20.035   5.255  0.00  0.00    +0.137 C 
ATOM      9  C   LIG    1       27.706 -19.567   5.717  0.00  0.00    +0.057 C 
ATOM     10 CL   LIG    1       28.619 -18.284   4.961  0.00  0.00    -0.085 Cl
ATOM     11  C   LIG    1       28.466 -20.095   6.918  0.00  0.00    +0.120 C 
ATOM     12  S   LIG    1       27.977 -21.762   7.445  0.00  0.00    -0.130 S 
ATOM     13  C   LIG    1       24.831 -21.869   5.813  0.00  0.00    +0.244 C 
ATOM     14  O   LIG    1       24.011 -21.927   4.932  0.00  0.00    -0.273 OA
BRANCH   8  15
ATOM     15  C   LIG    1       25.906 -19.465   3.993  0.00  0.00    +0.352 C 
ATOM     16  O   LIG    1       25.696 -18.274   3.818  0.00  0.00    -0.244 OA
BRANCH  15  17
ATOM     17  OXT LIG    1       25.595 -20.338   3.017  0.00  0.00    -0.476 OA
ATOM     18  HXT LIG    1       24.661 -20.621   2.910  0.00  0.00    +0.295 HD
ENDBRANCH  15  17
ENDBRANCH   8  15
ENDBRANCH   2   5
BRANCH   1  19
ATOM     19  CA  LIG    1       26.185 -26.386   6.337  0.00  0.00    +0.168 C 
BRANCH  19  20
ATOM     20  C   LIG    1       25.737 -27.578   7.167  0.00  0.00    -0.022 A 
ATOM     21  C   LIG    1       24.709 -28.414   6.700  0.00  0.00    +0.006 A 
ATOM     22  C   LIG    1       24.338 -29.553   7.419  0.00  0.00    +0.000 A 
ATOM     23  C   LIG    1       24.981 -29.865   8.615  0.00  0.00    +0.000 A 
ATOM     24  C   LIG    1       25.987 -29.034   9.101  0.00  0.00    +0.000 A 
ATOM     25  C   LIG    1       26.362 -27.897   8.383  0.00  0.00    +0.006 A 
ENDBRANCH  19  20
BRANCH  19  26
ATOM     26  N   LIG    1       26.244 -26.731   4.902  0.00  0.00    -0.316 NA
ATOM     27  H1  LIG    1       25.317 -27.026   4.599  0.00  0.00    +0.119 HD
ATOM     28  H2  LIG    1       26.403 -25.860   4.390  0.00  0.00    +0.119 HD
ENDBRANCH  19  26
ENDBRANCH   1  19
TORSDOF 6
ENDMDL
MODEL 2
REMARK VINA RESULT:      -7.0      4.421      8.859
REMARK  Name = *****
REMARK                            x       y       z     vdW  Elec       q    Type
REMARK                         _______ _______ _______ _____ _____    ______ ____
ROOT
ATOM      1  C   LIG    1       25.042 -25.631   6.173  0.00  0.00    +0.235 C 
ATOM      2  N   LIG    1       24.615 -26.859   6.630  0.00  0.00    -0.300 N 
ATOM      3  H   LIG    1       23.878 -26.882   7.334  0.00  0.00    +0.150 HD
ATOM      4  O   LIG    1       25.890 -25.531   5.286  0.00  0.00    -0.274 OA
ENDROOT
BRANCH   2   5
ATOM      5  CA  LIG    1       25.159 -28.156   6.129  0.00  0.00    +0.191 C 
ATOM      6  C   LIG    1       26.000 -28.985   7.157  0.00  0.00    +0.169 C 
ATOM      7  N   LIG    1       24.826 -29.825   7.328  0.00  0.00    -0.248 N 
ATOM      8  CA  LIG    1       24.720 -30.814   8.273  0.00  0.00    +0.137 C 
ATOM      9  C   LIG    1       25.563 -30.791   9.336  0.00  0.00    +0.057 C 
ATOM     10 CL   LIG    1       25.550 -31.968  10.628  0.00  0.00    -0.085 Cl
ATOM     11  C   LIG    1       26.613 -29.735   9.619  0.00  0.00    +0.120 C 
ATOM     12  S   LIG    1       26.367 -28.171   8.731  0.00  0.00    -0.130 S 
ATOM     13  C   LIG    1       24.185 -29.396   6.218  0.00  0.00    +0.244 C 
ATOM     14  O   LIG    1       23.194 -29.831   5.689  0.00  0.00    -0.273 OA
BRANCH   8  15
ATOM     15  C   LIG    1       23.661 -31.890   8.153  0.00  0.00    +0.352 C 
ATOM     16  O   LIG    1       23.750 -32.849   7.400  0.00  0.00    -0.244 OA
BRANCH  15  17
ATOM     17  OXT LIG    1       22.577 -31.771   8.941  0.00  0.00    -0.476 OA
ATOM     18  HXT LIG    1       21.690 -31.711   8.525  0.00  0.00    +0.295 HD
ENDBRANCH  15  17
ENDBRANCH   8  15
ENDBRANCH   2   5
BRANCH   1  19
ATOM     19  CA  LIG    1       24.355 -24.381   6.810  0.00  0.00    +0.168 C 
BRANCH  19  20
ATOM     20  C   LIG    1       25.116 -23.085   6.579  0.00  0.00    -0.022 A 
ATOM     21  C   LIG    1       24.675 -22.172   5.607  0.00  0.00    +0.006 A 
ATOM     22  C   LIG    1       25.323 -20.947   5.435  0.00  0.00    +0.000 A 
ATOM     23  C   LIG    1       26.424 -20.622   6.226  0.00  0.00    +0.000 A 
ATOM     24  C   LIG    1       26.886 -21.526   7.179  0.00  0.00    +0.000 A 
ATOM     25  C   LIG    1       26.238 -22.749   7.355  0.00  0.00    +0.006 A 
ENDBRANCH  19  20
BRANCH  19  26
ATOM     26  N   LIG    1       22.965 -24.273   6.321  0.00  0.00    -0.316 NA
ATOM     27  H1  LIG    1       22.554 -23.419   6.693  0.00  0.00    +0.119 HD
ATOM     28  H2  LIG    1       23.015 -24.102   5.313  0.00  0.00    +0.119 HD
ENDBRANCH  19  26
ENDBRANCH   1  19
TORSDOF 6
ENDMDL
MODEL 3
REMARK VINA RESULT:      -6.9      5.618      8.564
REMARK  Name = *****
REMARK                            x       y       z     vdW  Elec       q    Type
REMARK                         _______ _______ _______ _____ _____    ______ ____
ROOT
ATOM      1  C   LIG    1       24.792 -28.897   6.313  0.00  0.00    +0.235 C 
ATOM      2  N   LIG    1       25.615 -29.213   7.372  0.00  0.00    -0.300 N 
ATOM      3  H   LIG    1       26.453 -28.651   7.516  0.00  0.00    +0.150 HD
ATOM      4  O   LIG    1       23.738 -29.500   6.111  0.00  0.00    -0.274 OA
ENDROOT
BRANCH   2   5
ATOM      5  CA  LIG    1       25.329 -30.321   8.331  0.00  0.00    +0.191 C 
ATOM      6  C   LIG    1       25.999 -30.193   9.741  0.00  0.00    +0.169 C 
ATOM      7  N   LIG    1       24.703 -29.760  10.235  0.00  0.00    -0.248 N 
ATOM      8  CA  LIG    1       24.485 -29.284  11.504  0.00  0.00    +0.137 C 
ATOM      9  C   LIG    1       25.547 -28.842  12.224  0.00  0.00    +0.057 C 
ATOM     10 CL   LIG    1       25.436 -28.198  13.845  0.00  0.00    -0.085 Cl
ATOM     11  C   LIG    1       26.984 -28.778  11.747  0.00  0.00    +0.120 C 
ATOM     12  S   LIG    1       27.181 -28.839   9.943  0.00  0.00    -0.130 S 
ATOM     13  C   LIG    1       23.996 -30.188   9.166  0.00  0.00    +0.244 C 
ATOM     14  O   LIG    1       22.802 -30.269   9.019  0.00  0.00    -0.273 OA
BRANCH   8  15
ATOM     15  C   LIG    1       23.085 -29.221  12.078  0.00  0.00    +0.352 C 
ATOM     16  O   LIG    1       22.547 -28.187  12.442  0.00  0.00    -0.244 OA
BRANCH  15  17
ATOM     17  OXT LIG    1       22.410 -30.382  12.169  0.00  0.00    -0.476 OA
ATOM     18  HXT LIG    1       22.090 -30.680  13.048  0.00  0.00    +0.295 HD
ENDBRANCH  15  17
ENDBRANCH   8  15
ENDBRANCH   2   5
BRANCH   1  19
ATOM     19  CA  LIG    1       25.250 -27.703   5.416  0.00  0.00    +0.168 C 
BRANCH  19  20
ATOM     20  C   LIG    1       24.997 -26.340   6.041  0.00  0.00    -0.022 A 
ATOM     21  C   LIG    1       26.067 -25.600   6.572  0.00  0.00    +0.006 A 
ATOM     22  C   LIG    1       25.858 -24.317   7.084  0.00  0.00    +0.000 A 
ATOM     23  C   LIG    1       24.580 -23.762   7.079  0.00  0.00    +0.000 A 
ATOM     24  C   LIG    1       23.507 -24.492   6.576  0.00  0.00    +0.000 A 
ATOM     25  C   LIG    1       23.712 -25.773   6.061  0.00  0.00    +0.006 A 
ENDBRANCH  19  20
BRANCH  19  26
ATOM     26  N   LIG    1       26.674 -27.866   5.060  0.00  0.00    -0.316 NA
ATOM     27  H1  LIG    1       26.863 -27.327   4.216  0.00  0.00    +0.119 HD
ATOM     28  H2  LIG    1       27.221 -27.389   5.782  0.00  0.00    +0.119 HD
ENDBRANCH  19  26
ENDBRANCH   1  19
TORSDOF 6
ENDMDL
MODEL 4
REMARK VINA RESULT:      -6.7      5.213      9.274
REMARK  Name = *****
REMARK                            x       y       z     vdW  Elec       q    Type
REMARK                         _______ _______ _______ _____ _____    ______ ____
ROOT
ATOM      1  C   LIG    1       24.593 -27.288   5.784  0.00  0.00    +0.235 C 
ATOM      2  N   LIG    1       24.958 -27.968   6.925  0.00  0.00    -0.300 N 
ATOM      3  H   LIG    1       25.727 -27.598   7.483  0.00  0.00    +0.150 HD
ATOM      4  O   LIG    1       23.640 -27.650   5.093  0.00  0.00    -0.274 OA
ENDROOT
BRANCH   2   5
ATOM      5  CA  LIG    1       24.271 -29.207   7.399  0.00  0.00    +0.191 C 
ATOM      6  C   LIG    1       24.686 -30.535   6.681  0.00  0.00    +0.169 C 
ATOM      7  N   LIG    1       25.493 -30.829   7.853  0.00  0.00    -0.248 N 
ATOM      8  CA  LIG    1       26.363 -31.886   7.940  0.00  0.00    +0.137 C 
ATOM      9  C   LIG    1       26.786 -32.477   6.794  0.00  0.00    +0.057 C 
ATOM     10 CL   LIG    1       27.899 -33.824   6.734  0.00  0.00    -0.085 Cl
ATOM     11  C   LIG    1       26.421 -32.054   5.385  0.00  0.00    +0.120 C 
ATOM     12  S   LIG    1       25.779 -30.361   5.250  0.00  0.00    -0.130 S 
ATOM     13  C   LIG    1       24.909 -29.914   8.658  0.00  0.00    +0.244 C 
ATOM     14  O   LIG    1       25.022 -29.756   9.847  0.00  0.00    -0.273 OA
BRANCH   8  15
ATOM     15  C   LIG    1       26.870 -32.364   9.285  0.00  0.00    +0.352 C 
ATOM     16  O   LIG    1       26.737 -33.509   9.693  0.00  0.00    -0.244 OA
BRANCH  15  17
ATOM     17  OXT LIG    1       27.512 -31.463  10.051  0.00  0.00    -0.476 OA
ATOM     18  HXT LIG    1       26.996 -30.740  10.470  0.00  0.00    +0.295 HD
ENDBRANCH  15  17
ENDBRANCH   8  15
ENDBRANCH   2   5
BRANCH   1  19
ATOM     19  CA  LIG    1       25.424 -26.010   5.448  0.00  0.00    +0.168 C 
BRANCH  19  20
ATOM     20  C   LIG    1       24.958 -24.768   6.190  0.00  0.00    -0.022 A 
ATOM     21  C   LIG    1       25.897 -23.908   6.784  0.00  0.00    +0.006 A 
ATOM     22  C   LIG    1       25.486 -22.727   7.406  0.00  0.00    +0.000 A 
ATOM     23  C   LIG    1       24.134 -22.394   7.451  0.00  0.00    +0.000 A 
ATOM     24  C   LIG    1       23.189 -23.247   6.885  0.00  0.00    +0.000 A 
ATOM     25  C   LIG    1       23.597 -24.426   6.260  0.00  0.00    +0.006 A 
ENDBRANCH  19  20
BRANCH  19  26
ATOM     26  N   LIG    1       26.857 -26.268   5.695  0.00  0.00    -0.316 NA
ATOM     27  H1  LIG    1       26.963 -26.644   6.636  0.00  0.00    +0.119 HD
ATOM     28  H2  LIG    1       27.131 -27.045   5.088  0.00  0.00    +0.119 HD
ENDBRANCH  19  26
ENDBRANCH   1  19
TORSDOF 6
ENDMDL
MODEL 5
REMARK VINA RESULT:      -6.4      4.457      6.788
REMARK  Name = *****
REMARK                            x       y       z     vdW  Elec       q    Type
REMARK                         _______ _______ _______ _____ _____    ______ ____
ROOT
ATOM      1  C   LIG    1       25.532 -21.974   6.771  0.00  0.00    +0.235 C 
ATOM      2  N   LIG    1       26.661 -21.202   6.943  0.00  0.00    -0.300 N 
ATOM      3  H   LIG    1       26.540 -20.216   7.170  0.00  0.00    +0.150 HD
ATOM      4  O   LIG    1       25.605 -23.183   6.548  0.00  0.00    -0.274 OA
ENDROOT
BRANCH   2   5
ATOM      5  CA  LIG    1       28.049 -21.742   6.839  0.00  0.00    +0.191 C 
ATOM      6  C   LIG    1       29.139 -20.731   6.347  0.00  0.00    +0.169 C 
ATOM      7  N   LIG    1       29.551 -20.614   7.736  0.00  0.00    -0.248 N 
ATOM      8  CA  LIG    1       30.478 -19.710   8.189  0.00  0.00    +0.137 C 
ATOM      9  C   LIG    1       30.766 -18.631   7.417  0.00  0.00    +0.057 C 
ATOM     10 CL   LIG    1       31.912 -17.386   7.854  0.00  0.00    -0.085 Cl
ATOM     11  C   LIG    1       30.122 -18.288   6.088  0.00  0.00    +0.120 C 
ATOM     12  S   LIG    1       28.538 -19.121   5.782  0.00  0.00    -0.130 S 
ATOM     13  C   LIG    1       28.902 -21.719   8.167  0.00  0.00    +0.244 C 
ATOM     14  O   LIG    1       28.972 -22.282   9.230  0.00  0.00    -0.273 OA
BRANCH   8  15
ATOM     15  C   LIG    1       31.144 -19.890   9.537  0.00  0.00    +0.352 C 
ATOM     16  O   LIG    1       30.840 -19.254  10.535  0.00  0.00    -0.244 OA
BRANCH  15  17
ATOM     17  OXT LIG    1       32.112 -20.821   9.620  0.00  0.00    -0.476 OA
ATOM     18  HXT LIG    1       32.958 -20.591  10.064  0.00  0.00    +0.295 HD
ENDBRANCH  15  17
ENDBRANCH   8  15
ENDBRANCH   2   5
BRANCH   1  19
ATOM     19  CA  LIG    1       24.163 -21.239   6.921  0.00  0.00    +0.168 C 
BRANCH  19  20
ATOM     20  C   LIG    1       23.803 -20.373   5.724  0.00  0.00    -0.022 A 
ATOM     21  C   LIG    1       22.569 -19.704   5.685  0.00  0.00    +0.006 A 
ATOM     22  C   LIG    1       22.257 -18.849   4.625  0.00  0.00    +0.000 A 
ATOM     23  C   LIG    1       23.169 -18.659   3.588  0.00  0.00    +0.000 A 
ATOM     24  C   LIG    1       24.388 -19.332   3.603  0.00  0.00    +0.000 A 
ATOM     25  C   LIG    1       24.704 -20.184   4.662  0.00  0.00    +0.006 A 
ENDBRANCH  19  20
BRANCH  19  26
ATOM     26  N   LIG    1       23.098 -22.222   7.203  0.00  0.00    -0.316 NA
ATOM     27  H1  LIG    1       22.211 -21.847   6.869  0.00  0.00    +0.119 HD
ATOM     28  H2  LIG    1       23.267 -23.029   6.597  0.00  0.00    +0.119 HD
ENDBRANCH  19  26
ENDBRANCH   1  19
TORSDOF 6
ENDMDL
MODEL 6
REMARK VINA RESULT:      -6.4      4.072      8.473
REMARK  Name = *****
REMARK                            x       y       z     vdW  Elec       q    Type
REMARK                         _______ _______ _______ _____ _____    ______ ____
ROOT
ATOM      1  C   LIG    1       24.728 -24.615   5.846  0.00  0.00    +0.235 C 
ATOM      2  N   LIG    1       25.232 -25.657   6.593  0.00  0.00    -0.300 N 
ATOM      3  H   LIG    1       25.013 -25.686   7.589  0.00  0.00    +0.150 HD
ATOM      4  O   LIG    1       24.909 -24.546   4.630  0.00  0.00    -0.274 OA
ENDROOT
BRANCH   2   5
ATOM      5  CA  LIG    1       26.059 -26.757   6.017  0.00  0.00    +0.191 C 
ATOM      6  C   LIG    1       26.533 -27.857   7.026  0.00  0.00    +0.169 C 
ATOM      7  N   LIG    1       25.478 -28.700   6.488  0.00  0.00    -0.248 N 
ATOM      8  CA  LIG    1       25.129 -29.920   7.010  0.00  0.00    +0.137 C 
ATOM      9  C   LIG    1       25.501 -30.214   8.282  0.00  0.00    +0.057 C 
ATOM     10 CL   LIG    1       25.127 -31.716   9.094  0.00  0.00    -0.085 Cl
ATOM     11  C   LIG    1       26.247 -29.295   9.228  0.00  0.00    +0.120 C 
ATOM     12  S   LIG    1       26.189 -27.538   8.773  0.00  0.00    -0.130 S 
ATOM     13  C   LIG    1       25.263 -27.961   5.377  0.00  0.00    +0.244 C 
ATOM     14  O   LIG    1       24.597 -28.215   4.405  0.00  0.00    -0.273 OA
BRANCH   8  15
ATOM     15  C   LIG    1       24.316 -30.906   6.198  0.00  0.00    +0.352 C 
ATOM     16  O   LIG    1       24.644 -32.069   6.016  0.00  0.00    -0.244 OA
BRANCH  15  17
ATOM     17  OXT LIG    1       23.163 -30.457   5.669  0.00  0.00    -0.476 OA
ATOM     18  HXT LIG    1       22.676 -31.027   5.034  0.00  0.00    +0.295 HD
ENDBRANCH  15  17
ENDBRANCH   8  15
ENDBRANCH   2   5
BRANCH   1  19
ATOM     19  CA  LIG    1       23.880 -23.557   6.620  0.00  0.00    +0.168 C 
BRANCH  19  20
ATOM     20  C   LIG    1       23.914 -22.173   5.992  0.00  0.00    -0.022 A 
ATOM     21  C   LIG    1       25.142 -21.594   5.629  0.00  0.00    +0.006 A 
ATOM     22  C   LIG    1       25.180 -20.354   4.986  0.00  0.00    +0.000 A 
ATOM     23  C   LIG    1       23.997 -19.675   4.706  0.00  0.00    +0.000 A 
ATOM     24  C   LIG    1       22.773 -20.226   5.078  0.00  0.00    +0.000 A 
ATOM     25  C   LIG    1       22.731 -21.466   5.718  0.00  0.00    +0.006 A 
ENDBRANCH  19  20
BRANCH  19  26
ATOM     26  N   LIG    1       22.492 -24.039   6.763  0.00  0.00    -0.316 NA
ATOM     27  H1  LIG    1       22.101 -24.189   5.834  0.00  0.00    +0.119 HD
ATOM     28  H2  LIG    1       22.541 -24.981   7.162  0.00  0.00    +0.119 HD
ENDBRANCH  19  26
ENDBRANCH   1  19
TORSDOF 6
ENDMDL
MODEL 7
REMARK VINA RESULT:      -6.4      7.667      9.271
REMARK  Name = *****
REMARK                            x       y       z     vdW  Elec       q    Type
REMARK                         _______ _______ _______ _____ _____    ______ ____
ROOT
ATOM      1  C   LIG    1       25.770 -28.966  11.923  0.00  0.00    +0.235 C 
ATOM      2  N   LIG    1       25.845 -30.022  11.042  0.00  0.00    -0.300 N 
ATOM      3  H   LIG    1       25.279 -30.848  11.229  0.00  0.00    +0.150 HD
ATOM      4  O   LIG    1       26.386 -27.918  11.731  0.00  0.00    -0.274 OA
ENDROOT
BRANCH   2   5
ATOM      5  CA  LIG    1       26.696 -30.008   9.814  0.00  0.00    +0.191 C 
ATOM      6  C   LIG    1       26.537 -31.239   8.859  0.00  0.00    +0.169 C 
ATOM      7  N   LIG    1       25.727 -30.380   8.010  0.00  0.00    -0.248 N 
ATOM      8  CA  LIG    1       25.033 -30.822   6.912  0.00  0.00    +0.137 C 
ATOM      9  C   LIG    1       24.770 -32.148   6.798  0.00  0.00    +0.057 C 
ATOM     10 CL   LIG    1       23.891 -32.866   5.468  0.00  0.00    -0.085 Cl
ATOM     11  C   LIG    1       25.136 -33.220   7.805  0.00  0.00    +0.120 C 
ATOM     12  S   LIG    1       25.505 -32.594   9.469  0.00  0.00    -0.130 S 
ATOM     13  C   LIG    1       26.115 -29.217   8.578  0.00  0.00    +0.244 C 
ATOM     14  O   LIG    1       25.915 -28.084   8.217  0.00  0.00    -0.273 OA
BRANCH   8  15
ATOM     15  C   LIG    1       24.540 -29.846   5.863  0.00  0.00    +0.352 C 
ATOM     16  O   LIG    1       25.280 -29.200   5.137  0.00  0.00    -0.244 OA
BRANCH  15  17
ATOM     17  OXT LIG    1       23.208 -29.711   5.733  0.00  0.00    -0.476 OA
ATOM     18  HXT LIG    1       22.851 -29.233   4.953  0.00  0.00    +0.295 HD
ENDBRANCH  15  17
ENDBRANCH   8  15
ENDBRANCH   2   5
BRANCH   1  19
ATOM     19  CA  LIG    1       24.824 -29.159  13.151  0.00  0.00    +0.168 C 
BRANCH  19  20
ATOM     20  C   LIG    1       23.529 -28.368  13.052  0.00  0.00    -0.022 A 
ATOM     21  C   LIG    1       22.346 -29.003  12.638  0.00  0.00    +0.006 A 
ATOM     22  C   LIG    1       21.137 -28.305  12.612  0.00  0.00    +0.000 A 
ATOM     23  C   LIG    1       21.095 -26.964  12.990  0.00  0.00    +0.000 A 
ATOM     24  C   LIG    1       22.263 -26.316  13.382  0.00  0.00    +0.000 A 
ATOM     25  C   LIG    1       23.472 -27.011  13.412  0.00  0.00    +0.006 A 
ENDBRANCH  19  20
BRANCH  19  26
ATOM     26  N   LIG    1       24.552 -30.597  13.349  0.00  0.00    -0.316 NA
ATOM     27  H1  LIG    1       25.314 -31.133  12.936  0.00  0.00    +0.119 HD
ATOM     28  H2  LIG    1       24.637 -30.783  14.352  0.00  0.00    +0.119 HD
ENDBRANCH  19  26
ENDBRANCH   1  19
TORSDOF 6
ENDMDL
MODEL 8
REMARK VINA RESULT:      -6.1      6.215      8.570
REMARK  Name = *****
REMARK                            x       y       z     vdW  Elec       q    Type
REMARK                         _______ _______ _______ _____ _____    ______ ____
ROOT
ATOM      1  C   LIG    1       24.610 -29.956   7.118  0.00  0.00    +0.235 C 
ATOM      2  N   LIG    1       24.077 -29.617   8.343  0.00  0.00    -0.300 N 
ATOM      3  H   LIG    1       23.479 -28.793   8.397  0.00  0.00    +0.150 HD
ATOM      4  O   LIG    1       25.297 -30.967   6.971  0.00  0.00    -0.274 OA
ENDROOT
BRANCH   2   5
ATOM      5  CA  LIG    1       24.311 -30.407   9.588  0.00  0.00    +0.191 C 
ATOM      6  C   LIG    1       25.513 -29.940  10.477  0.00  0.00    +0.169 C 
ATOM      7  N   LIG    1       24.530 -29.318  11.349  0.00  0.00    -0.248 N 
ATOM      8  CA  LIG    1       24.848 -28.506  12.408  0.00  0.00    +0.137 C 
ATOM      9  C   LIG    1       26.083 -27.945  12.450  0.00  0.00    +0.057 C 
ATOM     10 CL   LIG    1       26.638 -26.883  13.721  0.00  0.00    -0.085 Cl
ATOM     11  C   LIG    1       27.166 -28.092  11.399  0.00  0.00    +0.120 C 
ATOM     12  S   LIG    1       26.569 -28.649   9.777  0.00  0.00    -0.130 S 
ATOM     13  C   LIG    1       23.462 -29.979  10.849  0.00  0.00    +0.244 C 
ATOM     14  O   LIG    1       22.331 -30.031  11.261  0.00  0.00    -0.273 OA
BRANCH   8  15
ATOM     15  C   LIG    1       23.832 -28.213  13.492  0.00  0.00    +0.352 C 
ATOM     16  O   LIG    1       23.927 -28.622  14.640  0.00  0.00    -0.244 OA
BRANCH  15  17
ATOM     17  OXT LIG    1       22.781 -27.445  13.152  0.00  0.00    -0.476 OA
ATOM     18  HXT LIG    1       22.624 -26.608  13.642  0.00  0.00    +0.295 HD
ENDBRANCH  15  17
ENDBRANCH   8  15
ENDBRANCH   2   5
BRANCH   1  19
ATOM     19  CA  LIG    1       24.254 -29.013   5.926  0.00  0.00    +0.168 C 
BRANCH  19  20
ATOM     20  C   LIG    1       24.768 -27.593   6.098  0.00  0.00    -0.022 A 
ATOM     21  C   LIG    1       26.148 -27.351   6.198  0.00  0.00    +0.006 A 
ATOM     22  C   LIG    1       26.636 -26.045   6.284  0.00  0.00    +0.000 A 
ATOM     23  C   LIG    1       25.753 -24.967   6.281  0.00  0.00    +0.000 A 
ATOM     24  C   LIG    1       24.381 -25.192   6.204  0.00  0.00    +0.000 A 
ATOM     25  C   LIG    1       23.890 -26.496   6.115  0.00  0.00    +0.006 A 
ENDBRANCH  19  20
BRANCH  19  26
ATOM     26  N   LIG    1       24.741 -29.603   4.662  0.00  0.00    -0.316 NA
ATOM     27  H1  LIG    1       24.456 -30.580   4.627  0.00  0.00    +0.119 HD
ATOM     28  H2  LIG    1       24.211 -29.165   3.903  0.00  0.00    +0.119 HD
ENDBRANCH  19  26
ENDBRANCH   1  19
TORSDOF 6
ENDMDL
MODEL 9
REMARK VINA RESULT:      -6.0      6.334      9.676
REMARK  Name = *****
REMARK                            x       y       z     vdW  Elec       q    Type
REMARK                         _______ _______ _______ _____ _____    ______ ____
ROOT
ATOM      1  C   LIG    1       25.118 -29.846   7.077  0.00  0.00    +0.235 C 
ATOM      2  N   LIG    1       25.397 -29.788   8.425  0.00  0.00    -0.300 N 
ATOM      3  H   LIG    1       24.905 -29.096   8.989  0.00  0.00    +0.150 HD
ATOM      4  O   LIG    1       25.636 -30.691   6.347  0.00  0.00    -0.274 OA
ENDROOT
BRANCH   2   5
ATOM      5  CA  LIG    1       26.363 -30.700   9.104  0.00  0.00    +0.191 C 
ATOM      6  C   LIG    1       27.106 -30.105  10.348  0.00  0.00    +0.169 C 
ATOM      7  N   LIG    1       26.183 -30.869  11.171  0.00  0.00    -0.248 N 
ATOM      8  CA  LIG    1       26.103 -30.761  12.537  0.00  0.00    +0.137 C 
ATOM      9  C   LIG    1       26.621 -29.657  13.134  0.00  0.00    +0.057 C 
ATOM     10 CL   LIG    1       26.590 -29.365  14.857  0.00  0.00    -0.085 Cl
ATOM     11  C   LIG    1       27.259 -28.477  12.428  0.00  0.00    +0.120 C 
ATOM     12  S   LIG    1       26.847 -28.343  10.665  0.00  0.00    -0.130 S 
ATOM     13  C   LIG    1       25.751 -31.680  10.181  0.00  0.00    +0.244 C 
ATOM     14  O   LIG    1       25.069 -32.672  10.245  0.00  0.00    -0.273 OA
BRANCH   8  15
ATOM     15  C   LIG    1       25.423 -31.834  13.361  0.00  0.00    +0.352 C 
ATOM     16  O   LIG    1       24.230 -31.829  13.629  0.00  0.00    -0.244 OA
BRANCH  15  17
ATOM     17  OXT LIG    1       26.192 -32.848  13.798  0.00  0.00    -0.476 OA
ATOM     18  HXT LIG    1       27.023 -32.643  14.279  0.00  0.00    +0.295 HD
ENDBRANCH  15  17
ENDBRANCH   8  15
ENDBRANCH   2   5
BRANCH   1  19
ATOM     19  CA  LIG    1       24.076 -28.813   6.542  0.00  0.00    +0.168 C 
BRANCH  19  20
ATOM     20  C   LIG    1       24.667 -27.440   6.268  0.00  0.00    -0.022 A 
ATOM     21  C   LIG    1       24.080 -26.599   5.307  0.00  0.00    +0.006 A 
ATOM     22  C   LIG    1       24.570 -25.308   5.097  0.00  0.00    +0.000 A 
ATOM     23  C   LIG    1       25.656 -24.844   5.837  0.00  0.00    +0.000 A 
ATOM     24  C   LIG    1       26.262 -25.673   6.777  0.00  0.00    +0.000 A 
ATOM     25  C   LIG    1       25.773 -26.962   6.991  0.00  0.00    +0.006 A 
ENDBRANCH  19  20
BRANCH  19  26
ATOM     26  N   LIG    1       23.411 -29.354   5.339  0.00  0.00    -0.316 NA
ATOM     27  H1  LIG    1       22.497 -28.913   5.246  0.00  0.00    +0.119 HD
ATOM     28  H2  LIG    1       23.933 -29.010   4.528  0.00  0.00    +0.119 HD
ENDBRANCH  19  26
ENDBRANCH   1  19
TORSDOF 6
ENDMDL
