MODEL 1
REMARK VINA RESULT:      -1.5      0.000      0.000
REMARK  Name = *****
REMARK                            x       y       z     vdW  Elec       q    Type
REMARK                         _______ _______ _______ _____ _____    ______ ____
ROOT
ATOM      1  C   LIG    1       25.803 -14.730   3.701  0.00  0.00    +0.130 C 
ATOM      2  C   LIG    1       24.437 -14.673   4.378  0.00  0.00    +0.238 C 
ATOM      3  O   LIG    1       24.001 -13.628   4.867  0.00  0.00    -0.274 OA
ATOM      4  N   LIG    1       23.676 -15.837   4.359  0.00  0.00    -0.228 N 
ATOM      5  C   LIG    1       22.360 -15.760   4.974  0.00  0.00    +0.143 C 
ATOM      6  C   LIG    1       24.069 -17.045   3.803  0.00  0.00    +0.317 C 
ATOM      7  O   LIG    1       23.319 -18.021   3.755  0.00  0.00    -0.252 OA
ATOM      8  N   LIG    1       25.373 -17.116   3.346  0.00  0.00    -0.228 N 
ATOM      9  C   LIG    1       25.851 -18.413   2.900  0.00  0.00    +0.143 C 
ATOM     10  C   LIG    1       26.322 -16.167   3.681  0.00  0.00    +0.238 C 
ATOM     11  O   LIG    1       27.499 -16.463   3.846  0.00  0.00    -0.274 OA
ENDROOT
BRANCH   1  12
ATOM     12  C   LIG    1       26.797 -13.748   4.445  0.00  0.00    +0.010 C 
ATOM     13  C   LIG    1       26.100 -12.644   5.262  0.00  0.00    +0.009 C 
BRANCH  12  14
ATOM     14  C   LIG    1       27.849 -13.140   3.475  0.00  0.00    +0.001 C 
ATOM     15  C   LIG    1       29.014 -12.444   4.171  0.00  0.00    +0.004 C 
ENDBRANCH  12  14
ENDBRANCH   1  12
BRANCH   1  16
ATOM     16  C   LIG    1       25.589 -14.370   2.192  0.00  0.00    +0.052 C 
BRANCH  16  18
ATOM     17  C   LIG    1       24.770 -12.027   1.818  0.00  0.00    +0.004 C 
ATOM     18  C   LIG    1       24.535 -13.344   1.868  0.00  0.00    -0.033 C 
ENDBRANCH  16  18
ENDBRANCH   1  16
TORSDOF 4
ENDMDL
MODEL 2
REMARK VINA RESULT:       0.4      3.051      6.346
REMARK  Name = *****
REMARK                            x       y       z     vdW  Elec       q    Type
REMARK                         _______ _______ _______ _____ _____    ______ ____
ROOT
ATOM      1  C   LIG    1       22.718 -18.947   4.604  0.00  0.00    +0.130 C 
ATOM      2  C   LIG    1       22.780 -17.428   4.472  0.00  0.00    +0.238 C 
ATOM      3  O   LIG    1       21.834 -16.712   4.809  0.00  0.00    -0.274 OA
ATOM      4  N   LIG    1       23.976 -16.884   4.019  0.00  0.00    -0.228 N 
ATOM      5  C   LIG    1       24.037 -15.434   3.934  0.00  0.00    +0.143 C 
ATOM      6  C   LIG    1       25.101 -17.609   3.652  0.00  0.00    +0.317 C 
ATOM      7  O   LIG    1       26.156 -17.063   3.326  0.00  0.00    -0.252 OA
ATOM      8  N   LIG    1       24.962 -18.985   3.621  0.00  0.00    -0.228 N 
ATOM      9  C   LIG    1       26.077 -19.753   3.095  0.00  0.00    +0.143 C 
ATOM     10  C   LIG    1       23.723 -19.600   3.656  0.00  0.00    +0.238 C 
ATOM     11  O   LIG    1       23.503 -20.640   3.047  0.00  0.00    -0.274 OA
ENDROOT
BRANCH   1  12
ATOM     12  C   LIG    1       21.237 -19.436   4.329  0.00  0.00    +0.010 C 
ATOM     13  C   LIG    1       21.036 -20.955   4.478  0.00  0.00    +0.009 C 
BRANCH  12  14
ATOM     14  C   LIG    1       20.706 -18.938   2.954  0.00  0.00    +0.001 C 
ATOM     15  C   LIG    1       19.350 -18.243   3.021  0.00  0.00    +0.004 C 
ENDBRANCH  12  14
ENDBRANCH   1  12
BRANCH   1  16
ATOM     16  C   LIG    1       23.236 -19.311   6.036  0.00  0.00    +0.052 C 
BRANCH  16  18
ATOM     17  C   LIG    1       24.815 -20.998   7.017  0.00  0.00    +0.004 C 
ATOM     18  C   LIG    1       23.758 -20.708   6.247  0.00  0.00    -0.033 C 
ENDBRANCH  16  18
ENDBRANCH   1  16
TORSDOF 4
ENDMDL
MODEL 3
REMARK VINA RESULT:       0.5      3.949      6.864
REMARK  Name = *****
REMARK                            x       y       z     vdW  Elec       q    Type
REMARK                         _______ _______ _______ _____ _____    ______ ____
ROOT
ATOM      1  C   LIG    1       24.483 -20.394   5.125  0.00  0.00    +0.130 C 
ATOM      2  C   LIG    1       25.561 -20.750   6.145  0.00  0.00    +0.238 C 
ATOM      3  O   LIG    1       25.354 -21.572   7.041  0.00  0.00    -0.274 OA
ATOM      4  N   LIG    1       26.806 -20.158   5.976  0.00  0.00    -0.228 N 
ATOM      5  C   LIG    1       27.838 -20.535   6.931  0.00  0.00    +0.143 C 
ATOM      6  C   LIG    1       27.138 -19.253   4.978  0.00  0.00    +0.317 C 
ATOM      7  O   LIG    1       28.282 -18.819   4.840  0.00  0.00    -0.252 OA
ATOM      8  N   LIG    1       26.101 -18.820   4.172  0.00  0.00    -0.228 N 
ATOM      9  C   LIG    1       26.395 -17.762   3.222  0.00  0.00    +0.143 C 
ATOM     10  C   LIG    1       24.775 -19.028   4.505  0.00  0.00    +0.238 C 
ATOM     11  O   LIG    1       23.905 -18.212   4.226  0.00  0.00    -0.274 OA
ENDROOT
BRANCH   1  12
ATOM     12  C   LIG    1       23.064 -20.438   5.827  0.00  0.00    +0.010 C 
ATOM     13  C   LIG    1       22.997 -21.362   7.058  0.00  0.00    +0.009 C 
BRANCH  12  14
ATOM     14  C   LIG    1       21.927 -20.773   4.820  0.00  0.00    +0.001 C 
ATOM     15  C   LIG    1       21.193 -19.552   4.277  0.00  0.00    +0.004 C 
ENDBRANCH  12  14
ENDBRANCH   1  12
BRANCH   1  16
ATOM     16  C   LIG    1       24.617 -21.401   3.934  0.00  0.00    +0.052 C 
BRANCH  16  18
ATOM     17  C   LIG    1       23.559 -20.482   1.853  0.00  0.00    +0.004 C 
ATOM     18  C   LIG    1       24.653 -20.826   2.543  0.00  0.00    -0.033 C 
ENDBRANCH  16  18
ENDBRANCH   1  16
TORSDOF 4
ENDMDL
MODEL 4
REMARK VINA RESULT:       0.8      1.110      3.533
REMARK  Name = *****
REMARK                            x       y       z     vdW  Elec       q    Type
REMARK                         _______ _______ _______ _____ _____    ______ ____
ROOT
ATOM      1  C   LIG    1       25.092 -14.721   3.694  0.00  0.00    +0.130 C 
ATOM      2  C   LIG    1       25.889 -15.966   3.316  0.00  0.00    +0.238 C 
ATOM      3  O   LIG    1       27.033 -15.886   2.862  0.00  0.00    -0.274 OA
ATOM      4  N   LIG    1       25.293 -17.196   3.571  0.00  0.00    -0.228 N 
ATOM      5  C   LIG    1       26.078 -18.376   3.243  0.00  0.00    +0.143 C 
ATOM      6  C   LIG    1       24.029 -17.380   4.111  0.00  0.00    +0.317 C 
ATOM      7  O   LIG    1       23.587 -18.498   4.379  0.00  0.00    -0.252 OA
ATOM      8  N   LIG    1       23.264 -16.242   4.287  0.00  0.00    -0.228 N 
ATOM      9  C   LIG    1       21.886 -16.426   4.707  0.00  0.00    +0.143 C 
ATOM     10  C   LIG    1       23.596 -15.035   3.698  0.00  0.00    +0.238 C 
ATOM     11  O   LIG    1       22.739 -14.250   3.309  0.00  0.00    -0.274 OA
ENDROOT
BRANCH   1  12
ATOM     12  C   LIG    1       25.450 -13.547   2.694  0.00  0.00    +0.010 C 
ATOM     13  C   LIG    1       26.960 -13.275   2.555  0.00  0.00    +0.009 C 
BRANCH  12  14
ATOM     14  C   LIG    1       24.680 -12.239   3.033  0.00  0.00    +0.001 C 
ATOM     15  C   LIG    1       24.224 -11.447   1.812  0.00  0.00    +0.004 C 
ENDBRANCH  12  14
ENDBRANCH   1  12
BRANCH   1  16
ATOM     16  C   LIG    1       25.426 -14.389   5.187  0.00  0.00    +0.052 C 
BRANCH  16  18
ATOM     17  C   LIG    1       27.672 -13.468   5.827  0.00  0.00    +0.004 C 
ATOM     18  C   LIG    1       26.404 -13.272   5.444  0.00  0.00    -0.033 C 
ENDBRANCH  16  18
ENDBRANCH   1  16
TORSDOF 4
ENDMDL
MODEL 5
REMARK VINA RESULT:       1.2      1.758      4.714
REMARK  Name = *****
REMARK                            x       y       z     vdW  Elec       q    Type
REMARK                         _______ _______ _______ _____ _____    ______ ____
ROOT
ATOM      1  C   LIG    1       24.318 -14.664   3.776  0.00  0.00    +0.130 C 
ATOM      2  C   LIG    1       25.638 -15.428   3.740  0.00  0.00    +0.238 C 
ATOM      3  O   LIG    1       25.714 -16.563   3.263  0.00  0.00    -0.274 OA
ATOM      4  N   LIG    1       26.764 -14.762   4.208  0.00  0.00    -0.228 N 
ATOM      5  C   LIG    1       28.024 -15.486   4.133  0.00  0.00    +0.143 C 
ATOM      6  C   LIG    1       26.779 -13.475   4.729  0.00  0.00    +0.317 C 
ATOM      7  O   LIG    1       27.824 -12.914   5.061  0.00  0.00    -0.252 OA
ATOM      8  N   LIG    1       25.549 -12.870   4.905  0.00  0.00    -0.228 N 
ATOM      9  C   LIG    1       25.531 -11.588   5.587  0.00  0.00    +0.143 C 
ATOM     10  C   LIG    1       24.364 -13.584   4.857  0.00  0.00    +0.238 C 
ATOM     11  O   LIG    1       23.406 -13.291   5.563  0.00  0.00    -0.274 OA
ENDROOT
BRANCH   1  12
ATOM     12  C   LIG    1       23.129 -15.684   4.005  0.00  0.00    +0.010 C 
ATOM     13  C   LIG    1       22.342 -15.454   5.309  0.00  0.00    +0.009 C 
BRANCH  12  14
ATOM     14  C   LIG    1       23.602 -17.162   3.896  0.00  0.00    +0.001 C 
ATOM     15  C   LIG    1       22.583 -18.183   4.390  0.00  0.00    +0.004 C 
ENDBRANCH  12  14
ENDBRANCH   1  12
BRANCH   1  16
ATOM     16  C   LIG    1       24.204 -13.869   2.433  0.00  0.00    +0.052 C 
BRANCH  16  18
ATOM     17  C   LIG    1       24.457 -11.447   1.823  0.00  0.00    +0.004 C 
ATOM     18  C   LIG    1       23.841 -12.410   2.521  0.00  0.00    -0.033 C 
ENDBRANCH  16  18
ENDBRANCH   1  16
TORSDOF 4
ENDMDL
MODEL 6
REMARK VINA RESULT:       1.2      3.163      6.244
REMARK  Name = *****
REMARK                            x       y       z     vdW  Elec       q    Type
REMARK                         _______ _______ _______ _____ _____    ______ ____
ROOT
ATOM      1  C   LIG    1       23.028 -19.175   4.167  0.00  0.00    +0.130 C 
ATOM      2  C   LIG    1       24.466 -19.069   3.670  0.00  0.00    +0.238 C 
ATOM      3  O   LIG    1       25.105 -20.067   3.328  0.00  0.00    -0.274 OA
ATOM      4  N   LIG    1       25.001 -17.791   3.556  0.00  0.00    -0.228 N 
ATOM      5  C   LIG    1       26.359 -17.700   3.044  0.00  0.00    +0.143 C 
ATOM      6  C   LIG    1       24.345 -16.613   3.883  0.00  0.00    +0.317 C 
ATOM      7  O   LIG    1       24.849 -15.506   3.690  0.00  0.00    -0.252 OA
ATOM      8  N   LIG    1       23.108 -16.746   4.487  0.00  0.00    -0.228 N 
ATOM      9  C   LIG    1       22.473 -15.534   4.974  0.00  0.00    +0.143 C 
ATOM     10  C   LIG    1       22.670 -17.950   5.009  0.00  0.00    +0.238 C 
ATOM     11  O   LIG    1       21.969 -18.000   6.013  0.00  0.00    -0.274 OA
ENDROOT
BRANCH   1  12
ATOM     12  C   LIG    1       22.851 -20.525   4.976  0.00  0.00    +0.010 C 
ATOM     13  C   LIG    1       21.476 -21.194   4.793  0.00  0.00    +0.009 C 
BRANCH  12  14
ATOM     14  C   LIG    1       23.186 -20.347   6.484  0.00  0.00    +0.001 C 
ATOM     15  C   LIG    1       24.567 -20.857   6.883  0.00  0.00    +0.004 C 
ENDBRANCH  12  14
ENDBRANCH   1  12
BRANCH   1  16
ATOM     16  C   LIG    1       22.094 -19.074   2.915  0.00  0.00    +0.052 C 
BRANCH  16  18
ATOM     17  C   LIG    1       19.609 -18.742   3.045  0.00  0.00    +0.004 C 
ATOM     18  C   LIG    1       20.849 -18.236   3.046  0.00  0.00    -0.033 C 
ENDBRANCH  16  18
ENDBRANCH   1  16
TORSDOF 4
ENDMDL
MODEL 7
REMARK VINA RESULT:       1.3      2.013      4.426
REMARK  Name = *****
REMARK                            x       y       z     vdW  Elec       q    Type
REMARK                         _______ _______ _______ _____ _____    ______ ____
ROOT
ATOM      1  C   LIG    1       24.810 -14.736   3.933  0.00  0.00    +0.130 C 
ATOM      2  C   LIG    1       24.232 -13.619   3.069  0.00  0.00    +0.238 C 
ATOM      3  O   LIG    1       23.023 -13.537   2.844  0.00  0.00    -0.274 OA
ATOM      4  N   LIG    1       25.123 -12.658   2.603  0.00  0.00    -0.228 N 
ATOM      5  C   LIG    1       24.555 -11.577   1.813  0.00  0.00    +0.143 C 
ATOM      6  C   LIG    1       26.491 -12.650   2.836  0.00  0.00    +0.317 C 
ATOM      7  O   LIG    1       27.215 -11.730   2.454  0.00  0.00    -0.252 OA
ATOM      8  N   LIG    1       27.011 -13.759   3.477  0.00  0.00    -0.228 N 
ATOM      9  C   LIG    1       28.456 -13.841   3.594  0.00  0.00    +0.143 C 
ATOM     10  C   LIG    1       26.292 -14.933   3.616  0.00  0.00    +0.238 C 
ATOM     11  O   LIG    1       26.837 -16.030   3.585  0.00  0.00    -0.274 OA
ENDROOT
BRANCH   1  12
ATOM     12  C   LIG    1       23.972 -16.059   3.706  0.00  0.00    +0.010 C 
ATOM     13  C   LIG    1       22.812 -16.251   4.701  0.00  0.00    +0.009 C 
BRANCH  12  14
ATOM     14  C   LIG    1       24.879 -17.322   3.662  0.00  0.00    +0.001 C 
ATOM     15  C   LIG    1       24.117 -18.642   3.699  0.00  0.00    +0.004 C 
ENDBRANCH  12  14
ENDBRANCH   1  12
BRANCH   1  16
ATOM     16  C   LIG    1       24.790 -14.235   5.416  0.00  0.00    +0.052 C 
BRANCH  16  18
ATOM     17  C   LIG    1       24.106 -11.847   5.780  0.00  0.00    +0.004 C 
ATOM     18  C   LIG    1       25.065 -12.773   5.656  0.00  0.00    -0.033 C 
ENDBRANCH  16  18
ENDBRANCH   1  16
TORSDOF 4
ENDMDL
MODEL 8
REMARK VINA RESULT:       1.4      1.887      3.983
REMARK  Name = *****
REMARK                            x       y       z     vdW  Elec       q    Type
REMARK                         _______ _______ _______ _____ _____    ______ ____
ROOT
ATOM      1  C   LIG    1       26.242 -15.022   3.755  0.00  0.00    +0.130 C 
ATOM      2  C   LIG    1       24.751 -15.238   4.002  0.00  0.00    +0.238 C 
ATOM      3  O   LIG    1       24.327 -16.271   4.524  0.00  0.00    -0.274 OA
ATOM      4  N   LIG    1       23.901 -14.188   3.674  0.00  0.00    -0.228 N 
ATOM      5  C   LIG    1       22.487 -14.389   3.950  0.00  0.00    +0.143 C 
ATOM      6  C   LIG    1       24.293 -12.979   3.118  0.00  0.00    +0.317 C 
ATOM      7  O   LIG    1       23.498 -12.061   2.917  0.00  0.00    -0.252 OA
ATOM      8  N   LIG    1       25.622 -12.875   2.749  0.00  0.00    -0.228 N 
ATOM      9  C   LIG    1       26.020 -11.679   2.029  0.00  0.00    +0.143 C 
ATOM     10  C   LIG    1       26.448 -13.981   2.655  0.00  0.00    +0.238 C 
ATOM     11  O   LIG    1       27.334 -14.053   1.812  0.00  0.00    -0.274 OA
ENDROOT
BRANCH   1  12
ATOM     12  C   LIG    1       26.918 -16.408   3.396  0.00  0.00    +0.010 C 
ATOM     13  C   LIG    1       25.923 -17.572   3.232  0.00  0.00    +0.009 C 
BRANCH  12  14
ATOM     14  C   LIG    1       28.048 -16.781   4.398  0.00  0.00    +0.001 C 
ATOM     15  C   LIG    1       28.105 -18.263   4.754  0.00  0.00    +0.004 C 
ENDBRANCH  12  14
ENDBRANCH   1  12
BRANCH   1  16
ATOM     16  C   LIG    1       26.835 -14.357   5.041  0.00  0.00    +0.052 C 
BRANCH  16  18
ATOM     17  C   LIG    1       28.702 -12.700   4.770  0.00  0.00    +0.004 C 
ATOM     18  C   LIG    1       27.396 -12.966   4.904  0.00  0.00    -0.033 C 
ENDBRANCH  16  18
ENDBRANCH   1  16
TORSDOF 4
ENDMDL
