MODEL 1
REMARK VINA RESULT:      -4.3      0.000      0.000
REMARK  Name = *****
REMARK                            x       y       z     vdW  Elec       q    Type
REMARK                         _______ _______ _______ _____ _____    ______ ____
ROOT
ATOM      1  C   LIG    1       26.156 -14.825   3.293  0.00  0.00    +0.190 C 
ENDROOT
BRANCH   1   2
ATOM      2  C   LIG    1       24.647 -14.577   3.646  0.00  0.00    +0.036 C 
ATOM      3  C   LIG    1       24.401 -13.786   4.954  0.00  0.00    +0.007 C 
ATOM      4  C   LIG    1       24.670 -12.288   4.839  0.00  0.00    +0.000 C 
ATOM      5  C   LIG    1       23.836 -11.663   3.729  0.00  0.00    +0.000 C 
ATOM      6  C   LIG    1       24.020 -12.381   2.397  0.00  0.00    +0.000 C 
ATOM      7  C   LIG    1       23.837 -13.896   2.512  0.00  0.00    +0.007 C 
ENDBRANCH   1   2
BRANCH   1   8
ATOM      8  C   LIG    1       27.108 -13.873   4.058  0.00  0.00    -0.005 A 
ATOM      9  C   LIG    1       27.083 -13.763   5.460  0.00  0.00    +0.007 A 
ATOM     10  C   LIG    1       27.959 -12.921   6.148  0.00  0.00    +0.000 A 
ATOM     11  C   LIG    1       28.860 -12.130   5.448  0.00  0.00    +0.000 A 
ATOM     12  C   LIG    1       28.892 -12.191   4.058  0.00  0.00    +0.000 A 
ATOM     13  C   LIG    1       28.036 -13.062   3.372  0.00  0.00    +0.007 A 
ENDBRANCH   1   8
BRANCH   1  14
ATOM     14  C   LIG    1       26.517 -16.324   3.616  0.00  0.00    +0.345 C 
ATOM     15  O   LIG    1       27.597 -16.747   4.010  0.00  0.00    -0.247 OA
BRANCH  14  16
ATOM     16  O   LIG    1       25.433 -17.122   3.366  0.00  0.00    -0.450 OA
BRANCH  16  17
ATOM     17  C   LIG    1       25.748 -18.283   2.591  0.00  0.00    +0.321 C 
BRANCH  17  19
ATOM     18  C   LIG    1       24.801 -20.416   3.893  0.00  0.00    -0.083 C 
ATOM     19  C   LIG    1       25.279 -19.455   3.327  0.00  0.00    -0.060 C 
BRANCH  18  20
ATOM     20  C   LIG    1       24.183 -21.559   4.586  0.00  0.00    +0.174 C 
BRANCH  20  21
ATOM     21  N   LIG    1       23.031 -21.188   5.427  0.00  0.00    -0.292 NA
BRANCH  21  23
ATOM     22  C   LIG    1       24.914 -20.745   7.060  0.00  0.00    +0.020 C 
ATOM     23  C   LIG    1       23.421 -20.665   6.748  0.00  0.00    +0.082 C 
ENDBRANCH  21  23
BRANCH  21  24
ATOM     24  C   LIG    1       22.139 -20.257   4.704  0.00  0.00    +0.082 C 
ATOM     25  C   LIG    1       22.270 -18.795   5.133  0.00  0.00    +0.020 C 
ENDBRANCH  21  24
ENDBRANCH  20  21
ENDBRANCH  18  20
ENDBRANCH  17  19
ENDBRANCH  16  17
ENDBRANCH  14  16
ENDBRANCH   1  14
BRANCH   1  26
ATOM     26  O   LIG    1       26.364 -14.582   1.891  0.00  0.00    -0.373 OA
ATOM     27  H   LIG    1       26.409 -13.613   1.784  0.00  0.00    +0.211 HD
ENDBRANCH   1  26
TORSDOF 11
ENDMDL
MODEL 2
REMARK VINA RESULT:      -3.4      2.645      7.589
REMARK  Name = *****
REMARK                            x       y       z     vdW  Elec       q    Type
REMARK                         _______ _______ _______ _____ _____    ______ ____
ROOT
ATOM      1  C   LIG    1       26.039 -19.684   4.557  0.00  0.00    +0.190 C 
ENDROOT
BRANCH   1   2
ATOM      2  C   LIG    1       26.767 -19.288   5.889  0.00  0.00    +0.036 C 
ATOM      3  C   LIG    1       26.573 -20.280   7.062  0.00  0.00    +0.007 C 
ATOM      4  C   LIG    1       27.393 -21.562   6.939  0.00  0.00    +0.000 C 
ATOM      5  C   LIG    1       28.878 -21.253   6.804  0.00  0.00    +0.000 C 
ATOM      6  C   LIG    1       29.163 -20.281   5.664  0.00  0.00    +0.000 C 
ATOM      7  C   LIG    1       28.287 -19.027   5.725  0.00  0.00    +0.007 C 
ENDBRANCH   1   2
BRANCH   1   8
ATOM      8  C   LIG    1       24.552 -20.052   4.781  0.00  0.00    -0.005 A 
ATOM      9  C   LIG    1       23.504 -19.240   4.309  0.00  0.00    +0.007 A 
ATOM     10  C   LIG    1       22.164 -19.587   4.492  0.00  0.00    +0.000 A 
ATOM     11  C   LIG    1       21.831 -20.740   5.192  0.00  0.00    +0.000 A 
ATOM     12  C   LIG    1       22.842 -21.551   5.698  0.00  0.00    +0.000 A 
ATOM     13  C   LIG    1       24.185 -21.218   5.484  0.00  0.00    +0.007 A 
ENDBRANCH   1   8
BRANCH   1  14
ATOM     14  C   LIG    1       26.152 -18.489   3.537  0.00  0.00    +0.345 C 
ATOM     15  O   LIG    1       26.019 -18.551   2.321  0.00  0.00    -0.247 OA
BRANCH  14  16
ATOM     16  O   LIG    1       26.454 -17.336   4.211  0.00  0.00    -0.450 OA
BRANCH  16  17
ATOM     17  C   LIG    1       27.397 -16.506   3.525  0.00  0.00    +0.321 C 
BRANCH  17  19
ATOM     18  C   LIG    1       26.128 -14.205   3.041  0.00  0.00    -0.083 C 
ATOM     19  C   LIG    1       26.752 -15.224   3.254  0.00  0.00    -0.060 C 
BRANCH  18  20
ATOM     20  C   LIG    1       25.342 -12.992   2.758  0.00  0.00    +0.174 C 
BRANCH  20  21
ATOM     21  N   LIG    1       24.021 -12.978   3.413  0.00  0.00    -0.292 NA
BRANCH  21  23
ATOM     22  C   LIG    1       23.248 -15.271   4.156  0.00  0.00    +0.020 C 
ATOM     23  C   LIG    1       23.912 -13.945   4.520  0.00  0.00    +0.082 C 
ENDBRANCH  21  23
BRANCH  21  24
ATOM     24  C   LIG    1       23.668 -11.607   3.839  0.00  0.00    +0.082 C 
ATOM     25  C   LIG    1       23.408 -11.458   5.338  0.00  0.00    +0.020 C 
ENDBRANCH  21  24
ENDBRANCH  20  21
ENDBRANCH  18  20
ENDBRANCH  17  19
ENDBRANCH  16  17
ENDBRANCH  14  16
ENDBRANCH   1  14
BRANCH   1  26
ATOM     26  O   LIG    1       26.674 -20.846   3.994  0.00  0.00    -0.373 OA
ATOM     27  H   LIG    1       27.354 -21.124   4.635  0.00  0.00    +0.211 HD
ENDBRANCH   1  26
TORSDOF 11
ENDMDL
MODEL 3
REMARK VINA RESULT:      -2.2      2.726      6.971
REMARK  Name = *****
REMARK                            x       y       z     vdW  Elec       q    Type
REMARK                         _______ _______ _______ _____ _____    ______ ____
ROOT
ATOM      1  C   LIG    1       25.589 -19.887   4.820  0.00  0.00    +0.190 C 
ENDROOT
BRANCH   1   2
ATOM      2  C   LIG    1       24.731 -21.201   4.795  0.00  0.00    +0.036 C 
ATOM      3  C   LIG    1       24.061 -21.572   6.140  0.00  0.00    +0.007 C 
ATOM      4  C   LIG    1       22.839 -20.724   6.485  0.00  0.00    +0.000 C 
ATOM      5  C   LIG    1       21.791 -20.797   5.383  0.00  0.00    +0.000 C 
ATOM      6  C   LIG    1       22.366 -20.442   4.017  0.00  0.00    +0.000 C 
ATOM      7  C   LIG    1       23.641 -21.223   3.691  0.00  0.00    +0.007 C 
ENDBRANCH   1   2
BRANCH   1   8
ATOM      8  C   LIG    1       26.954 -20.084   5.523  0.00  0.00    -0.005 A 
ATOM      9  C   LIG    1       27.174 -21.124   6.445  0.00  0.00    +0.007 A 
ATOM     10  C   LIG    1       28.414 -21.314   7.059  0.00  0.00    +0.000 A 
ATOM     11  C   LIG    1       29.461 -20.440   6.800  0.00  0.00    +0.000 A 
ATOM     12  C   LIG    1       29.270 -19.383   5.916  0.00  0.00    +0.000 A 
ATOM     13  C   LIG    1       28.036 -19.215   5.275  0.00  0.00    +0.007 A 
ENDBRANCH   1   8
BRANCH   1  14
ATOM     14  C   LIG    1       25.808 -19.392   3.341  0.00  0.00    +0.345 C 
ATOM     15  O   LIG    1       26.058 -20.090   2.366  0.00  0.00    -0.247 OA
BRANCH  14  16
ATOM     16  O   LIG    1       25.704 -18.027   3.293  0.00  0.00    -0.450 OA
BRANCH  16  17
ATOM     17  C   LIG    1       26.969 -17.358   3.313  0.00  0.00    +0.321 C 
BRANCH  17  19
ATOM     18  C   LIG    1       26.461 -14.742   3.124  0.00  0.00    -0.083 C 
ATOM     19  C   LIG    1       26.717 -15.920   3.257  0.00  0.00    -0.060 C 
BRANCH  18  20
ATOM     20  C   LIG    1       26.162 -13.314   2.919  0.00  0.00    +0.174 C 
BRANCH  20  21
ATOM     21  N   LIG    1       25.140 -12.787   3.842  0.00  0.00    -0.292 NA
BRANCH  21  23
ATOM     22  C   LIG    1       23.361 -14.548   4.216  0.00  0.00    +0.020 C 
ATOM     23  C   LIG    1       23.778 -13.251   3.526  0.00  0.00    +0.082 C 
ENDBRANCH  21  23
BRANCH  21  24
ATOM     24  C   LIG    1       25.511 -13.071   5.245  0.00  0.00    +0.082 C 
ATOM     25  C   LIG    1       27.017 -13.089   5.507  0.00  0.00    +0.020 C 
ENDBRANCH  21  24
ENDBRANCH  20  21
ENDBRANCH  18  20
ENDBRANCH  17  19
ENDBRANCH  16  17
ENDBRANCH  14  16
ENDBRANCH   1  14
BRANCH   1  26
ATOM     26  O   LIG    1       24.885 -18.872   5.557  0.00  0.00    -0.373 OA
ATOM     27  H   LIG    1       24.115 -18.622   5.013  0.00  0.00    +0.211 HD
ENDBRANCH   1  26
TORSDOF 11
ENDMDL
MODEL 4
REMARK VINA RESULT:      -1.4      1.638      3.392
REMARK  Name = *****
REMARK                            x       y       z     vdW  Elec       q    Type
REMARK                         _______ _______ _______ _____ _____    ______ ____
ROOT
ATOM      1  C   LIG    1       25.570 -14.839   3.236  0.00  0.00    +0.190 C 
ENDROOT
BRANCH   1   2
ATOM      2  C   LIG    1       26.051 -13.518   3.934  0.00  0.00    +0.036 C 
ATOM      3  C   LIG    1       25.909 -12.236   3.079  0.00  0.00    +0.007 C 
ATOM      4  C   LIG    1       24.480 -11.712   2.969  0.00  0.00    +0.000 C 
ATOM      5  C   LIG    1       23.884 -11.448   4.345  0.00  0.00    +0.000 C 
ATOM      6  C   LIG    1       23.978 -12.665   5.257  0.00  0.00    +0.000 C 
ATOM      7  C   LIG    1       25.389 -13.254   5.312  0.00  0.00    +0.007 C 
ENDBRANCH   1   2
BRANCH   1   8
ATOM      8  C   LIG    1       26.398 -16.073   3.668  0.00  0.00    -0.005 A 
ATOM      9  C   LIG    1       25.971 -17.387   3.399  0.00  0.00    +0.007 A 
ATOM     10  C   LIG    1       26.732 -18.498   3.769  0.00  0.00    +0.000 A 
ATOM     11  C   LIG    1       27.925 -18.328   4.459  0.00  0.00    +0.000 A 
ATOM     12  C   LIG    1       28.362 -17.044   4.768  0.00  0.00    +0.000 A 
ATOM     13  C   LIG    1       27.615 -15.930   4.366  0.00  0.00    +0.007 A 
ENDBRANCH   1   8
BRANCH   1  14
ATOM     14  C   LIG    1       24.047 -15.066   3.566  0.00  0.00    +0.345 C 
ATOM     15  O   LIG    1       23.120 -14.313   3.293  0.00  0.00    -0.247 OA
BRANCH  14  16
ATOM     16  O   LIG    1       23.894 -16.246   4.244  0.00  0.00    -0.450 OA
BRANCH  16  17
ATOM     17  C   LIG    1       22.529 -16.563   4.533  0.00  0.00    +0.321 C 
BRANCH  17  19
ATOM     18  C   LIG    1       22.379 -19.208   4.883  0.00  0.00    -0.083 C 
ATOM     19  C   LIG    1       22.445 -18.001   4.779  0.00  0.00    -0.060 C 
BRANCH  18  20
ATOM     20  C   LIG    1       22.270 -20.674   4.977  0.00  0.00    +0.174 C 
BRANCH  20  21
ATOM     21  N   LIG    1       23.490 -21.325   5.489  0.00  0.00    -0.292 NA
BRANCH  21  23
ATOM     22  C   LIG    1       24.219 -20.858   3.110  0.00  0.00    +0.020 C 
ATOM     23  C   LIG    1       24.529 -21.503   4.459  0.00  0.00    +0.082 C 
ENDBRANCH  21  23
BRANCH  21  24
ATOM     24  C   LIG    1       24.002 -20.607   6.676  0.00  0.00    +0.082 C 
ATOM     25  C   LIG    1       25.526 -20.503   6.740  0.00  0.00    +0.020 C 
ENDBRANCH  21  24
ENDBRANCH  20  21
ENDBRANCH  18  20
ENDBRANCH  17  19
ENDBRANCH  16  17
ENDBRANCH  14  16
ENDBRANCH   1  14
BRANCH   1  26
ATOM     26  O   LIG    1       25.729 -14.710   1.812  0.00  0.00    -0.373 OA
ATOM     27  H   LIG    1       25.956 -15.599   1.480  0.00  0.00    +0.211 HD
ENDBRANCH   1  26
TORSDOF 11
ENDMDL
