MODEL 1
REMARK VINA RESULT:      -5.0      0.000      0.000
REMARK  Name = *****
REMARK                            x       y       z     vdW  Elec       q    Type
REMARK                         _______ _______ _______ _____ _____    ______ ____
ROOT
ATOM      1  CA  ILE A  1       26.094 -13.999   4.267  0.00  0.00    +0.164 C 
ENDROOT
BRANCH   1   2
ATOM      2  N   ILE A  1       26.771 -13.314   5.388  0.00  0.00    -0.318 NA
ATOM      3  H1  ILE A  1       27.368 -13.953   5.912  0.00  0.00    +0.119 HD
ATOM      4  H2  ILE A  1       27.250 -12.455   5.144  0.00  0.00    +0.119 HD
ENDBRANCH   1   2
BRANCH   1   5
ATOM      5  CB  ILE A  1       24.601 -13.598   4.091  0.00  0.00    +0.013 C 
ATOM      6  CG2 ILE A  1       23.643 -14.780   4.289  0.00  0.00    +0.009 C 
BRANCH   5   8
ATOM      7  CD1 ILE A  1       23.888 -11.449   2.848  0.00  0.00    +0.004 C 
ATOM      8  CG1 ILE A  1       24.364 -12.895   2.733  0.00  0.00    +0.002 C 
ENDBRANCH   5   8
ENDBRANCH   1   5
BRANCH   1   9
ATOM      9  C   ILE A  1       26.874 -13.829   2.948  0.00  0.00    +0.322 C 
ATOM     10  O   ILE A  1       26.672 -14.491   1.936  0.00  0.00    -0.249 OA
BRANCH   9  11
ATOM     11  OXT ILE A  1       27.807 -12.848   2.987  0.00  0.00    -0.479 OA
ATOM     12  HXT ILE A  1       28.624 -13.168   3.411  0.00  0.00    +0.295 HD
ENDBRANCH   9  11
ENDBRANCH   1   9
TORSDOF 5
ENDMDL
MODEL 2
REMARK VINA RESULT:      -4.9      1.615      1.869
REMARK  Name = *****
REMARK                            x       y       z     vdW  Elec       q    Type
REMARK                         _______ _______ _______ _____ _____    ______ ____
ROOT
ATOM      1  CA  ILE A  1       26.071 -14.084   3.533  0.00  0.00    +0.164 C 
ENDROOT
BRANCH   1   2
ATOM      2  N   ILE A  1       26.174 -15.529   3.242  0.00  0.00    -0.318 NA
ATOM      3  H1  ILE A  1       27.073 -15.908   3.540  0.00  0.00    +0.119 HD
ATOM      4  H2  ILE A  1       25.396 -16.091   3.564  0.00  0.00    +0.119 HD
ENDBRANCH   1   2
BRANCH   1   5
ATOM      5  CB  ILE A  1       24.721 -13.666   4.184  0.00  0.00    +0.013 C 
ATOM      6  CG2 ILE A  1       23.712 -14.820   4.248  0.00  0.00    +0.009 C 
BRANCH   5   8
ATOM      7  CD1 ILE A  1       24.564 -12.244   2.033  0.00  0.00    +0.004 C 
ATOM      8  CG1 ILE A  1       24.119 -12.425   3.482  0.00  0.00    +0.002 C 
ENDBRANCH   5   8
ENDBRANCH   1   5
BRANCH   1   9
ATOM      9  C   ILE A  1       27.267 -13.590   4.371  0.00  0.00    +0.322 C 
ATOM     10  O   ILE A  1       28.402 -13.437   3.931  0.00  0.00    -0.249 OA
BRANCH   9  11
ATOM     11  OXT ILE A  1       26.954 -13.307   5.658  0.00  0.00    -0.479 OA
ATOM     12  HXT ILE A  1       27.604 -12.691   6.042  0.00  0.00    +0.295 HD
ENDBRANCH   9  11
ENDBRANCH   1   9
TORSDOF 5
ENDMDL
MODEL 3
REMARK VINA RESULT:      -4.9      6.299      6.954
REMARK  Name = *****
REMARK                            x       y       z     vdW  Elec       q    Type
REMARK                         _______ _______ _______ _____ _____    ______ ____
ROOT
ATOM      1  CA  ILE A  1       24.950 -20.769   4.990  0.00  0.00    +0.164 C 
ENDROOT
BRANCH   1   2
ATOM      2  N   ILE A  1       25.832 -21.572   5.862  0.00  0.00    -0.318 NA
ATOM      3  H1  ILE A  1       25.302 -22.256   6.402  0.00  0.00    +0.119 HD
ATOM      4  H2  ILE A  1       26.635 -21.985   5.403  0.00  0.00    +0.119 HD
ENDBRANCH   1   2
BRANCH   1   5
ATOM      5  CB  ILE A  1       23.734 -20.140   5.729  0.00  0.00    +0.013 C 
ATOM      6  CG2 ILE A  1       23.421 -20.840   7.057  0.00  0.00    +0.009 C 
BRANCH   5   8
ATOM      7  CD1 ILE A  1       22.048 -18.663   4.445  0.00  0.00    +0.004 C 
ATOM      8  CG1 ILE A  1       22.489 -20.078   4.812  0.00  0.00    +0.002 C 
ENDBRANCH   5   8
ENDBRANCH   1   5
BRANCH   1   9
ATOM      9  C   ILE A  1       25.744 -19.699   4.215  0.00  0.00    +0.322 C 
ATOM     10  O   ILE A  1       25.267 -18.983   3.341  0.00  0.00    -0.249 OA
BRANCH   9  11
ATOM     11  OXT ILE A  1       27.037 -19.590   4.603  0.00  0.00    -0.479 OA
ATOM     12  HXT ILE A  1       27.376 -18.695   4.422  0.00  0.00    +0.295 HD
ENDBRANCH   9  11
ENDBRANCH   1   9
TORSDOF 5
ENDMDL
MODEL 4
REMARK VINA RESULT:      -4.9      1.847      2.261
REMARK  Name = *****
REMARK                            x       y       z     vdW  Elec       q    Type
REMARK                         _______ _______ _______ _____ _____    ______ ____
ROOT
ATOM      1  CA  ILE A  1       26.577 -13.615   3.233  0.00  0.00    +0.164 C 
ENDROOT
BRANCH   1   2
ATOM      2  N   ILE A  1       27.046 -14.084   1.913  0.00  0.00    -0.318 NA
ATOM      3  H1  ILE A  1       26.473 -13.709   1.157  0.00  0.00    +0.119 HD
ATOM      4  H2  ILE A  1       28.036 -13.965   1.738  0.00  0.00    +0.119 HD
ENDBRANCH   1   2
BRANCH   1   5
ATOM      5  CB  ILE A  1       25.578 -14.582   3.929  0.00  0.00    +0.013 C 
ATOM      6  CG2 ILE A  1       25.672 -16.017   3.394  0.00  0.00    +0.009 C 
BRANCH   5   8
ATOM      7  CD1 ILE A  1       24.021 -12.587   3.408  0.00  0.00    +0.004 C 
ATOM      8  CG1 ILE A  1       24.128 -14.044   3.855  0.00  0.00    +0.002 C 
ENDBRANCH   5   8
ENDBRANCH   1   5
BRANCH   1   9
ATOM      9  C   ILE A  1       27.758 -13.273   4.163  0.00  0.00    +0.322 C 
ATOM     10  O   ILE A  1       28.921 -13.160   3.790  0.00  0.00    -0.249 OA
BRANCH   9  11
ATOM     11  OXT ILE A  1       27.399 -13.077   5.454  0.00  0.00    -0.479 OA
ATOM     12  HXT ILE A  1       27.312 -13.928   5.920  0.00  0.00    +0.295 HD
ENDBRANCH   9  11
ENDBRANCH   1   9
TORSDOF 5
ENDMDL
MODEL 5
REMARK VINA RESULT:      -4.8      0.885      1.754
REMARK  Name = *****
REMARK                            x       y       z     vdW  Elec       q    Type
REMARK                         _______ _______ _______ _____ _____    ______ ____
ROOT
ATOM      1  CA  ILE A  1       26.113 -13.750   4.231  0.00  0.00    +0.164 C 
ENDROOT
BRANCH   1   2
ATOM      2  N   ILE A  1       26.795 -13.239   5.437  0.00  0.00    -0.318 NA
ATOM      3  H1  ILE A  1       27.054 -13.997   6.070  0.00  0.00    +0.119 HD
ATOM      4  H2  ILE A  1       27.566 -12.607   5.263  0.00  0.00    +0.119 HD
ENDBRANCH   1   2
BRANCH   1   5
ATOM      5  CB  ILE A  1       24.804 -12.989   3.876  0.00  0.00    +0.013 C 
ATOM      6  CG2 ILE A  1       24.345 -12.045   4.995  0.00  0.00    +0.009 C 
BRANCH   5   8
ATOM      7  CD1 ILE A  1       23.380 -15.054   4.494  0.00  0.00    +0.004 C 
ATOM      8  CG1 ILE A  1       23.678 -13.968   3.463  0.00  0.00    +0.002 C 
ENDBRANCH   5   8
ENDBRANCH   1   5
BRANCH   1   9
ATOM      9  C   ILE A  1       27.069 -13.805   3.022  0.00  0.00    +0.322 C 
ATOM     10  O   ILE A  1       26.775 -14.280   1.930  0.00  0.00    -0.249 OA
BRANCH   9  11
ATOM     11  OXT ILE A  1       28.281 -13.248   3.258  0.00  0.00    -0.479 OA
ATOM     12  HXT ILE A  1       28.480 -12.564   2.594  0.00  0.00    +0.295 HD
ENDBRANCH   9  11
ENDBRANCH   1   9
TORSDOF 5
ENDMDL
MODEL 6
REMARK VINA RESULT:      -4.8      6.146      7.292
REMARK  Name = *****
REMARK                            x       y       z     vdW  Elec       q    Type
REMARK                         _______ _______ _______ _____ _____    ______ ____
ROOT
ATOM      1  CA  ILE A  1       23.823 -20.142   3.451  0.00  0.00    +0.164 C 
ENDROOT
BRANCH   1   2
ATOM      2  N   ILE A  1       23.979 -21.571   3.109  0.00  0.00    -0.318 NA
ATOM      3  H1  ILE A  1       24.956 -21.862   3.154  0.00  0.00    +0.119 HD
ATOM      4  H2  ILE A  1       23.368 -22.204   3.609  0.00  0.00    +0.119 HD
ENDBRANCH   1   2
BRANCH   1   5
ATOM      5  CB  ILE A  1       22.834 -19.878   4.623  0.00  0.00    +0.013 C 
ATOM      6  CG2 ILE A  1       22.259 -18.456   4.604  0.00  0.00    +0.009 C 
BRANCH   5   8
ATOM      7  CD1 ILE A  1       23.081 -21.572   6.558  0.00  0.00    +0.004 C 
ATOM      8  CG1 ILE A  1       23.480 -20.212   5.989  0.00  0.00    +0.002 C 
ENDBRANCH   5   8
ENDBRANCH   1   5
BRANCH   1   9
ATOM      9  C   ILE A  1       25.186 -19.471   3.712  0.00  0.00    +0.322 C 
ATOM     10  O   ILE A  1       25.430 -18.290   3.488  0.00  0.00    -0.249 OA
BRANCH   9  11
ATOM     11  OXT ILE A  1       26.111 -20.303   4.248  0.00  0.00    -0.479 OA
ATOM     12  HXT ILE A  1       26.039 -20.318   5.219  0.00  0.00    +0.295 HD
ENDBRANCH   9  11
ENDBRANCH   1   9
TORSDOF 5
ENDMDL
MODEL 7
REMARK VINA RESULT:      -4.7      1.699      2.492
REMARK  Name = *****
REMARK                            x       y       z     vdW  Elec       q    Type
REMARK                         _______ _______ _______ _____ _____    ______ ____
ROOT
ATOM      1  CA  ILE A  1       26.489 -13.889   3.530  0.00  0.00    +0.164 C 
ENDROOT
BRANCH   1   2
ATOM      2  N   ILE A  1       27.455 -13.083   2.755  0.00  0.00    -0.318 NA
ATOM      3  H1  ILE A  1       27.067 -12.795   1.857  0.00  0.00    +0.119 HD
ATOM      4  H2  ILE A  1       27.872 -12.308   3.257  0.00  0.00    +0.119 HD
ENDBRANCH   1   2
BRANCH   1   5
ATOM      5  CB  ILE A  1       25.012 -13.710   3.077  0.00  0.00    +0.013 C 
ATOM      6  CG2 ILE A  1       24.807 -12.471   2.197  0.00  0.00    +0.009 C 
BRANCH   5   8
ATOM      7  CD1 ILE A  1       23.278 -15.016   4.478  0.00  0.00    +0.004 C 
ATOM      8  CG1 ILE A  1       24.048 -13.712   4.289  0.00  0.00    +0.002 C 
ENDBRANCH   5   8
ENDBRANCH   1   5
BRANCH   1   9
ATOM      9  C   ILE A  1       26.887 -15.379   3.552  0.00  0.00    +0.322 C 
ATOM     10  O   ILE A  1       26.217 -16.280   3.059  0.00  0.00    -0.249 OA
BRANCH   9  11
ATOM     11  OXT ILE A  1       28.078 -15.618   4.151  0.00  0.00    -0.479 OA
ATOM     12  HXT ILE A  1       28.140 -15.136   4.996  0.00  0.00    +0.295 HD
ENDBRANCH   9  11
ENDBRANCH   1   9
TORSDOF 5
ENDMDL
MODEL 8
REMARK VINA RESULT:      -4.7      5.840      7.032
REMARK  Name = *****
REMARK                            x       y       z     vdW  Elec       q    Type
REMARK                         _______ _______ _______ _____ _____    ______ ____
ROOT
ATOM      1  CA  ILE A  1       25.661 -20.094   4.452  0.00  0.00    +0.164 C 
ENDROOT
BRANCH   1   2
ATOM      2  N   ILE A  1       27.101 -19.969   4.755  0.00  0.00    -0.318 NA
ATOM      3  H1  ILE A  1       27.277 -19.998   5.760  0.00  0.00    +0.119 HD
ATOM      4  H2  ILE A  1       27.707 -20.599   4.244  0.00  0.00    +0.119 HD
ENDBRANCH   1   2
BRANCH   1   5
ATOM      5  CB  ILE A  1       24.776 -20.381   5.700  0.00  0.00    +0.013 C 
ATOM      6  CG2 ILE A  1       25.603 -20.662   6.961  0.00  0.00    +0.009 C 
BRANCH   5   8
ATOM      7  CD1 ILE A  1       22.321 -21.045   5.246  0.00  0.00    +0.004 C 
ATOM      8  CG1 ILE A  1       23.763 -21.517   5.421  0.00  0.00    +0.002 C 
ENDBRANCH   5   8
ENDBRANCH   1   5
BRANCH   1   9
ATOM      9  C   ILE A  1       25.140 -18.872   3.671  0.00  0.00    +0.322 C 
ATOM     10  O   ILE A  1       23.956 -18.564   3.578  0.00  0.00    -0.249 OA
BRANCH   9  11
ATOM     11  OXT ILE A  1       26.119 -18.129   3.102  0.00  0.00    -0.479 OA
ATOM     12  HXT ILE A  1       26.375 -17.392   3.687  0.00  0.00    +0.295 HD
ENDBRANCH   9  11
ENDBRANCH   1   9
TORSDOF 5
ENDMDL
MODEL 9
REMARK VINA RESULT:      -4.6      2.445      3.500
REMARK  Name = *****
REMARK                            x       y       z     vdW  Elec       q    Type
REMARK                         _______ _______ _______ _____ _____    ______ ____
ROOT
ATOM      1  CA  ILE A  1       24.646 -13.694   4.186  0.00  0.00    +0.164 C 
ENDROOT
BRANCH   1   2
ATOM      2  N   ILE A  1       23.712 -14.839   4.176  0.00  0.00    -0.318 NA
ATOM      3  H1  ILE A  1       23.592 -15.232   5.110  0.00  0.00    +0.119 HD
ATOM      4  H2  ILE A  1       22.827 -14.670   3.715  0.00  0.00    +0.119 HD
ENDBRANCH   1   2
BRANCH   1   5
ATOM      5  CB  ILE A  1       26.066 -14.034   3.648  0.00  0.00    +0.013 C 
ATOM      6  CG2 ILE A  1       26.243 -15.527   3.343  0.00  0.00    +0.009 C 
BRANCH   5   8
ATOM      7  CD1 ILE A  1       28.452 -13.076   3.902  0.00  0.00    +0.004 C 
ATOM      8  CG1 ILE A  1       27.169 -13.515   4.603  0.00  0.00    +0.002 C 
ENDBRANCH   5   8
ENDBRANCH   1   5
BRANCH   1   9
ATOM      9  C   ILE A  1       24.052 -12.474   3.455  0.00  0.00    +0.322 C 
ATOM     10  O   ILE A  1       23.664 -11.454   4.016  0.00  0.00    -0.249 OA
BRANCH   9  11
ATOM     11  OXT ILE A  1       24.016 -12.608   2.108  0.00  0.00    -0.479 OA
ATOM     12  HXT ILE A  1       23.349 -12.013   1.721  0.00  0.00    +0.295 HD
ENDBRANCH   9  11
ENDBRANCH   1   9
TORSDOF 5
ENDMDL
