MODEL 1
REMARK VINA RESULT:      -7.7      0.000      0.000
REMARK  Name = *****
REMARK                            x       y       z     vdW  Elec       q    Type
REMARK                         _______ _______ _______ _____ _____    ______ ____
ROOT
ATOM      1  C   LIG    1       24.085 -21.458   5.904  0.00  0.00    +0.126 C 
ATOM      2  C   LIG    1       24.768 -20.783   7.084  0.00  0.00    +0.236 C 
ATOM      3  O   LIG    1       24.192 -20.507   8.133  0.00  0.00    -0.274 OA
ATOM      4  N   LIG    1       26.106 -20.541   6.961  0.00  0.00    -0.239 N 
ATOM      5  H   LIG    1       26.563 -20.143   7.771  0.00  0.00    +0.159 HD
ATOM      6  C   LIG    1       26.743 -20.326   5.781  0.00  0.00    +0.312 C 
ATOM      7  O   LIG    1       27.853 -19.814   5.735  0.00  0.00    -0.252 OA
ATOM      8  N   LIG    1       26.064 -20.663   4.653  0.00  0.00    -0.239 N 
ATOM      9  H   LIG    1       26.531 -20.482   3.774  0.00  0.00    +0.159 HD
ATOM     10  C   LIG    1       24.806 -21.189   4.584  0.00  0.00    +0.236 C 
ATOM     11  O   LIG    1       24.322 -21.462   3.485  0.00  0.00    -0.274 OA
ENDROOT
BRANCH   1  12
ATOM     12  C   LIG    1       24.064 -23.032   6.141  0.00  0.00    +0.010 C 
ATOM     13  C   LIG    1       22.760 -23.523   6.802  0.00  0.00    +0.009 C 
BRANCH  12  14
ATOM     14  C   LIG    1       25.282 -23.561   6.954  0.00  0.00    +0.004 C 
BRANCH  14  16
ATOM     15  C   LIG    1       25.371 -25.336   5.148  0.00  0.00    +0.004 C 
ATOM     16  C   LIG    1       25.707 -24.993   6.593  0.00  0.00    -0.003 C 
ENDBRANCH  14  16
ENDBRANCH  12  14
ENDBRANCH   1  12
BRANCH   1  17
ATOM     17  C   LIG    1       22.634 -20.902   5.748  0.00  0.00    +0.022 C 
ATOM     18  C   LIG    1       22.534 -19.434   5.327  0.00  0.00    +0.005 C 
ENDBRANCH   1  17
TORSDOF 4
ENDMDL
MODEL 2
REMARK VINA RESULT:      -7.0      2.157      3.887
REMARK  Name = *****
REMARK                            x       y       z     vdW  Elec       q    Type
REMARK                         _______ _______ _______ _____ _____    ______ ____
ROOT
ATOM      1  C   LIG    1       25.075 -21.815   6.714  0.00  0.00    +0.126 C 
ATOM      2  C   LIG    1       25.804 -22.613   7.785  0.00  0.00    +0.236 C 
ATOM      3  O   LIG    1       26.308 -22.104   8.783  0.00  0.00    -0.274 OA
ATOM      4  N   LIG    1       25.828 -23.969   7.629  0.00  0.00    -0.239 N 
ATOM      5  H   LIG    1       26.266 -24.495   8.374  0.00  0.00    +0.159 HD
ATOM      6  C   LIG    1       25.778 -24.606   6.431  0.00  0.00    +0.312 C 
ATOM      7  O   LIG    1       26.110 -25.777   6.311  0.00  0.00    -0.252 OA
ATOM      8  N   LIG    1       25.386 -23.862   5.363  0.00  0.00    -0.239 N 
ATOM      9  H   LIG    1       25.370 -24.332   4.467  0.00  0.00    +0.159 HD
ATOM     10  C   LIG    1       25.046 -22.540   5.369  0.00  0.00    +0.236 C 
ATOM     11  O   LIG    1       24.692 -21.999   4.321  0.00  0.00    -0.274 OA
ENDROOT
BRANCH   1  12
ATOM     12  C   LIG    1       23.572 -21.571   7.175  0.00  0.00    +0.010 C 
ATOM     13  C   LIG    1       22.621 -22.712   6.758  0.00  0.00    +0.009 C 
BRANCH  12  14
ATOM     14  C   LIG    1       22.981 -20.212   6.695  0.00  0.00    +0.004 C 
BRANCH  14  16
ATOM     15  C   LIG    1       22.389 -18.935   4.587  0.00  0.00    +0.004 C 
ATOM     16  C   LIG    1       22.307 -20.270   5.314  0.00  0.00    -0.003 C 
ENDBRANCH  14  16
ENDBRANCH  12  14
ENDBRANCH   1  12
BRANCH   1  17
ATOM     17  C   LIG    1       25.810 -20.457   6.479  0.00  0.00    +0.022 C 
ATOM     18  C   LIG    1       27.302 -20.563   6.160  0.00  0.00    +0.005 C 
ENDBRANCH   1  17
TORSDOF 4
ENDMDL
MODEL 3
REMARK VINA RESULT:      -7.0      1.314      1.443
REMARK  Name = *****
REMARK                            x       y       z     vdW  Elec       q    Type
REMARK                         _______ _______ _______ _____ _____    ______ ____
ROOT
ATOM      1  C   LIG    1       25.054 -21.445   6.859  0.00  0.00    +0.126 C 
ATOM      2  C   LIG    1       25.902 -21.521   8.120  0.00  0.00    +0.236 C 
ATOM      3  O   LIG    1       25.430 -21.647   9.248  0.00  0.00    -0.274 OA
ATOM      4  N   LIG    1       27.256 -21.508   7.950  0.00  0.00    -0.239 N 
ATOM      5  H   LIG    1       27.812 -21.615   8.788  0.00  0.00    +0.159 HD
ATOM      6  C   LIG    1       27.894 -20.906   6.913  0.00  0.00    +0.312 C 
ATOM      7  O   LIG    1       29.089 -20.649   6.956  0.00  0.00    -0.252 OA
ATOM      8  N   LIG    1       27.128 -20.560   5.845  0.00  0.00    -0.239 N 
ATOM      9  H   LIG    1       27.600 -20.092   5.083  0.00  0.00    +0.159 HD
ATOM     10  C   LIG    1       25.782 -20.749   5.711  0.00  0.00    +0.236 C 
ATOM     11  O   LIG    1       25.221 -20.398   4.673  0.00  0.00    -0.274 OA
ENDROOT
BRANCH   1  12
ATOM     12  C   LIG    1       24.685 -22.919   6.386  0.00  0.00    +0.010 C 
ATOM     13  C   LIG    1       23.308 -23.388   6.897  0.00  0.00    +0.009 C 
BRANCH  12  14
ATOM     14  C   LIG    1       25.759 -23.985   6.758  0.00  0.00    +0.004 C 
BRANCH  14  16
ATOM     15  C   LIG    1       25.398 -25.797   5.024  0.00  0.00    +0.004 C 
ATOM     16  C   LIG    1       25.321 -25.436   6.501  0.00  0.00    -0.003 C 
ENDBRANCH  14  16
ENDBRANCH  12  14
ENDBRANCH   1  12
BRANCH   1  17
ATOM     17  C   LIG    1       23.761 -20.615   7.144  0.00  0.00    +0.022 C 
ATOM     18  C   LIG    1       22.944 -20.228   5.911  0.00  0.00    +0.005 C 
ENDBRANCH   1  17
TORSDOF 4
ENDMDL
MODEL 4
REMARK VINA RESULT:      -6.9      1.230      3.923
REMARK  Name = *****
REMARK                            x       y       z     vdW  Elec       q    Type
REMARK                         _______ _______ _______ _____ _____    ______ ____
ROOT
ATOM      1  C   LIG    1       24.766 -22.343   6.874  0.00  0.00    +0.126 C 
ATOM      2  C   LIG    1       25.191 -22.096   5.435  0.00  0.00    +0.236 C 
ATOM      3  O   LIG    1       24.831 -22.798   4.492  0.00  0.00    -0.274 OA
ATOM      4  N   LIG    1       25.961 -20.994   5.204  0.00  0.00    -0.239 N 
ATOM      5  H   LIG    1       26.193 -20.806   4.237  0.00  0.00    +0.159 HD
ATOM      6  C   LIG    1       26.809 -20.445   6.112  0.00  0.00    +0.312 C 
ATOM      7  O   LIG    1       27.694 -19.669   5.778  0.00  0.00    -0.252 OA
ATOM      8  N   LIG    1       26.655 -20.839   7.403  0.00  0.00    -0.239 N 
ATOM      9  H   LIG    1       27.301 -20.446   8.076  0.00  0.00    +0.159 HD
ATOM     10  C   LIG    1       25.741 -21.735   7.880  0.00  0.00    +0.236 C 
ATOM     11  O   LIG    1       25.707 -21.983   9.085  0.00  0.00    -0.274 OA
ENDROOT
BRANCH   1  12
ATOM     12  C   LIG    1       23.335 -21.690   7.118  0.00  0.00    +0.010 C 
ATOM     13  C   LIG    1       22.174 -22.594   6.658  0.00  0.00    +0.009 C 
BRANCH  12  14
ATOM     14  C   LIG    1       23.172 -20.280   6.476  0.00  0.00    +0.004 C 
BRANCH  14  16
ATOM     15  C   LIG    1       22.295 -18.884   4.551  0.00  0.00    +0.004 C 
ATOM     16  C   LIG    1       22.357 -20.273   5.172  0.00  0.00    -0.003 C 
ENDBRANCH  14  16
ENDBRANCH  12  14
ENDBRANCH   1  12
BRANCH   1  17
ATOM     17  C   LIG    1       24.728 -23.880   7.155  0.00  0.00    +0.022 C 
ATOM     18  C   LIG    1       26.001 -24.646   6.792  0.00  0.00    +0.005 C 
ENDBRANCH   1  17
TORSDOF 4
ENDMDL
MODEL 5
REMARK VINA RESULT:      -6.7      2.087      4.047
REMARK  Name = *****
REMARK                            x       y       z     vdW  Elec       q    Type
REMARK                         _______ _______ _______ _____ _____    ______ ____
ROOT
ATOM      1  C   LIG    1       24.173 -21.182   5.874  0.00  0.00    +0.126 C 
ATOM      2  C   LIG    1       24.453 -22.048   4.655  0.00  0.00    +0.236 C 
ATOM      3  O   LIG    1       24.459 -21.617   3.504  0.00  0.00    -0.274 OA
ATOM      4  N   LIG    1       24.772 -23.354   4.891  0.00  0.00    -0.239 N 
ATOM      5  H   LIG    1       25.010 -23.909   4.079  0.00  0.00    +0.159 HD
ATOM      6  C   LIG    1       24.345 -24.067   5.966  0.00  0.00    +0.312 C 
ATOM      7  O   LIG    1       24.388 -25.289   5.984  0.00  0.00    -0.252 OA
ATOM      8  N   LIG    1       23.824 -23.355   6.999  0.00  0.00    -0.239 N 
ATOM      9  H   LIG    1       23.486 -23.888   7.790  0.00  0.00    +0.159 HD
ATOM     10  C   LIG    1       23.677 -21.999   7.065  0.00  0.00    +0.236 C 
ATOM     11  O   LIG    1       23.200 -21.489   8.079  0.00  0.00    -0.274 OA
ENDROOT
BRANCH   1  12
ATOM     12  C   LIG    1       25.513 -20.441   6.308  0.00  0.00    +0.010 C 
ATOM     13  C   LIG    1       26.358 -19.970   5.107  0.00  0.00    +0.009 C 
BRANCH  12  14
ATOM     14  C   LIG    1       26.410 -21.278   7.269  0.00  0.00    +0.004 C 
BRANCH  14  16
ATOM     15  C   LIG    1       28.932 -21.203   7.502  0.00  0.00    +0.004 C 
ATOM     16  C   LIG    1       27.617 -20.510   7.831  0.00  0.00    -0.003 C 
ENDBRANCH  14  16
ENDBRANCH  12  14
ENDBRANCH   1  12
BRANCH   1  17
ATOM     17  C   LIG    1       23.052 -20.147   5.537  0.00  0.00    +0.022 C 
ATOM     18  C   LIG    1       21.801 -20.726   4.874  0.00  0.00    +0.005 C 
ENDBRANCH   1  17
TORSDOF 4
ENDMDL
MODEL 6
REMARK VINA RESULT:      -6.6      1.938      4.165
REMARK  Name = *****
REMARK                            x       y       z     vdW  Elec       q    Type
REMARK                         _______ _______ _______ _____ _____    ______ ____
ROOT
ATOM      1  C   LIG    1       24.303 -21.954   6.004  0.00  0.00    +0.126 C 
ATOM      2  C   LIG    1       25.385 -23.013   6.156  0.00  0.00    +0.236 C 
ATOM      3  O   LIG    1       25.361 -24.095   5.573  0.00  0.00    -0.274 OA
ATOM      4  N   LIG    1       26.454 -22.689   6.939  0.00  0.00    -0.239 N 
ATOM      5  H   LIG    1       27.194 -23.376   6.990  0.00  0.00    +0.159 HD
ATOM      6  C   LIG    1       26.407 -21.820   7.983  0.00  0.00    +0.312 C 
ATOM      7  O   LIG    1       27.283 -21.793   8.836  0.00  0.00    -0.252 OA
ATOM      8  N   LIG    1       25.314 -21.017   8.056  0.00  0.00    -0.239 N 
ATOM      9  H   LIG    1       25.269 -20.386   8.846  0.00  0.00    +0.159 HD
ATOM     10  C   LIG    1       24.254 -20.999   7.195  0.00  0.00    +0.236 C 
ATOM     11  O   LIG    1       23.336 -20.200   7.379  0.00  0.00    -0.274 OA
ENDROOT
BRANCH   1  12
ATOM     12  C   LIG    1       24.591 -21.095   4.695  0.00  0.00    +0.010 C 
ATOM     13  C   LIG    1       25.669 -20.013   4.911  0.00  0.00    +0.009 C 
BRANCH  12  14
ATOM     14  C   LIG    1       23.319 -20.435   4.085  0.00  0.00    +0.004 C 
BRANCH  14  16
ATOM     15  C   LIG    1       22.180 -18.215   4.533  0.00  0.00    +0.004 C 
ATOM     16  C   LIG    1       23.405 -18.906   3.950  0.00  0.00    -0.003 C 
ENDBRANCH  14  16
ENDBRANCH  12  14
ENDBRANCH   1  12
BRANCH   1  17
ATOM     17  C   LIG    1       22.903 -22.641   5.918  0.00  0.00    +0.022 C 
ATOM     18  C   LIG    1       22.648 -23.744   6.946  0.00  0.00    +0.005 C 
ENDBRANCH   1  17
TORSDOF 4
ENDMDL
MODEL 7
REMARK VINA RESULT:      -6.6      1.687      3.062
REMARK  Name = *****
REMARK                            x       y       z     vdW  Elec       q    Type
REMARK                         _______ _______ _______ _____ _____    ______ ____
ROOT
ATOM      1  C   LIG    1       24.923 -21.903   6.874  0.00  0.00    +0.126 C 
ATOM      2  C   LIG    1       25.635 -21.040   5.843  0.00  0.00    +0.236 C 
ATOM      3  O   LIG    1       26.859 -20.961   5.754  0.00  0.00    -0.274 OA
ATOM      4  N   LIG    1       24.847 -20.381   4.945  0.00  0.00    -0.239 N 
ATOM      5  H   LIG    1       25.330 -19.854   4.230  0.00  0.00    +0.159 HD
ATOM      6  C   LIG    1       23.574 -19.976   5.193  0.00  0.00    +0.312 C 
ATOM      7  O   LIG    1       23.021 -19.134   4.499  0.00  0.00    -0.252 OA
ATOM      8  N   LIG    1       22.964 -20.517   6.280  0.00  0.00    -0.239 N 
ATOM      9  H   LIG    1       22.025 -20.198   6.477  0.00  0.00    +0.159 HD
ATOM     10  C   LIG    1       23.501 -21.420   7.153  0.00  0.00    +0.236 C 
ATOM     11  O   LIG    1       22.820 -21.838   8.089  0.00  0.00    -0.274 OA
ENDROOT
BRANCH   1  12
ATOM     12  C   LIG    1       24.839 -23.399   6.338  0.00  0.00    +0.010 C 
ATOM     13  C   LIG    1       23.481 -24.067   6.630  0.00  0.00    +0.009 C 
BRANCH  12  14
ATOM     14  C   LIG    1       25.985 -24.317   6.859  0.00  0.00    +0.004 C 
BRANCH  14  16
ATOM     15  C   LIG    1       26.345 -26.516   5.651  0.00  0.00    +0.004 C 
ATOM     16  C   LIG    1       25.656 -25.818   6.816  0.00  0.00    -0.003 C 
ENDBRANCH  14  16
ENDBRANCH  12  14
ENDBRANCH   1  12
BRANCH   1  17
ATOM     17  C   LIG    1       25.694 -21.844   8.232  0.00  0.00    +0.022 C 
ATOM     18  C   LIG    1       25.940 -20.440   8.788  0.00  0.00    +0.005 C 
ENDBRANCH   1  17
TORSDOF 4
ENDMDL
MODEL 8
REMARK VINA RESULT:      -6.6      2.382      4.559
REMARK  Name = *****
REMARK                            x       y       z     vdW  Elec       q    Type
REMARK                         _______ _______ _______ _____ _____    ______ ____
ROOT
ATOM      1  C   LIG    1       24.939 -21.697   6.418  0.00  0.00    +0.126 C 
ATOM      2  C   LIG    1       23.482 -22.131   6.463  0.00  0.00    +0.236 C 
ATOM      3  O   LIG    1       22.549 -21.355   6.658  0.00  0.00    -0.274 OA
ATOM      4  N   LIG    1       23.226 -23.447   6.207  0.00  0.00    -0.239 N 
ATOM      5  H   LIG    1       22.251 -23.716   6.184  0.00  0.00    +0.159 HD
ATOM      6  C   LIG    1       24.094 -24.461   6.460  0.00  0.00    +0.312 C 
ATOM      7  O   LIG    1       23.723 -25.626   6.512  0.00  0.00    -0.252 OA
ATOM      8  N   LIG    1       25.384 -24.112   6.702  0.00  0.00    -0.239 N 
ATOM      9  H   LIG    1       26.025 -24.866   6.912  0.00  0.00    +0.159 HD
ATOM     10  C   LIG    1       25.897 -22.846   6.724  0.00  0.00    +0.236 C 
ATOM     11  O   LIG    1       27.098 -22.682   6.942  0.00  0.00    -0.274 OA
ENDROOT
BRANCH   1  12
ATOM     12  C   LIG    1       25.278 -21.147   4.964  0.00  0.00    +0.010 C 
ATOM     13  C   LIG    1       26.248 -19.948   4.984  0.00  0.00    +0.009 C 
BRANCH  12  14
ATOM     14  C   LIG    1       24.019 -20.772   4.126  0.00  0.00    +0.004 C 
BRANCH  14  16
ATOM     15  C   LIG    1       22.524 -18.740   4.361  0.00  0.00    +0.004 C 
ATOM     16  C   LIG    1       23.863 -19.265   3.863  0.00  0.00    -0.003 C 
ENDBRANCH  14  16
ENDBRANCH  12  14
ENDBRANCH   1  12
BRANCH   1  17
ATOM     17  C   LIG    1       25.193 -20.597   7.499  0.00  0.00    +0.022 C 
ATOM     18  C   LIG    1       25.597 -21.115   8.881  0.00  0.00    +0.005 C 
ENDBRANCH   1  17
TORSDOF 4
ENDMDL
MODEL 9
REMARK VINA RESULT:      -6.3      2.054      3.444
REMARK  Name = *****
REMARK                            x       y       z     vdW  Elec       q    Type
REMARK                         _______ _______ _______ _____ _____    ______ ____
ROOT
ATOM      1  C   LIG    1       24.610 -22.166   6.488  0.00  0.00    +0.126 C 
ATOM      2  C   LIG    1       23.921 -20.810   6.524  0.00  0.00    +0.236 C 
ATOM      3  O   LIG    1       23.357 -20.363   7.521  0.00  0.00    -0.274 OA
ATOM      4  N   LIG    1       24.004 -20.049   5.394  0.00  0.00    -0.239 N 
ATOM      5  H   LIG    1       23.591 -19.127   5.446  0.00  0.00    +0.159 HD
ATOM      6  C   LIG    1       24.130 -20.551   4.138  0.00  0.00    +0.312 C 
ATOM      7  O   LIG    1       23.892 -19.872   3.149  0.00  0.00    -0.252 OA
ATOM      8  N   LIG    1       24.487 -21.858   4.038  0.00  0.00    -0.239 N 
ATOM      9  H   LIG    1       24.559 -22.236   3.103  0.00  0.00    +0.159 HD
ATOM     10  C   LIG    1       24.725 -22.721   5.069  0.00  0.00    +0.236 C 
ATOM     11  O   LIG    1       25.059 -23.880   4.826  0.00  0.00    -0.274 OA
ENDROOT
BRANCH   1  12
ATOM     12  C   LIG    1       26.079 -22.022   7.081  0.00  0.00    +0.010 C 
ATOM     13  C   LIG    1       26.111 -22.046   8.623  0.00  0.00    +0.009 C 
BRANCH  12  14
ATOM     14  C   LIG    1       26.841 -20.762   6.573  0.00  0.00    +0.004 C 
BRANCH  14  16
ATOM     15  C   LIG    1       29.303 -20.498   7.115  0.00  0.00    +0.004 C 
ATOM     16  C   LIG    1       27.877 -20.210   7.565  0.00  0.00    -0.003 C 
ENDBRANCH  14  16
ENDBRANCH  12  14
ENDBRANCH   1  12
BRANCH   1  17
ATOM     17  C   LIG    1       23.778 -23.200   7.312  0.00  0.00    +0.022 C 
ATOM     18  C   LIG    1       22.404 -23.547   6.736  0.00  0.00    +0.005 C 
ENDBRANCH   1  17
TORSDOF 4
ENDMDL
