MODEL 1
REMARK VINA RESULT:      -8.2      0.000      0.000
REMARK  Name = *****
REMARK                            x       y       z     vdW  Elec       q    Type
REMARK                         _______ _______ _______ _____ _____    ______ ____
ROOT
ATOM      1  C   LIG    1       25.551 -22.409   7.183  0.00  0.00    +0.054 C 
ENDROOT
BRANCH   1   5
ATOM      2  C   LIG    1       24.910 -19.641   2.974  0.00  0.00    +0.044 C 
ATOM      3  C   LIG    1       24.413 -20.103   4.309  0.00  0.00    -0.050 A 
ATOM      4  C   LIG    1       25.168 -20.983   5.086  0.00  0.00    +0.011 A 
ATOM      5  C   LIG    1       24.737 -21.427   6.348  0.00  0.00    +0.002 A 
ATOM      6  C   LIG    1       23.498 -20.940   6.819  0.00  0.00    +0.121 A 
ATOM      7  C   LIG    1       22.746 -20.050   6.063  0.00  0.00    +0.046 A 
ATOM      8  C   LIG    1       23.193 -19.624   4.817  0.00  0.00    +0.007 A 
BRANCH   6   9
ATOM      9  O   LIG    1       23.047 -21.348   8.042  0.00  0.00    -0.506 OA
ATOM     10  H   LIG    1       23.674 -21.029   8.721  0.00  0.00    +0.292 HD
ENDBRANCH   6   9
ENDBRANCH   1   5
BRANCH   1  11
ATOM     11  C   LIG    1       25.283 -23.879   6.833  0.00  0.00    -0.040 A 
ATOM     12  C   LIG    1       23.991 -24.345   6.546  0.00  0.00    +0.004 A 
ATOM     13  C   LIG    1       23.776 -25.653   6.108  0.00  0.00    +0.000 A 
ATOM     14  C   LIG    1       24.856 -26.517   5.953  0.00  0.00    +0.000 A 
ATOM     15  C   LIG    1       26.142 -26.080   6.251  0.00  0.00    +0.000 A 
ATOM     16  C   LIG    1       26.359 -24.772   6.696  0.00  0.00    +0.004 A 
ENDBRANCH   1  11
BRANCH   1  17
ATOM     17  C   LIG    1       27.096 -22.203   7.167  0.00  0.00    +0.028 C 
BRANCH  17  18
ATOM     18  C   LIG    1       27.537 -20.831   7.716  0.00  0.00    +0.086 C 
BRANCH  18  19
ATOM     19  N   LIG    1       28.942 -20.426   7.455  0.00  0.00    -0.297 NA
BRANCH  19  20
ATOM     20  C   LIG    1       29.781 -20.371   8.683  0.00  0.00    +0.051 C 
ATOM     21  C   LIG    1       30.314 -18.989   9.090  0.00  0.00    +0.024 C 
ATOM     22  C   LIG    1       30.911 -21.412   8.759  0.00  0.00    +0.024 C 
ENDBRANCH  19  20
BRANCH  19  23
ATOM     23  C   LIG    1       29.046 -19.276   6.506  0.00  0.00    +0.051 C 
ATOM     24  C   LIG    1       28.082 -19.297   5.311  0.00  0.00    +0.024 C 
ATOM     25  C   LIG    1       30.474 -19.043   5.952  0.00  0.00    +0.024 C 
ENDBRANCH  19  23
ENDBRANCH  18  19
ENDBRANCH  17  18
ENDBRANCH   1  17
TORSDOF 8
ENDMDL
MODEL 2
REMARK VINA RESULT:      -7.8      1.965      5.201
REMARK  Name = *****
REMARK                            x       y       z     vdW  Elec       q    Type
REMARK                         _______ _______ _______ _____ _____    ______ ____
ROOT
ATOM      1  C   LIG    1       25.057 -21.362   6.194  0.00  0.00    +0.054 C 
ENDROOT
BRANCH   1   5
ATOM      2  C   LIG    1       29.545 -19.060   5.611  0.00  0.00    +0.044 C 
ATOM      3  C   LIG    1       28.495 -19.642   6.505  0.00  0.00    -0.050 A 
ATOM      4  C   LIG    1       27.335 -20.205   5.970  0.00  0.00    +0.011 A 
ATOM      5  C   LIG    1       26.335 -20.771   6.779  0.00  0.00    +0.002 A 
ATOM      6  C   LIG    1       26.546 -20.760   8.176  0.00  0.00    +0.121 A 
ATOM      7  C   LIG    1       27.704 -20.219   8.719  0.00  0.00    +0.046 A 
ATOM      8  C   LIG    1       28.680 -19.665   7.898  0.00  0.00    +0.007 A 
BRANCH   6   9
ATOM      9  O   LIG    1       25.597 -21.303   8.994  0.00  0.00    -0.506 OA
ATOM     10  H   LIG    1       24.817 -21.527   8.451  0.00  0.00    +0.292 HD
ENDBRANCH   6   9
ENDBRANCH   1   5
BRANCH   1  11
ATOM     11  C   LIG    1       24.924 -22.874   6.417  0.00  0.00    -0.040 A 
ATOM     12  C   LIG    1       23.673 -23.508   6.450  0.00  0.00    +0.004 A 
ATOM     13  C   LIG    1       23.569 -24.898   6.528  0.00  0.00    +0.000 A 
ATOM     14  C   LIG    1       24.722 -25.676   6.577  0.00  0.00    +0.000 A 
ATOM     15  C   LIG    1       25.972 -25.065   6.564  0.00  0.00    +0.000 A 
ATOM     16  C   LIG    1       26.078 -23.673   6.492  0.00  0.00    +0.004 A 
ENDBRANCH   1  11
BRANCH   1  17
ATOM     17  C   LIG    1       23.724 -20.704   6.665  0.00  0.00    +0.028 C 
BRANCH  17  18
ATOM     18  C   LIG    1       22.784 -20.324   5.504  0.00  0.00    +0.086 C 
BRANCH  18  19
ATOM     19  N   LIG    1       23.106 -19.078   4.761  0.00  0.00    -0.297 NA
BRANCH  19  20
ATOM     20  C   LIG    1       21.958 -18.134   4.662  0.00  0.00    +0.051 C 
ATOM     21  C   LIG    1       20.944 -18.402   3.541  0.00  0.00    +0.024 C 
ATOM     22  C   LIG    1       22.326 -16.642   4.691  0.00  0.00    +0.024 C 
ENDBRANCH  19  20
BRANCH  19  23
ATOM     23  C   LIG    1       23.889 -19.334   3.516  0.00  0.00    +0.051 C 
ATOM     24  C   LIG    1       24.074 -20.806   3.123  0.00  0.00    +0.024 C 
ATOM     25  C   LIG    1       25.287 -18.666   3.502  0.00  0.00    +0.024 C 
ENDBRANCH  19  23
ENDBRANCH  18  19
ENDBRANCH  17  18
ENDBRANCH   1  17
TORSDOF 8
ENDMDL
MODEL 3
REMARK VINA RESULT:      -7.7      0.439      1.874
REMARK  Name = *****
REMARK                            x       y       z     vdW  Elec       q    Type
REMARK                         _______ _______ _______ _____ _____    ______ ____
ROOT
ATOM      1  C   LIG    1       25.354 -22.120   7.169  0.00  0.00    +0.054 C 
ENDROOT
BRANCH   1   5
ATOM      2  C   LIG    1       24.679 -19.978   2.614  0.00  0.00    +0.044 C 
ATOM      3  C   LIG    1       24.224 -20.194   4.024  0.00  0.00    -0.050 A 
ATOM      4  C   LIG    1       24.957 -21.001   4.895  0.00  0.00    +0.011 A 
ATOM      5  C   LIG    1       24.566 -21.216   6.227  0.00  0.00    +0.002 A 
ATOM      6  C   LIG    1       23.388 -20.573   6.669  0.00  0.00    +0.121 A 
ATOM      7  C   LIG    1       22.660 -19.753   5.818  0.00  0.00    +0.046 A 
ATOM      8  C   LIG    1       23.067 -19.555   4.503  0.00  0.00    +0.007 A 
BRANCH   6   9
ATOM      9  O   LIG    1       22.977 -20.757   7.959  0.00  0.00    -0.506 OA
ATOM     10  H   LIG    1       22.434 -19.988   8.219  0.00  0.00    +0.292 HD
ENDBRANCH   6   9
ENDBRANCH   1   5
BRANCH   1  11
ATOM     11  C   LIG    1       25.209 -23.613   6.849  0.00  0.00    -0.040 A 
ATOM     12  C   LIG    1       23.955 -24.203   6.632  0.00  0.00    +0.004 A 
ATOM     13  C   LIG    1       23.843 -25.532   6.219  0.00  0.00    +0.000 A 
ATOM     14  C   LIG    1       24.991 -26.294   6.020  0.00  0.00    +0.000 A 
ATOM     15  C   LIG    1       26.243 -25.733   6.248  0.00  0.00    +0.000 A 
ATOM     16  C   LIG    1       26.357 -24.404   6.667  0.00  0.00    +0.004 A 
ENDBRANCH   1  11
BRANCH   1  17
ATOM     17  C   LIG    1       26.879 -21.817   7.288  0.00  0.00    +0.028 C 
BRANCH  17  18
ATOM     18  C   LIG    1       27.185 -20.488   8.009  0.00  0.00    +0.086 C 
BRANCH  18  19
ATOM     19  N   LIG    1       28.513 -19.875   7.746  0.00  0.00    -0.297 NA
BRANCH  19  20
ATOM     20  C   LIG    1       28.889 -19.871   6.306  0.00  0.00    +0.051 C 
ATOM     21  C   LIG    1       30.160 -19.095   5.930  0.00  0.00    +0.024 C 
ATOM     22  C   LIG    1       27.755 -19.525   5.327  0.00  0.00    +0.024 C 
ENDBRANCH  19  20
BRANCH  19  23
ATOM     23  C   LIG    1       29.555 -20.311   8.723  0.00  0.00    +0.051 C 
ATOM     24  C   LIG    1       30.615 -19.265   9.095  0.00  0.00    +0.024 C 
ATOM     25  C   LIG    1       30.300 -21.607   8.312  0.00  0.00    +0.024 C 
ENDBRANCH  19  23
ENDBRANCH  18  19
ENDBRANCH  17  18
ENDBRANCH   1  17
TORSDOF 8
ENDMDL
MODEL 4
REMARK VINA RESULT:      -7.3      1.701      5.590
REMARK  Name = *****
REMARK                            x       y       z     vdW  Elec       q    Type
REMARK                         _______ _______ _______ _____ _____    ______ ____
ROOT
ATOM      1  C   LIG    1       26.457 -22.018   6.346  0.00  0.00    +0.054 C 
ENDROOT
BRANCH   1   5
ATOM      2  C   LIG    1       23.337 -19.356   3.352  0.00  0.00    +0.044 C 
ATOM      3  C   LIG    1       23.661 -19.939   4.692  0.00  0.00    -0.050 A 
ATOM      4  C   LIG    1       24.840 -20.659   4.891  0.00  0.00    +0.011 A 
ATOM      5  C   LIG    1       25.181 -21.209   6.138  0.00  0.00    +0.002 A 
ATOM      6  C   LIG    1       24.282 -21.002   7.207  0.00  0.00    +0.121 A 
ATOM      7  C   LIG    1       23.114 -20.272   7.026  0.00  0.00    +0.046 A 
ATOM      8  C   LIG    1       22.798 -19.736   5.782  0.00  0.00    +0.007 A 
BRANCH   6   9
ATOM      9  O   LIG    1       24.581 -21.520   8.435  0.00  0.00    -0.506 OA
ATOM     10  H   LIG    1       24.494 -22.491   8.386  0.00  0.00    +0.292 HD
ENDBRANCH   6   9
ENDBRANCH   1   5
BRANCH   1  11
ATOM     11  C   LIG    1       27.656 -21.167   6.786  0.00  0.00    -0.040 A 
ATOM     12  C   LIG    1       28.516 -21.581   7.813  0.00  0.00    +0.004 A 
ATOM     13  C   LIG    1       29.673 -20.861   8.121  0.00  0.00    +0.000 A 
ATOM     14  C   LIG    1       29.983 -19.710   7.402  0.00  0.00    +0.000 A 
ATOM     15  C   LIG    1       29.133 -19.273   6.392  0.00  0.00    +0.000 A 
ATOM     16  C   LIG    1       27.971 -19.989   6.087  0.00  0.00    +0.004 A 
ENDBRANCH   1  11
BRANCH   1  17
ATOM     17  C   LIG    1       26.351 -23.217   7.335  0.00  0.00    +0.028 C 
BRANCH  17  18
ATOM     18  C   LIG    1       26.519 -24.591   6.655  0.00  0.00    +0.086 C 
BRANCH  18  19
ATOM     19  N   LIG    1       25.386 -25.544   6.779  0.00  0.00    -0.297 NA
BRANCH  19  20
ATOM     20  C   LIG    1       25.809 -26.971   6.772  0.00  0.00    +0.051 C 
ATOM     21  C   LIG    1       24.848 -27.969   6.109  0.00  0.00    +0.024 C 
ATOM     22  C   LIG    1       26.289 -27.525   8.124  0.00  0.00    +0.024 C 
ENDBRANCH  19  20
BRANCH  19  23
ATOM     23  C   LIG    1       24.222 -25.172   5.920  0.00  0.00    +0.051 C 
ATOM     24  C   LIG    1       24.558 -24.524   4.569  0.00  0.00    +0.024 C 
ATOM     25  C   LIG    1       23.180 -24.269   6.627  0.00  0.00    +0.024 C 
ENDBRANCH  19  23
ENDBRANCH  18  19
ENDBRANCH  17  18
ENDBRANCH   1  17
TORSDOF 8
ENDMDL
MODEL 5
REMARK VINA RESULT:      -7.3      1.730      5.824
REMARK  Name = *****
REMARK                            x       y       z     vdW  Elec       q    Type
REMARK                         _______ _______ _______ _____ _____    ______ ____
ROOT
ATOM      1  C   LIG    1       25.381 -21.768   7.472  0.00  0.00    +0.054 C 
ENDROOT
BRANCH   1   5
ATOM      2  C   LIG    1       26.844 -26.378   5.925  0.00  0.00    +0.044 C 
ATOM      3  C   LIG    1       25.753 -25.417   6.279  0.00  0.00    -0.050 A 
ATOM      4  C   LIG    1       26.051 -24.114   6.681  0.00  0.00    +0.011 A 
ATOM      5  C   LIG    1       25.051 -23.183   7.008  0.00  0.00    +0.002 A 
ATOM      6  C   LIG    1       23.708 -23.610   6.909  0.00  0.00    +0.121 A 
ATOM      7  C   LIG    1       23.398 -24.898   6.493  0.00  0.00    +0.046 A 
ATOM      8  C   LIG    1       24.405 -25.802   6.174  0.00  0.00    +0.007 A 
BRANCH   6   9
ATOM      9  O   LIG    1       22.709 -22.732   7.217  0.00  0.00    -0.506 OA
ATOM     10  H   LIG    1       21.912 -23.245   7.451  0.00  0.00    +0.292 HD
ENDBRANCH   6   9
ENDBRANCH   1   5
BRANCH   1  11
ATOM     11  C   LIG    1       26.827 -21.349   7.178  0.00  0.00    -0.040 A 
ATOM     12  C   LIG    1       27.147 -20.511   6.100  0.00  0.00    +0.004 A 
ATOM     13  C   LIG    1       28.447 -20.035   5.915  0.00  0.00    +0.000 A 
ATOM     14  C   LIG    1       29.450 -20.397   6.811  0.00  0.00    +0.000 A 
ATOM     15  C   LIG    1       29.156 -21.243   7.876  0.00  0.00    +0.000 A 
ATOM     16  C   LIG    1       27.857 -21.724   8.058  0.00  0.00    +0.004 A 
ENDBRANCH   1  11
BRANCH   1  17
ATOM     17  C   LIG    1       24.451 -20.639   6.933  0.00  0.00    +0.028 C 
BRANCH  17  18
ATOM     18  C   LIG    1       24.274 -20.670   5.401  0.00  0.00    +0.086 C 
BRANCH  18  19
ATOM     19  N   LIG    1       23.735 -19.440   4.765  0.00  0.00    -0.297 NA
BRANCH  19  20
ATOM     20  C   LIG    1       22.252 -19.332   4.847  0.00  0.00    +0.051 C 
ATOM     21  C   LIG    1       21.456 -20.625   4.612  0.00  0.00    +0.024 C 
ATOM     22  C   LIG    1       21.628 -18.179   4.044  0.00  0.00    +0.024 C 
ENDBRANCH  19  20
BRANCH  19  23
ATOM     23  C   LIG    1       24.368 -19.148   3.444  0.00  0.00    +0.051 C 
ATOM     24  C   LIG    1       24.936 -20.355   2.684  0.00  0.00    +0.024 C 
ATOM     25  C   LIG    1       25.478 -18.068   3.503  0.00  0.00    +0.024 C 
ENDBRANCH  19  23
ENDBRANCH  18  19
ENDBRANCH  17  18
ENDBRANCH   1  17
TORSDOF 8
ENDMDL
MODEL 6
REMARK VINA RESULT:      -7.2      1.958      5.942
REMARK  Name = *****
REMARK                            x       y       z     vdW  Elec       q    Type
REMARK                         _______ _______ _______ _____ _____    ______ ____
ROOT
ATOM      1  C   LIG    1       26.410 -21.416   6.986  0.00  0.00    +0.054 C 
ENDROOT
BRANCH   1   5
ATOM      2  C   LIG    1       29.261 -17.822   4.807  0.00  0.00    +0.044 C 
ATOM      3  C   LIG    1       29.080 -18.869   5.861  0.00  0.00    -0.050 A 
ATOM      4  C   LIG    1       27.905 -19.618   5.929  0.00  0.00    +0.011 A 
ATOM      5  C   LIG    1       27.706 -20.616   6.897  0.00  0.00    +0.002 A 
ATOM      6  C   LIG    1       28.755 -20.849   7.814  0.00  0.00    +0.121 A 
ATOM      7  C   LIG    1       29.937 -20.122   7.746  0.00  0.00    +0.046 A 
ATOM      8  C   LIG    1       30.110 -19.139   6.778  0.00  0.00    +0.007 A 
BRANCH   6   9
ATOM      9  O   LIG    1       28.600 -21.813   8.769  0.00  0.00    -0.506 OA
ATOM     10  H   LIG    1       29.483 -22.050   9.112  0.00  0.00    +0.292 HD
ENDBRANCH   6   9
ENDBRANCH   1   5
BRANCH   1  11
ATOM     11  C   LIG    1       25.249 -20.785   6.207  0.00  0.00    -0.040 A 
ATOM     12  C   LIG    1       25.366 -20.450   4.850  0.00  0.00    +0.004 A 
ATOM     13  C   LIG    1       24.266 -19.993   4.121  0.00  0.00    +0.000 A 
ATOM     14  C   LIG    1       23.028 -19.863   4.745  0.00  0.00    +0.000 A 
ATOM     15  C   LIG    1       22.896 -20.172   6.094  0.00  0.00    +0.000 A 
ATOM     16  C   LIG    1       23.997 -20.623   6.828  0.00  0.00    +0.004 A 
ENDBRANCH   1  11
BRANCH   1  17
ATOM     17  C   LIG    1       26.500 -22.911   6.555  0.00  0.00    +0.028 C 
BRANCH  17  18
ATOM     18  C   LIG    1       25.807 -23.875   7.539  0.00  0.00    +0.086 C 
BRANCH  18  19
ATOM     19  N   LIG    1       25.142 -25.067   6.952  0.00  0.00    -0.297 NA
BRANCH  19  20
ATOM     20  C   LIG    1       26.095 -26.133   6.538  0.00  0.00    +0.051 C 
ATOM     21  C   LIG    1       25.929 -26.687   5.115  0.00  0.00    +0.024 C 
ATOM     22  C   LIG    1       26.264 -27.292   7.535  0.00  0.00    +0.024 C 
ENDBRANCH  19  20
BRANCH  19  23
ATOM     23  C   LIG    1       24.059 -24.708   5.989  0.00  0.00    +0.051 C 
ATOM     24  C   LIG    1       24.501 -23.970   4.717  0.00  0.00    +0.024 C 
ATOM     25  C   LIG    1       22.897 -23.898   6.620  0.00  0.00    +0.024 C 
ENDBRANCH  19  23
ENDBRANCH  18  19
ENDBRANCH  17  18
ENDBRANCH   1  17
TORSDOF 8
ENDMDL
MODEL 7
REMARK VINA RESULT:      -7.1      1.512      2.092
REMARK  Name = *****
REMARK                            x       y       z     vdW  Elec       q    Type
REMARK                         _______ _______ _______ _____ _____    ______ ____
ROOT
ATOM      1  C   LIG    1       25.807 -21.513   6.831  0.00  0.00    +0.054 C 
ENDROOT
BRANCH   1   5
ATOM      2  C   LIG    1       21.911 -19.157   4.581  0.00  0.00    +0.044 C 
ATOM      3  C   LIG    1       23.378 -19.444   4.663  0.00  0.00    -0.050 A 
ATOM      4  C   LIG    1       23.884 -20.299   5.644  0.00  0.00    +0.011 A 
ATOM      5  C   LIG    1       25.253 -20.600   5.742  0.00  0.00    +0.002 A 
ATOM      6  C   LIG    1       26.118 -20.006   4.796  0.00  0.00    +0.121 A 
ATOM      7  C   LIG    1       25.624 -19.169   3.804  0.00  0.00    +0.046 A 
ATOM      8  C   LIG    1       24.265 -18.886   3.727  0.00  0.00    +0.007 A 
BRANCH   6   9
ATOM      9  O   LIG    1       27.455 -20.277   4.859  0.00  0.00    -0.506 OA
ATOM     10  H   LIG    1       27.894 -19.544   5.333  0.00  0.00    +0.292 HD
ENDBRANCH   6   9
ENDBRANCH   1   5
BRANCH   1  11
ATOM     11  C   LIG    1       25.218 -22.929   6.800  0.00  0.00    -0.040 A 
ATOM     12  C   LIG    1       23.834 -23.152   6.773  0.00  0.00    +0.004 A 
ATOM     13  C   LIG    1       23.312 -24.438   6.619  0.00  0.00    +0.000 A 
ATOM     14  C   LIG    1       24.174 -25.524   6.493  0.00  0.00    +0.000 A 
ATOM     15  C   LIG    1       25.550 -25.326   6.536  0.00  0.00    +0.000 A 
ATOM     16  C   LIG    1       26.074 -24.040   6.696  0.00  0.00    +0.004 A 
ENDBRANCH   1  11
BRANCH   1  17
ATOM     17  C   LIG    1       27.358 -21.655   6.878  0.00  0.00    +0.028 C 
BRANCH  17  18
ATOM     18  C   LIG    1       28.016 -20.836   8.006  0.00  0.00    +0.086 C 
BRANCH  18  19
ATOM     19  N   LIG    1       29.350 -20.250   7.718  0.00  0.00    -0.297 NA
BRANCH  19  20
ATOM     20  C   LIG    1       30.401 -20.663   8.687  0.00  0.00    +0.051 C 
ATOM     21  C   LIG    1       31.828 -20.171   8.405  0.00  0.00    +0.024 C 
ATOM     22  C   LIG    1       30.423 -22.160   9.039  0.00  0.00    +0.024 C 
ENDBRANCH  19  20
BRANCH  19  23
ATOM     23  C   LIG    1       29.280 -18.800   7.364  0.00  0.00    +0.051 C 
ATOM     24  C   LIG    1       29.826 -18.414   5.981  0.00  0.00    +0.024 C 
ATOM     25  C   LIG    1       29.943 -17.864   8.407  0.00  0.00    +0.024 C 
ENDBRANCH  19  23
ENDBRANCH  18  19
ENDBRANCH  17  18
ENDBRANCH   1  17
TORSDOF 8
ENDMDL
MODEL 8
REMARK VINA RESULT:      -7.0      2.263      6.134
REMARK  Name = *****
REMARK                            x       y       z     vdW  Elec       q    Type
REMARK                         _______ _______ _______ _____ _____    ______ ____
ROOT
ATOM      1  C   LIG    1       24.535 -23.341   7.034  0.00  0.00    +0.054 C 
ENDROOT
BRANCH   1   5
ATOM      2  C   LIG    1       26.322 -28.003   7.964  0.00  0.00    +0.044 C 
ATOM      3  C   LIG    1       25.899 -26.949   6.989  0.00  0.00    -0.050 A 
ATOM      4  C   LIG    1       25.447 -25.705   7.433  0.00  0.00    +0.011 A 
ATOM      5  C   LIG    1       25.055 -24.690   6.545  0.00  0.00    +0.002 A 
ATOM      6  C   LIG    1       25.140 -24.967   5.163  0.00  0.00    +0.121 A 
ATOM      7  C   LIG    1       25.606 -26.193   4.708  0.00  0.00    +0.046 A 
ATOM      8  C   LIG    1       25.989 -27.184   5.606  0.00  0.00    +0.007 A 
BRANCH   6   9
ATOM      9  O   LIG    1       24.769 -24.002   4.269  0.00  0.00    -0.506 OA
ATOM     10  H   LIG    1       24.636 -23.168   4.758  0.00  0.00    +0.292 HD
ENDBRANCH   6   9
ENDBRANCH   1   5
BRANCH   1  11
ATOM     11  C   LIG    1       25.645 -22.393   7.506  0.00  0.00    -0.040 A 
ATOM     12  C   LIG    1       26.940 -22.447   6.969  0.00  0.00    +0.004 A 
ATOM     13  C   LIG    1       27.906 -21.500   7.315  0.00  0.00    +0.000 A 
ATOM     14  C   LIG    1       27.587 -20.482   8.211  0.00  0.00    +0.000 A 
ATOM     15  C   LIG    1       26.315 -20.423   8.769  0.00  0.00    +0.000 A 
ATOM     16  C   LIG    1       25.348 -21.374   8.428  0.00  0.00    +0.004 A 
ENDBRANCH   1  11
BRANCH   1  17
ATOM     17  C   LIG    1       23.644 -22.550   6.030  0.00  0.00    +0.028 C 
BRANCH  17  18
ATOM     18  C   LIG    1       23.533 -21.047   6.360  0.00  0.00    +0.086 C 
BRANCH  18  19
ATOM     19  N   LIG    1       23.815 -20.096   5.255  0.00  0.00    -0.297 NA
BRANCH  19  20
ATOM     20  C   LIG    1       22.597 -19.679   4.507  0.00  0.00    +0.051 C 
ATOM     21  C   LIG    1       22.146 -18.221   4.687  0.00  0.00    +0.024 C 
ATOM     22  C   LIG    1       21.389 -20.621   4.635  0.00  0.00    +0.024 C 
ENDBRANCH  19  20
BRANCH  19  23
ATOM     23  C   LIG    1       25.011 -20.484   4.449  0.00  0.00    +0.051 C 
ATOM     24  C   LIG    1       26.302 -19.703   4.734  0.00  0.00    +0.024 C 
ATOM     25  C   LIG    1       24.775 -20.456   2.917  0.00  0.00    +0.024 C 
ENDBRANCH  19  23
ENDBRANCH  18  19
ENDBRANCH  17  18
ENDBRANCH   1  17
TORSDOF 8
ENDMDL
MODEL 9
REMARK VINA RESULT:      -7.0      2.042      5.970
REMARK  Name = *****
REMARK                            x       y       z     vdW  Elec       q    Type
REMARK                         _______ _______ _______ _____ _____    ______ ____
ROOT
ATOM      1  C   LIG    1       24.992 -22.882   7.617  0.00  0.00    +0.054 C 
ENDROOT
BRANCH   1   5
ATOM      2  C   LIG    1       26.163 -27.820   7.417  0.00  0.00    +0.044 C 
ATOM      3  C   LIG    1       25.760 -26.555   6.724  0.00  0.00    -0.050 A 
ATOM      4  C   LIG    1       25.580 -25.373   7.444  0.00  0.00    +0.011 A 
ATOM      5  C   LIG    1       25.215 -24.166   6.824  0.00  0.00    +0.002 A 
ATOM      6  C   LIG    1       25.040 -24.183   5.423  0.00  0.00    +0.121 A 
ATOM      7  C   LIG    1       25.234 -25.348   4.693  0.00  0.00    +0.046 A 
ATOM      8  C   LIG    1       25.596 -26.531   5.328  0.00  0.00    +0.007 A 
BRANCH   6   9
ATOM      9  O   LIG    1       24.687 -23.028   4.785  0.00  0.00    -0.506 OA
ATOM     10  H   LIG    1       25.095 -22.279   5.261  0.00  0.00    +0.292 HD
ENDBRANCH   6   9
ENDBRANCH   1   5
BRANCH   1  11
ATOM     11  C   LIG    1       26.244 -22.001   7.719  0.00  0.00    -0.040 A 
ATOM     12  C   LIG    1       27.406 -22.283   6.986  0.00  0.00    +0.004 A 
ATOM     13  C   LIG    1       28.493 -21.407   6.990  0.00  0.00    +0.000 A 
ATOM     14  C   LIG    1       28.433 -20.232   7.735  0.00  0.00    +0.000 A 
ATOM     15  C   LIG    1       27.297 -19.944   8.484  0.00  0.00    +0.000 A 
ATOM     16  C   LIG    1       26.209 -20.823   8.486  0.00  0.00    +0.004 A 
ENDBRANCH   1  11
BRANCH   1  17
ATOM     17  C   LIG    1       23.824 -21.974   7.129  0.00  0.00    +0.028 C 
BRANCH  17  18
ATOM     18  C   LIG    1       24.300 -20.674   6.449  0.00  0.00    +0.086 C 
BRANCH  18  19
ATOM     19  N   LIG    1       23.765 -20.394   5.091  0.00  0.00    -0.297 NA
BRANCH  19  20
ATOM     20  C   LIG    1       24.740 -19.706   4.201  0.00  0.00    +0.051 C 
ATOM     21  C   LIG    1       24.678 -20.065   2.709  0.00  0.00    +0.024 C 
ATOM     22  C   LIG    1       26.199 -19.720   4.684  0.00  0.00    +0.024 C 
ENDBRANCH  19  20
BRANCH  19  23
ATOM     23  C   LIG    1       22.371 -19.859   5.119  0.00  0.00    +0.051 C 
ATOM     24  C   LIG    1       21.292 -20.750   4.485  0.00  0.00    +0.024 C 
ATOM     25  C   LIG    1       22.227 -18.442   4.508  0.00  0.00    +0.024 C 
ENDBRANCH  19  23
ENDBRANCH  18  19
ENDBRANCH  17  18
ENDBRANCH   1  17
TORSDOF 8
ENDMDL
