MODEL 1
REMARK VINA RESULT:      -8.3      0.000      0.000
REMARK  Name = *****
REMARK                            x       y       z     vdW  Elec       q    Type
REMARK                         _______ _______ _______ _____ _____    ______ ____
ROOT
ATOM      1  C   LIG    1       24.057 -31.149   6.804  0.00  0.00    +0.129 C 
ATOM      2  C   LIG    1       24.483 -31.277   8.286  0.00  0.00    +0.061 C 
ATOM      3  C   LIG    1       25.798 -30.569   8.643  0.00  0.00    +0.190 C 
ATOM      4  C   LIG    1       26.017 -30.584  10.164  0.00  0.00    +0.141 C 
ATOM      5  C   LIG    1       25.045 -30.894  11.051  0.00  0.00    +0.047 C 
ATOM      6  C   LIG    1       23.620 -31.212  10.644  0.00  0.00    +0.062 C 
ATOM      7  C   LIG    1       22.588 -30.669  11.671  0.00  0.00    +0.096 C 
ATOM      8  C   LIG    1       21.147 -30.903  11.186  0.00  0.00    +0.047 C 
ATOM      9  C   LIG    1       22.906 -31.301  13.022  0.00  0.00    -0.002 A 
ATOM     10  C   LIG    1       24.255 -31.439  13.416  0.00  0.00    +0.069 A 
ATOM     11  C   LIG    1       24.574 -32.011  14.658  0.00  0.00    +0.128 A 
ATOM     12  C   LIG    1       23.571 -32.477  15.499  0.00  0.00    +0.046 A 
ATOM     13  C   LIG    1       22.239 -32.357  15.118  0.00  0.00    +0.004 A 
ATOM     14  C   LIG    1       21.908 -31.765  13.897  0.00  0.00    +0.007 A 
ATOM     15  C   LIG    1       25.353 -31.025  12.506  0.00  0.00    +0.197 C 
ATOM     16  O   LIG    1       26.494 -30.874  12.940  0.00  0.00    -0.287 OA
ATOM     17  C   LIG    1       25.836 -29.129   8.086  0.00  0.00    +0.210 C 
ATOM     18  O   LIG    1       26.509 -28.241   8.616  0.00  0.00    -0.288 OA
ATOM     19  C   LIG    1       25.073 -28.812   6.834  0.00  0.00    +0.121 C 
ATOM     20  C   LIG    1       23.356 -30.756   9.203  0.00  0.00    +0.020 C 
ATOM     21  C   LIG    1       24.188 -29.704   6.337  0.00  0.00    +0.127 C 
ENDROOT
BRANCH  19  22
ATOM     22  C   LIG    1       25.326 -27.544   6.072  0.00  0.00    +0.252 C 
ATOM     23  N   LIG    1       25.409 -26.416   6.824  0.00  0.00    -0.298 N 
ATOM     24  H   LIG    1       25.131 -26.445   7.803  0.00  0.00    +0.150 HD
ATOM     25  O   LIG    1       25.548 -27.563   4.851  0.00  0.00    -0.270 OA
BRANCH  23  26
ATOM     26  C   LIG    1       25.779 -25.126   6.342  0.00  0.00    +0.192 C 
BRANCH  26  27
ATOM     27  N   LIG    1       24.924 -24.191   7.049  0.00  0.00    -0.287 NA
ATOM     28  C   LIG    1       23.511 -24.285   6.675  0.00  0.00    +0.086 C 
ATOM     29  C   LIG    1       22.975 -22.855   6.706  0.00  0.00    +0.017 C 
ATOM     30  C   LIG    1       24.072 -22.060   7.383  0.00  0.00    +0.017 C 
ATOM     31  C   LIG    1       25.324 -22.786   6.932  0.00  0.00    +0.086 C 
ENDBRANCH  26  27
ENDBRANCH  23  26
ENDBRANCH  19  22
BRANCH   1  33
ATOM     32  C   LIG    1       25.560 -31.266   4.871  0.00  0.00    +0.105 C 
ATOM     33  N   LIG    1       24.754 -32.047   5.832  0.00  0.00    -0.298 NA
ATOM     34  C   LIG    1       23.849 -32.897   5.054  0.00  0.00    +0.105 C 
ENDBRANCH   1  33
BRANCH   3  35
ATOM     35  O   LIG    1       26.914 -31.261   8.075  0.00  0.00    -0.373 OA
ATOM     36  H   LIG    1       27.696 -30.866   8.518  0.00  0.00    +0.211 HD
ENDBRANCH   3  35
BRANCH   4  37
ATOM     37  O   LIG    1       27.344 -30.387  10.540  0.00  0.00    -0.507 OA
ATOM     38  H   LIG    1       27.609 -31.116  11.147  0.00  0.00    +0.292 HD
ENDBRANCH   4  37
BRANCH   7  39
ATOM     39  O   LIG    1       22.745 -29.251  11.784  0.00  0.00    -0.384 OA
ATOM     40  H   LIG    1       23.574 -28.998  11.339  0.00  0.00    +0.211 HD
ENDBRANCH   7  39
BRANCH  11  41
ATOM     41  O   LIG    1       25.858 -32.169  15.107  0.00  0.00    -0.506 OA
ATOM     42  H   LIG    1       25.855 -32.083  16.086  0.00  0.00    +0.292 HD
ENDBRANCH  11  41
BRANCH  21  43
ATOM     43  O   LIG    1       23.308 -29.402   5.298  0.00  0.00    -0.509 OA
ATOM     44  H   LIG    1       23.367 -28.441   5.098  0.00  0.00    +0.292 HD
ENDBRANCH  21  43
TORSDOF 9
ENDMDL
MODEL 2
REMARK VINA RESULT:      -5.6      3.401      6.376
REMARK  Name = *****
REMARK                            x       y       z     vdW  Elec       q    Type
REMARK                         _______ _______ _______ _____ _____    ______ ____
ROOT
ATOM      1  C   LIG    1       24.601 -31.828  13.949  0.00  0.00    +0.129 C 
ATOM      2  C   LIG    1       23.549 -30.697  14.045  0.00  0.00    +0.061 C 
ATOM      3  C   LIG    1       23.918 -29.407  13.298  0.00  0.00    +0.190 C 
ATOM      4  C   LIG    1       22.727 -28.437  13.286  0.00  0.00    +0.141 C 
ATOM      5  C   LIG    1       21.466 -28.805  13.609  0.00  0.00    +0.047 C 
ATOM      6  C   LIG    1       21.083 -30.226  13.969  0.00  0.00    +0.062 C 
ATOM      7  C   LIG    1       19.671 -30.599  13.439  0.00  0.00    +0.096 C 
ATOM      8  C   LIG    1       19.346 -32.077  13.717  0.00  0.00    +0.047 C 
ATOM      9  C   LIG    1       18.677 -29.614  14.044  0.00  0.00    -0.002 A 
ATOM     10  C   LIG    1       19.033 -28.250  14.141  0.00  0.00    +0.069 A 
ATOM     11  C   LIG    1       18.133 -27.321  14.687  0.00  0.00    +0.128 A 
ATOM     12  C   LIG    1       16.896 -27.735  15.167  0.00  0.00    +0.046 A 
ATOM     13  C   LIG    1       16.537 -29.076  15.087  0.00  0.00    +0.004 A 
ATOM     14  C   LIG    1       17.414 -30.006  14.521  0.00  0.00    +0.007 A 
ATOM     15  C   LIG    1       20.378 -27.790  13.712  0.00  0.00    +0.197 C 
ATOM     16  O   LIG    1       20.592 -26.592  13.525  0.00  0.00    -0.287 OA
ATOM     17  C   LIG    1       24.414 -29.704  11.866  0.00  0.00    +0.210 C 
ATOM     18  O   LIG    1       24.304 -28.880  10.953  0.00  0.00    -0.288 OA
ATOM     19  C   LIG    1       25.094 -31.010  11.586  0.00  0.00    +0.121 C 
ATOM     20  C   LIG    1       22.182 -31.208  13.541  0.00  0.00    +0.020 C 
ATOM     21  C   LIG    1       25.067 -31.998  12.508  0.00  0.00    +0.127 C 
ENDROOT
BRANCH  19  22
ATOM     22  C   LIG    1       25.877 -31.223  10.323  0.00  0.00    +0.252 C 
ATOM     23  N   LIG    1       25.161 -31.140   9.171  0.00  0.00    -0.298 N 
ATOM     24  H   LIG    1       24.145 -31.118   9.213  0.00  0.00    +0.150 HD
ATOM     25  O   LIG    1       27.111 -31.357  10.347  0.00  0.00    -0.270 OA
BRANCH  23  26
ATOM     26  C   LIG    1       25.708 -31.167   7.855  0.00  0.00    +0.192 C 
BRANCH  26  27
ATOM     27  N   LIG    1       24.909 -30.232   7.086  0.00  0.00    -0.287 NA
ATOM     28  C   LIG    1       25.199 -30.250   5.649  0.00  0.00    +0.086 C 
ATOM     29  C   LIG    1       25.070 -28.803   5.179  0.00  0.00    +0.017 C 
ATOM     30  C   LIG    1       24.427 -28.087   6.348  0.00  0.00    +0.017 C 
ATOM     31  C   LIG    1       24.986 -28.840   7.538  0.00  0.00    +0.086 C 
ENDBRANCH  26  27
ENDBRANCH  23  26
ENDBRANCH  19  22
BRANCH   1  33
ATOM     32  C   LIG    1       26.972 -31.223  14.091  0.00  0.00    +0.105 C 
ATOM     33  N   LIG    1       25.794 -31.704  14.842  0.00  0.00    -0.298 NA
ATOM     34  C   LIG    1       26.177 -32.956  15.500  0.00  0.00    +0.105 C 
ENDBRANCH   1  33
BRANCH   3  35
ATOM     35  O   LIG    1       24.981 -28.723  13.968  0.00  0.00    -0.373 OA
ATOM     36  H   LIG    1       25.593 -29.438  14.248  0.00  0.00    +0.211 HD
ENDBRANCH   3  35
BRANCH   4  37
ATOM     37  O   LIG    1       23.086 -27.112  13.049  0.00  0.00    -0.507 OA
ATOM     38  H   LIG    1       24.039 -27.086  12.800  0.00  0.00    +0.292 HD
ENDBRANCH   4  37
BRANCH   7  39
ATOM     39  O   LIG    1       19.653 -30.448  12.016  0.00  0.00    -0.384 OA
ATOM     40  H   LIG    1       18.999 -31.071  11.650  0.00  0.00    +0.211 HD
ENDBRANCH   7  39
BRANCH  11  41
ATOM     41  O   LIG    1       18.408 -25.986  14.805  0.00  0.00    -0.506 OA
ATOM     42  H   LIG    1       18.969 -25.856  15.602  0.00  0.00    +0.292 HD
ENDBRANCH  11  41
BRANCH  21  43
ATOM     43  O   LIG    1       25.505 -33.296  12.243  0.00  0.00    -0.509 OA
ATOM     44  H   LIG    1       26.488 -33.314  12.269  0.00  0.00    +0.292 HD
ENDBRANCH  21  43
TORSDOF 9
ENDMDL
