MODEL 1
REMARK VINA RESULT:      -7.6      0.000      0.000
REMARK  Name = *****
REMARK                            x       y       z     vdW  Elec       q    Type
REMARK                         _______ _______ _______ _____ _____    ______ ____
ROOT
ATOM      1  CA  TYR A  1       30.234 -20.532   8.587  0.00  0.00    +0.186 C 
ENDROOT
BRANCH   1   4
ATOM      2  C   UNK A  0       32.146 -17.278   9.211  0.00  0.00    +0.109 C 
ATOM      3  C   UNK A  0       31.228 -18.433   9.531  0.00  0.00    +0.211 C 
ATOM      4  N   TYR A  1       31.068 -19.320   8.488  0.00  0.00    -0.302 N 
ATOM      5  H   TYR A  1       31.287 -18.998   7.550  0.00  0.00    +0.149 HD
ATOM      6  O   UNK A  0       30.753 -18.604  10.637  0.00  0.00    -0.276 OA
ENDBRANCH   1   4
BRANCH   1   7
ATOM      7  C   TYR A  1       31.013 -21.746   9.130  0.00  0.00    +0.326 C 
ATOM      8  O   TYR A  1       30.742 -22.336  10.165  0.00  0.00    -0.249 OA
BRANCH   7   9
ATOM      9  OXT TYR A  1       32.128 -22.048   8.419  0.00  0.00    -0.479 OA
ATOM     10  HXT TYR A  1       32.718 -22.652   8.910  0.00  0.00    +0.295 HD
ENDBRANCH   7   9
ENDBRANCH   1   7
BRANCH   1  11
ATOM     11  CB  TYR A  1       29.510 -20.874   7.271  0.00  0.00    +0.069 C 
BRANCH  11  12
ATOM     12  CG  TYR A  1       27.996 -20.849   7.330  0.00  0.00    -0.045 A 
ATOM     13  CD2 TYR A  1       27.324 -21.221   8.504  0.00  0.00    +0.007 A 
ATOM     14  CE2 TYR A  1       25.928 -21.189   8.563  0.00  0.00    +0.045 A 
ATOM     15  CZ  TYR A  1       25.200 -20.784   7.452  0.00  0.00    +0.117 A 
ATOM     16  CE1 TYR A  1       25.841 -20.424   6.275  0.00  0.00    +0.045 A 
ATOM     17  CD1 TYR A  1       27.238 -20.464   6.213  0.00  0.00    +0.007 A 
BRANCH  15  18
ATOM     18  OH  TYR A  1       23.840 -20.755   7.557  0.00  0.00    -0.507 OA
ATOM     19  HH  TYR A  1       23.473 -20.446   6.712  0.00  0.00    +0.292 HD
ENDBRANCH  15  18
ENDBRANCH  11  12
ENDBRANCH   1  11
TORSDOF 6
ENDMDL
MODEL 2
REMARK VINA RESULT:      -7.4      2.714      6.335
REMARK  Name = *****
REMARK                            x       y       z     vdW  Elec       q    Type
REMARK                         _______ _______ _______ _____ _____    ______ ____
ROOT
ATOM      1  CA  TYR A  1       26.358 -21.660   7.131  0.00  0.00    +0.186 C 
ENDROOT
BRANCH   1   4
ATOM      2  C   UNK A  0       24.820 -24.521   5.113  0.00  0.00    +0.109 C 
ATOM      3  C   UNK A  0       25.552 -23.867   6.260  0.00  0.00    +0.211 C 
ATOM      4  N   TYR A  1       25.695 -22.503   6.120  0.00  0.00    -0.302 N 
ATOM      5  H   TYR A  1       25.607 -22.106   5.189  0.00  0.00    +0.149 HD
ATOM      6  O   UNK A  0       25.898 -24.481   7.250  0.00  0.00    -0.276 OA
ENDBRANCH   1   4
BRANCH   1   7
ATOM      7  C   TYR A  1       25.362 -21.023   8.120  0.00  0.00    +0.326 C 
ATOM      8  O   TYR A  1       24.218 -20.700   7.839  0.00  0.00    -0.249 OA
BRANCH   7   9
ATOM      9  OXT TYR A  1       25.900 -20.726   9.330  0.00  0.00    -0.479 OA
ATOM     10  HXT TYR A  1       25.310 -20.153   9.857  0.00  0.00    +0.295 HD
ENDBRANCH   7   9
ENDBRANCH   1   7
BRANCH   1  11
ATOM     11  CB  TYR A  1       27.289 -20.598   6.514  0.00  0.00    +0.069 C 
BRANCH  11  12
ATOM     12  CG  TYR A  1       28.624 -20.414   7.207  0.00  0.00    -0.045 A 
ATOM     13  CD2 TYR A  1       29.334 -19.211   7.075  0.00  0.00    +0.007 A 
ATOM     14  CE2 TYR A  1       30.561 -19.036   7.720  0.00  0.00    +0.045 A 
ATOM     15  CZ  TYR A  1       31.081 -20.058   8.502  0.00  0.00    +0.117 A 
ATOM     16  CE1 TYR A  1       30.404 -21.263   8.639  0.00  0.00    +0.045 A 
ATOM     17  CD1 TYR A  1       29.180 -21.442   7.985  0.00  0.00    +0.007 A 
BRANCH  15  18
ATOM     18  OH  TYR A  1       32.274 -19.841   9.126  0.00  0.00    -0.507 OA
ATOM     19  HH  TYR A  1       32.212 -19.013   9.630  0.00  0.00    +0.292 HD
ENDBRANCH  15  18
ENDBRANCH  11  12
ENDBRANCH   1  11
TORSDOF 6
ENDMDL
MODEL 3
REMARK VINA RESULT:      -7.2      3.208      6.977
REMARK  Name = *****
REMARK                            x       y       z     vdW  Elec       q    Type
REMARK                         _______ _______ _______ _____ _____    ______ ____
ROOT
ATOM      1  CA  TYR A  1       24.357 -21.467   5.564  0.00  0.00    +0.186 C 
ENDROOT
BRANCH   1   4
ATOM      2  C   UNK A  0       25.055 -25.159   4.850  0.00  0.00    +0.109 C 
ATOM      3  C   UNK A  0       25.045 -23.875   5.644  0.00  0.00    +0.211 C 
ATOM      4  N   TYR A  1       24.489 -22.809   4.969  0.00  0.00    -0.302 N 
ATOM      5  H   TYR A  1       24.432 -22.863   3.957  0.00  0.00    +0.149 HD
ATOM      6  O   UNK A  0       25.412 -23.820   6.802  0.00  0.00    -0.276 OA
ENDBRANCH   1   4
BRANCH   1   7
ATOM      7  C   TYR A  1       22.942 -20.879   5.397  0.00  0.00    +0.326 C 
ATOM      8  O   TYR A  1       22.650 -19.710   5.593  0.00  0.00    -0.249 OA
BRANCH   7   9
ATOM      9  OXT TYR A  1       21.989 -21.807   5.127  0.00  0.00    -0.479 OA
ATOM     10  HXT TYR A  1       21.366 -21.496   4.443  0.00  0.00    +0.295 HD
ENDBRANCH   7   9
ENDBRANCH   1   7
BRANCH   1  11
ATOM     11  CB  TYR A  1       25.433 -20.480   5.069  0.00  0.00    +0.069 C 
BRANCH  11  12
ATOM     12  CG  TYR A  1       26.612 -20.275   5.999  0.00  0.00    -0.045 A 
ATOM     13  CD2 TYR A  1       26.482 -20.516   7.375  0.00  0.00    +0.007 A 
ATOM     14  CE2 TYR A  1       27.570 -20.337   8.233  0.00  0.00    +0.045 A 
ATOM     15  CZ  TYR A  1       28.792 -19.920   7.720  0.00  0.00    +0.117 A 
ATOM     16  CE1 TYR A  1       28.942 -19.662   6.364  0.00  0.00    +0.045 A 
ATOM     17  CD1 TYR A  1       27.850 -19.833   5.507  0.00  0.00    +0.007 A 
BRANCH  15  18
ATOM     18  OH  TYR A  1       29.832 -19.770   8.590  0.00  0.00    -0.507 OA
ATOM     19  HH  TYR A  1       30.662 -19.830   8.090  0.00  0.00    +0.292 HD
ENDBRANCH  15  18
ENDBRANCH  11  12
ENDBRANCH   1  11
TORSDOF 6
ENDMDL
MODEL 4
REMARK VINA RESULT:      -7.1      2.686      4.165
REMARK  Name = *****
REMARK                            x       y       z     vdW  Elec       q    Type
REMARK                         _______ _______ _______ _____ _____    ______ ____
ROOT
ATOM      1  CA  TYR A  1       26.789 -20.701   7.172  0.00  0.00    +0.186 C 
ENDROOT
BRANCH   1   4
ATOM      2  C   UNK A  0       30.559 -20.165   7.535  0.00  0.00    +0.109 C 
ATOM      3  C   UNK A  0       29.092 -19.949   7.816  0.00  0.00    +0.211 C 
ATOM      4  N   TYR A  1       28.258 -20.733   7.047  0.00  0.00    -0.302 N 
ATOM      5  H   TYR A  1       28.630 -21.125   6.188  0.00  0.00    +0.149 HD
ATOM      6  O   UNK A  0       28.696 -19.216   8.702  0.00  0.00    -0.276 OA
ENDBRANCH   1   4
BRANCH   1   7
ATOM      7  C   TYR A  1       26.292 -21.308   8.498  0.00  0.00    +0.326 C 
ATOM      8  O   TYR A  1       26.073 -22.496   8.677  0.00  0.00    -0.249 OA
BRANCH   7   9
ATOM      9  OXT TYR A  1       25.988 -20.386   9.446  0.00  0.00    -0.479 OA
ATOM     10  HXT TYR A  1       26.175 -19.478   9.140  0.00  0.00    +0.295 HD
ENDBRANCH   7   9
ENDBRANCH   1   7
BRANCH   1  11
ATOM     11  CB  TYR A  1       26.069 -21.331   5.964  0.00  0.00    +0.069 C 
BRANCH  11  12
ATOM     12  CG  TYR A  1       24.893 -20.545   5.419  0.00  0.00    -0.045 A 
ATOM     13  CD2 TYR A  1       23.663 -20.545   6.095  0.00  0.00    +0.007 A 
ATOM     14  CE2 TYR A  1       22.581 -19.815   5.600  0.00  0.00    +0.045 A 
ATOM     15  CZ  TYR A  1       22.722 -19.079   4.431  0.00  0.00    +0.117 A 
ATOM     16  CE1 TYR A  1       23.925 -19.073   3.736  0.00  0.00    +0.045 A 
ATOM     17  CD1 TYR A  1       25.006 -19.812   4.228  0.00  0.00    +0.007 A 
BRANCH  15  18
ATOM     18  OH  TYR A  1       21.645 -18.368   3.989  0.00  0.00    -0.507 OA
ATOM     19  HH  TYR A  1       21.537 -17.588   4.557  0.00  0.00    +0.292 HD
ENDBRANCH  15  18
ENDBRANCH  11  12
ENDBRANCH   1  11
TORSDOF 6
ENDMDL
MODEL 5
REMARK VINA RESULT:      -7.1      2.522      3.762
REMARK  Name = *****
REMARK                            x       y       z     vdW  Elec       q    Type
REMARK                         _______ _______ _______ _____ _____    ______ ____
ROOT
ATOM      1  CA  TYR A  1       27.990 -20.348   6.931  0.00  0.00    +0.186 C 
ENDROOT
BRANCH   1   4
ATOM      2  C   UNK A  0       31.221 -19.532   8.809  0.00  0.00    +0.109 C 
ATOM      3  C   UNK A  0       30.068 -20.382   8.332  0.00  0.00    +0.211 C 
ATOM      4  N   TYR A  1       29.177 -19.707   7.526  0.00  0.00    -0.302 N 
ATOM      5  H   TYR A  1       29.169 -18.692   7.569  0.00  0.00    +0.149 HD
ATOM      6  O   UNK A  0       29.990 -21.572   8.570  0.00  0.00    -0.276 OA
ENDBRANCH   1   4
BRANCH   1   7
ATOM      7  C   TYR A  1       27.575 -19.706   5.592  0.00  0.00    +0.326 C 
ATOM      8  O   TYR A  1       26.533 -19.946   5.003  0.00  0.00    -0.249 OA
BRANCH   7   9
ATOM      9  OXT TYR A  1       28.535 -18.924   5.036  0.00  0.00    -0.479 OA
ATOM     10  HXT TYR A  1       29.366 -19.417   4.895  0.00  0.00    +0.295 HD
ENDBRANCH   7   9
ENDBRANCH   1   7
BRANCH   1  11
ATOM     11  CB  TYR A  1       26.798 -20.429   7.905  0.00  0.00    +0.069 C 
BRANCH  11  12
ATOM     12  CG  TYR A  1       25.741 -21.460   7.562  0.00  0.00    -0.045 A 
ATOM     13  CD2 TYR A  1       24.385 -21.102   7.526  0.00  0.00    +0.007 A 
ATOM     14  CE2 TYR A  1       23.410 -22.049   7.202  0.00  0.00    +0.045 A 
ATOM     15  CZ  TYR A  1       23.784 -23.353   6.909  0.00  0.00    +0.117 A 
ATOM     16  CE1 TYR A  1       25.119 -23.735   6.951  0.00  0.00    +0.045 A 
ATOM     17  CD1 TYR A  1       26.094 -22.790   7.285  0.00  0.00    +0.007 A 
BRANCH  15  18
ATOM     18  OH  TYR A  1       22.802 -24.242   6.584  0.00  0.00    -0.507 OA
ATOM     19  HH  TYR A  1       23.212 -25.010   6.153  0.00  0.00    +0.292 HD
ENDBRANCH  15  18
ENDBRANCH  11  12
ENDBRANCH   1  11
TORSDOF 6
ENDMDL
MODEL 6
REMARK VINA RESULT:      -7.1      3.134      7.208
REMARK  Name = *****
REMARK                            x       y       z     vdW  Elec       q    Type
REMARK                         _______ _______ _______ _____ _____    ______ ____
ROOT
ATOM      1  CA  TYR A  1       24.154 -20.455   5.386  0.00  0.00    +0.186 C 
ENDROOT
BRANCH   1   4
ATOM      2  C   UNK A  0       22.728 -23.746   6.715  0.00  0.00    +0.109 C 
ATOM      3  C   UNK A  0       23.233 -22.325   6.778  0.00  0.00    +0.211 C 
ATOM      4  N   TYR A  1       23.645 -21.828   5.560  0.00  0.00    -0.302 N 
ATOM      5  H   TYR A  1       23.876 -22.492   4.827  0.00  0.00    +0.149 HD
ATOM      6  O   UNK A  0       23.192 -21.660   7.796  0.00  0.00    -0.276 OA
ENDBRANCH   1   4
BRANCH   1   7
ATOM      7  C   TYR A  1       23.201 -19.568   4.560  0.00  0.00    +0.326 C 
ATOM      8  O   TYR A  1       21.996 -19.490   4.742  0.00  0.00    -0.249 OA
BRANCH   7   9
ATOM      9  OXT TYR A  1       23.795 -18.954   3.506  0.00  0.00    -0.479 OA
ATOM     10  HXT TYR A  1       24.270 -19.591   2.938  0.00  0.00    +0.295 HD
ENDBRANCH   7   9
ENDBRANCH   1   7
BRANCH   1  11
ATOM     11  CB  TYR A  1       25.587 -20.411   4.823  0.00  0.00    +0.069 C 
BRANCH  11  12
ATOM     12  CG  TYR A  1       26.690 -20.237   5.848  0.00  0.00    -0.045 A 
ATOM     13  CD2 TYR A  1       27.956 -19.776   5.460  0.00  0.00    +0.007 A 
ATOM     14  CE2 TYR A  1       28.971 -19.606   6.405  0.00  0.00    +0.045 A 
ATOM     15  CZ  TYR A  1       28.724 -19.892   7.741  0.00  0.00    +0.117 A 
ATOM     16  CE1 TYR A  1       27.483 -20.362   8.149  0.00  0.00    +0.045 A 
ATOM     17  CD1 TYR A  1       26.470 -20.541   7.201  0.00  0.00    +0.007 A 
BRANCH  15  18
ATOM     18  OH  TYR A  1       29.738 -19.699   8.633  0.00  0.00    -0.507 OA
ATOM     19  HH  TYR A  1       29.351 -19.566   9.514  0.00  0.00    +0.292 HD
ENDBRANCH  15  18
ENDBRANCH  11  12
ENDBRANCH   1  11
TORSDOF 6
ENDMDL
MODEL 7
REMARK VINA RESULT:      -7.0      3.048      6.675
REMARK  Name = *****
REMARK                            x       y       z     vdW  Elec       q    Type
REMARK                         _______ _______ _______ _____ _____    ______ ____
ROOT
ATOM      1  CA  TYR A  1       25.133 -21.347   6.047  0.00  0.00    +0.186 C 
ENDROOT
BRANCH   1   4
ATOM      2  C   UNK A  0       22.397 -19.063   4.658  0.00  0.00    +0.109 C 
ATOM      3  C   UNK A  0       23.580 -20.000   4.613  0.00  0.00    +0.211 C 
ATOM      4  N   TYR A  1       24.008 -20.413   5.857  0.00  0.00    -0.302 N 
ATOM      5  H   TYR A  1       23.743 -19.855   6.662  0.00  0.00    +0.149 HD
ATOM      6  O   UNK A  0       24.046 -20.416   3.570  0.00  0.00    -0.276 OA
ENDBRANCH   1   4
BRANCH   1   7
ATOM      7  C   TYR A  1       24.713 -22.822   5.897  0.00  0.00    +0.326 C 
ATOM      8  O   TYR A  1       24.468 -23.570   6.830  0.00  0.00    -0.249 OA
BRANCH   7   9
ATOM      9  OXT TYR A  1       24.755 -23.280   4.620  0.00  0.00    -0.479 OA
ATOM     10  HXT TYR A  1       24.986 -22.571   3.990  0.00  0.00    +0.295 HD
ENDBRANCH   7   9
ENDBRANCH   1   7
BRANCH   1  11
ATOM     11  CB  TYR A  1       25.894 -21.113   7.366  0.00  0.00    +0.069 C 
BRANCH  11  12
ATOM     12  CG  TYR A  1       27.362 -20.765   7.225  0.00  0.00    -0.045 A 
ATOM     13  CD2 TYR A  1       27.788 -19.869   6.234  0.00  0.00    +0.007 A 
ATOM     14  CE2 TYR A  1       29.140 -19.540   6.108  0.00  0.00    +0.045 A 
ATOM     15  CZ  TYR A  1       30.070 -20.101   6.972  0.00  0.00    +0.117 A 
ATOM     16  CE1 TYR A  1       29.675 -21.001   7.953  0.00  0.00    +0.045 A 
ATOM     17  CD1 TYR A  1       28.323 -21.337   8.074  0.00  0.00    +0.007 A 
BRANCH  15  18
ATOM     18  OH  TYR A  1       31.378 -19.742   6.824  0.00  0.00    -0.507 OA
ATOM     19  HH  TYR A  1       31.428 -19.028   6.168  0.00  0.00    +0.292 HD
ENDBRANCH  15  18
ENDBRANCH  11  12
ENDBRANCH   1  11
TORSDOF 6
ENDMDL
MODEL 8
REMARK VINA RESULT:      -6.9      6.776      8.687
REMARK  Name = *****
REMARK                            x       y       z     vdW  Elec       q    Type
REMARK                         _______ _______ _______ _____ _____    ______ ____
ROOT
ATOM      1  CA  TYR A  1       24.900 -27.942   6.571  0.00  0.00    +0.186 C 
ENDROOT
BRANCH   1   4
ATOM      2  C   UNK A  0       26.729 -29.269   9.657  0.00  0.00    +0.109 C 
ATOM      3  C   UNK A  0       25.581 -29.090   8.692  0.00  0.00    +0.211 C 
ATOM      4  N   TYR A  1       25.867 -28.243   7.642  0.00  0.00    -0.302 N 
ATOM      5  H   TYR A  1       26.638 -27.592   7.750  0.00  0.00    +0.149 HD
ATOM      6  O   UNK A  0       24.540 -29.709   8.792  0.00  0.00    -0.276 OA
ENDBRANCH   1   4
BRANCH   1   7
ATOM      7  C   TYR A  1       24.575 -29.172   5.700  0.00  0.00    +0.326 C 
ATOM      8  O   TYR A  1       25.412 -29.874   5.154  0.00  0.00    -0.249 OA
BRANCH   7   9
ATOM      9  OXT TYR A  1       23.249 -29.354   5.477  0.00  0.00    -0.479 OA
ATOM     10  HXT TYR A  1       22.741 -28.534   5.628  0.00  0.00    +0.295 HD
ENDBRANCH   7   9
ENDBRANCH   1   7
BRANCH   1  11
ATOM     11  CB  TYR A  1       25.316 -26.739   5.704  0.00  0.00    +0.069 C 
BRANCH  11  12
ATOM     12  CG  TYR A  1       24.949 -25.376   6.255  0.00  0.00    -0.045 A 
ATOM     13  CD2 TYR A  1       23.612 -24.952   6.273  0.00  0.00    +0.007 A 
ATOM     14  CE2 TYR A  1       23.271 -23.699   6.789  0.00  0.00    +0.045 A 
ATOM     15  CZ  TYR A  1       24.262 -22.867   7.292  0.00  0.00    +0.117 A 
ATOM     16  CE1 TYR A  1       25.594 -23.258   7.274  0.00  0.00    +0.045 A 
ATOM     17  CD1 TYR A  1       25.937 -24.508   6.749  0.00  0.00    +0.007 A 
BRANCH  15  18
ATOM     18  OH  TYR A  1       23.885 -21.658   7.799  0.00  0.00    -0.507 OA
ATOM     19  HH  TYR A  1       24.426 -20.967   7.383  0.00  0.00    +0.292 HD
ENDBRANCH  15  18
ENDBRANCH  11  12
ENDBRANCH   1  11
TORSDOF 6
ENDMDL
MODEL 9
REMARK VINA RESULT:      -6.9      6.773      8.650
REMARK  Name = *****
REMARK                            x       y       z     vdW  Elec       q    Type
REMARK                         _______ _______ _______ _____ _____    ______ ____
ROOT
ATOM      1  CA  TYR A  1       25.023 -27.935   6.627  0.00  0.00    +0.186 C 
ENDROOT
BRANCH   1   4
ATOM      2  C   UNK A  0       26.780 -29.425   9.680  0.00  0.00    +0.109 C 
ATOM      3  C   UNK A  0       25.646 -29.172   8.716  0.00  0.00    +0.211 C 
ATOM      4  N   TYR A  1       25.971 -28.306   7.694  0.00  0.00    -0.302 N 
ATOM      5  H   TYR A  1       26.767 -27.690   7.825  0.00  0.00    +0.149 HD
ATOM      6  O   UNK A  0       24.580 -29.752   8.793  0.00  0.00    -0.276 OA
ENDBRANCH   1   4
BRANCH   1   7
ATOM      7  C   TYR A  1       24.665 -29.122   5.711  0.00  0.00    +0.326 C 
ATOM      8  O   TYR A  1       25.482 -29.824   5.136  0.00  0.00    -0.249 OA
BRANCH   7   9
ATOM      9  OXT TYR A  1       23.334 -29.260   5.483  0.00  0.00    -0.479 OA
ATOM     10  HXT TYR A  1       22.934 -29.928   6.072  0.00  0.00    +0.295 HD
ENDBRANCH   7   9
ENDBRANCH   1   7
BRANCH   1  11
ATOM     11  CB  TYR A  1       25.486 -26.715   5.807  0.00  0.00    +0.069 C 
BRANCH  11  12
ATOM     12  CG  TYR A  1       25.027 -25.366   6.322  0.00  0.00    -0.045 A 
ATOM     13  CD2 TYR A  1       25.952 -24.454   6.850  0.00  0.00    +0.007 A 
ATOM     14  CE2 TYR A  1       25.532 -23.206   7.317  0.00  0.00    +0.045 A 
ATOM     15  CZ  TYR A  1       24.188 -22.863   7.255  0.00  0.00    +0.117 A 
ATOM     16  CE1 TYR A  1       23.250 -23.753   6.748  0.00  0.00    +0.045 A 
ATOM     17  CD1 TYR A  1       23.670 -25.006   6.289  0.00  0.00    +0.007 A 
BRANCH  15  18
ATOM     18  OH  TYR A  1       23.822 -21.630   7.708  0.00  0.00    -0.507 OA
ATOM     19  HH  TYR A  1       24.121 -20.964   7.066  0.00  0.00    +0.292 HD
ENDBRANCH  15  18
ENDBRANCH  11  12
ENDBRANCH   1  11
TORSDOF 6
ENDMDL
