MODEL 1
REMARK VINA RESULT:      -4.3      0.000      0.000
REMARK  Name = *****
REMARK                            x       y       z     vdW  Elec       q    Type
REMARK                         _______ _______ _______ _____ _____    ______ ____
ROOT
ATOM      1  C   LIG    1       30.924 -20.634   8.439  0.00  0.00    +0.399 C 
ENDROOT
BRANCH   1   2
ATOM      2  C   LIG    1       29.935 -19.516   7.952  0.00  0.00    +0.263 C 
ATOM      3 CL   LIG    1       30.400 -18.956   6.308  0.00  0.00    -0.076 Cl
ATOM      4 CL   LIG    1       30.001 -18.100   9.057  0.00  0.00    -0.076 Cl
ATOM      5 CL   LIG    1       28.253 -20.130   7.884  0.00  0.00    -0.076 Cl
ENDBRANCH   1   2
BRANCH   1   6
ATOM      6  O   LIG    1       31.995 -20.148   9.244  0.00  0.00    -0.504 OA
ATOM      7  H   LIG    1       32.715 -19.916   8.628  0.00  0.00    +0.287 HD
ENDBRANCH   1   6
BRANCH   1   8
ATOM      8  O   LIG    1       30.296 -21.643   9.219  0.00  0.00    -0.504 OA
ATOM      9  H   LIG    1       31.025 -22.166   9.597  0.00  0.00    +0.287 HD
ENDBRANCH   1   8
TORSDOF 3
ENDMDL
MODEL 2
REMARK VINA RESULT:      -4.3      6.835      7.696
REMARK  Name = *****
REMARK                            x       y       z     vdW  Elec       q    Type
REMARK                         _______ _______ _______ _____ _____    ______ ____
ROOT
ATOM      1  C   LIG    1       24.764 -22.196   5.433  0.00  0.00    +0.399 C 
ENDROOT
BRANCH   1   2
ATOM      2  C   LIG    1       23.409 -21.857   6.151  0.00  0.00    +0.263 C 
ATOM      3 CL   LIG    1       23.709 -20.766   7.547  0.00  0.00    -0.076 Cl
ATOM      4 CL   LIG    1       22.644 -23.358   6.777  0.00  0.00    -0.076 Cl
ATOM      5 CL   LIG    1       22.274 -21.042   5.030  0.00  0.00    -0.076 Cl
ENDBRANCH   1   2
BRANCH   1   6
ATOM      6  O   LIG    1       24.725 -23.392   4.658  0.00  0.00    -0.504 OA
ATOM      7  H   LIG    1       25.643 -23.566   4.379  0.00  0.00    +0.287 HD
ENDBRANCH   1   6
BRANCH   1   8
ATOM      8  O   LIG    1       25.197 -21.181   4.535  0.00  0.00    -0.504 OA
ATOM      9  H   LIG    1       24.562 -20.452   4.647  0.00  0.00    +0.287 HD
ENDBRANCH   1   8
TORSDOF 3
ENDMDL
MODEL 3
REMARK VINA RESULT:      -4.3      6.856      7.740
REMARK  Name = *****
REMARK                            x       y       z     vdW  Elec       q    Type
REMARK                         _______ _______ _______ _____ _____    ______ ____
ROOT
ATOM      1  C   LIG    1       24.758 -22.169   5.424  0.00  0.00    +0.399 C 
ENDROOT
BRANCH   1   2
ATOM      2  C   LIG    1       23.413 -21.833   6.161  0.00  0.00    +0.263 C 
ATOM      3 CL   LIG    1       22.647 -23.343   6.764  0.00  0.00    -0.076 Cl
ATOM      4 CL   LIG    1       22.262 -21.043   5.030  0.00  0.00    -0.076 Cl
ATOM      5 CL   LIG    1       23.700 -20.749   7.559  0.00  0.00    -0.076 Cl
ENDBRANCH   1   2
BRANCH   1   6
ATOM      6  O   LIG    1       24.724 -23.389   4.686  0.00  0.00    -0.504 OA
ATOM      7  H   LIG    1       23.982 -23.906   5.050  0.00  0.00    +0.287 HD
ENDBRANCH   1   6
BRANCH   1   8
ATOM      8  O   LIG    1       25.154 -21.175   4.488  0.00  0.00    -0.504 OA
ATOM      9  H   LIG    1       25.160 -20.340   4.989  0.00  0.00    +0.287 HD
ENDBRANCH   1   8
TORSDOF 3
ENDMDL
MODEL 4
REMARK VINA RESULT:      -4.3      6.826      7.524
REMARK  Name = *****
REMARK                            x       y       z     vdW  Elec       q    Type
REMARK                         _______ _______ _______ _____ _____    ______ ____
ROOT
ATOM      1  C   LIG    1       24.775 -22.201   5.434  0.00  0.00    +0.399 C 
ENDROOT
BRANCH   1   2
ATOM      2  C   LIG    1       23.430 -21.865   6.171  0.00  0.00    +0.263 C 
ATOM      3 CL   LIG    1       22.300 -21.040   5.043  0.00  0.00    -0.076 Cl
ATOM      4 CL   LIG    1       23.735 -20.761   7.555  0.00  0.00    -0.076 Cl
ATOM      5 CL   LIG    1       22.638 -23.356   6.772  0.00  0.00    -0.076 Cl
ENDBRANCH   1   2
BRANCH   1   6
ATOM      6  O   LIG    1       24.731 -23.400   4.666  0.00  0.00    -0.504 OA
ATOM      7  H   LIG    1       24.244 -24.052   5.205  0.00  0.00    +0.287 HD
ENDBRANCH   1   6
BRANCH   1   8
ATOM      8  O   LIG    1       25.190 -21.188   4.526  0.00  0.00    -0.504 OA
ATOM      9  H   LIG    1       25.598 -21.663   3.781  0.00  0.00    +0.287 HD
ENDBRANCH   1   8
TORSDOF 3
ENDMDL
MODEL 5
REMARK VINA RESULT:      -4.2      7.185      7.684
REMARK  Name = *****
REMARK                            x       y       z     vdW  Elec       q    Type
REMARK                         _______ _______ _______ _____ _____    ______ ____
ROOT
ATOM      1  C   LIG    1       23.458 -24.065   6.719  0.00  0.00    +0.399 C 
ENDROOT
BRANCH   1   2
ATOM      2  C   LIG    1       24.337 -22.765   6.673  0.00  0.00    +0.263 C 
ATOM      3 CL   LIG    1       24.731 -22.348   4.969  0.00  0.00    -0.076 Cl
ATOM      4 CL   LIG    1       25.883 -23.026   7.550  0.00  0.00    -0.076 Cl
ATOM      5 CL   LIG    1       23.472 -21.379   7.407  0.00  0.00    -0.076 Cl
ENDBRANCH   1   2
BRANCH   1   6
ATOM      6  O   LIG    1       22.057 -23.820   6.624  0.00  0.00    -0.504 OA
ATOM      7  H   LIG    1       21.641 -24.683   6.441  0.00  0.00    +0.287 HD
ENDBRANCH   1   6
BRANCH   1   8
ATOM      8  O   LIG    1       23.751 -24.983   5.673  0.00  0.00    -0.504 OA
ATOM      9  H   LIG    1       23.136 -25.726   5.804  0.00  0.00    +0.287 HD
ENDBRANCH   1   8
TORSDOF 3
ENDMDL
MODEL 6
REMARK VINA RESULT:      -4.2      6.535      7.198
REMARK  Name = *****
REMARK                            x       y       z     vdW  Elec       q    Type
REMARK                         _______ _______ _______ _____ _____    ______ ____
ROOT
ATOM      1  C   LIG    1       24.482 -22.178   5.163  0.00  0.00    +0.399 C 
ENDROOT
BRANCH   1   2
ATOM      2  C   LIG    1       24.044 -22.297   6.666  0.00  0.00    +0.263 C 
ATOM      3 CL   LIG    1       22.751 -23.534   6.834  0.00  0.00    -0.076 Cl
ATOM      4 CL   LIG    1       23.388 -20.729   7.250  0.00  0.00    -0.076 Cl
ATOM      5 CL   LIG    1       25.425 -22.778   7.701  0.00  0.00    -0.076 Cl
ENDBRANCH   1   2
BRANCH   1   6
ATOM      6  O   LIG    1       25.621 -21.345   4.956  0.00  0.00    -0.504 OA
ATOM      7  H   LIG    1       26.283 -21.621   5.617  0.00  0.00    +0.287 HD
ENDBRANCH   1   6
BRANCH   1   8
ATOM      8  O   LIG    1       24.817 -23.427   4.571  0.00  0.00    -0.504 OA
ATOM      9  H   LIG    1       24.061 -24.010   4.758  0.00  0.00    +0.287 HD
ENDBRANCH   1   8
TORSDOF 3
ENDMDL
MODEL 7
REMARK VINA RESULT:      -4.2      6.488      7.094
REMARK  Name = *****
REMARK                            x       y       z     vdW  Elec       q    Type
REMARK                         _______ _______ _______ _____ _____    ______ ____
ROOT
ATOM      1  C   LIG    1       24.516 -22.154   5.186  0.00  0.00    +0.399 C 
ENDROOT
BRANCH   1   2
ATOM      2  C   LIG    1       24.042 -22.294   6.676  0.00  0.00    +0.263 C 
ATOM      3 CL   LIG    1       23.369 -20.732   7.258  0.00  0.00    -0.076 Cl
ATOM      4 CL   LIG    1       25.429 -22.726   7.734  0.00  0.00    -0.076 Cl
ATOM      5 CL   LIG    1       22.772 -23.548   6.831  0.00  0.00    -0.076 Cl
ENDBRANCH   1   2
BRANCH   1   6
ATOM      6  O   LIG    1       25.698 -21.372   5.026  0.00  0.00    -0.504 OA
ATOM      7  H   LIG    1       25.445 -20.452   5.227  0.00  0.00    +0.287 HD
ENDBRANCH   1   6
BRANCH   1   8
ATOM      8  O   LIG    1       24.803 -23.400   4.564  0.00  0.00    -0.504 OA
ATOM      9  H   LIG    1       24.343 -24.067   5.104  0.00  0.00    +0.287 HD
ENDBRANCH   1   8
TORSDOF 3
ENDMDL
MODEL 8
REMARK VINA RESULT:      -4.2      6.580      7.288
REMARK  Name = *****
REMARK                            x       y       z     vdW  Elec       q    Type
REMARK                         _______ _______ _______ _____ _____    ______ ____
ROOT
ATOM      1  C   LIG    1       24.408 -22.191   5.184  0.00  0.00    +0.399 C 
ENDROOT
BRANCH   1   2
ATOM      2  C   LIG    1       23.950 -22.287   6.683  0.00  0.00    +0.263 C 
ATOM      3 CL   LIG    1       25.350 -22.710   7.728  0.00  0.00    -0.076 Cl
ATOM      4 CL   LIG    1       22.708 -23.571   6.875  0.00  0.00    -0.076 Cl
ATOM      5 CL   LIG    1       23.275 -20.727   7.249  0.00  0.00    -0.076 Cl
ENDBRANCH   1   2
BRANCH   1   6
ATOM      6  O   LIG    1       25.534 -21.342   4.976  0.00  0.00    -0.504 OA
ATOM      7  H   LIG    1       26.192 -21.592   5.652  0.00  0.00    +0.287 HD
ENDBRANCH   1   6
BRANCH   1   8
ATOM      8  O   LIG    1       24.775 -23.446   4.624  0.00  0.00    -0.504 OA
ATOM      9  H   LIG    1       24.027 -24.040   4.813  0.00  0.00    +0.287 HD
ENDBRANCH   1   8
TORSDOF 3
ENDMDL
MODEL 9
REMARK VINA RESULT:      -4.1      4.226      5.002
REMARK  Name = *****
REMARK                            x       y       z     vdW  Elec       q    Type
REMARK                         _______ _______ _______ _____ _____    ______ ____
ROOT
ATOM      1  C   LIG    1       26.520 -20.515   8.177  0.00  0.00    +0.399 C 
ENDROOT
BRANCH   1   2
ATOM      2  C   LIG    1       25.634 -21.085   7.013  0.00  0.00    +0.263 C 
ATOM      3 CL   LIG    1       25.906 -22.853   6.841  0.00  0.00    -0.076 Cl
ATOM      4 CL   LIG    1       26.074 -20.304   5.455  0.00  0.00    -0.076 Cl
ATOM      5 CL   LIG    1       23.893 -20.810   7.336  0.00  0.00    -0.076 Cl
ENDBRANCH   1   2
BRANCH   1   6
ATOM      6  O   LIG    1       25.874 -20.514   9.448  0.00  0.00    -0.504 OA
ATOM      7  H   LIG    1       25.004 -20.095   9.311  0.00  0.00    +0.287 HD
ENDBRANCH   1   6
BRANCH   1   8
ATOM      8  O   LIG    1       27.730 -21.235   8.371  0.00  0.00    -0.504 OA
ATOM      9  H   LIG    1       27.457 -22.116   8.681  0.00  0.00    +0.287 HD
ENDBRANCH   1   8
TORSDOF 3
ENDMDL
