MODEL 1
REMARK VINA RESULT:       1.1      0.000      0.000
REMARK  Name = *****
REMARK                            x       y       z     vdW  Elec       q    Type
REMARK                         _______ _______ _______ _____ _____    ______ ____
ROOT
ATOM      1  C   LIG    1       26.919 -17.428   3.856  0.00  0.00    -0.000 C 
ATOM      2  C   LIG    1       27.577 -18.461   4.411  0.00  0.00    -0.066 C 
ATOM      3  C   LIG    1       27.093 -19.916   4.454  0.00  0.00    +0.021 C 
ATOM      4  C   LIG    1       25.754 -20.301   3.813  0.00  0.00    +0.009 C 
ATOM      5  C   LIG    1       25.309 -21.525   4.601  0.00  0.00    +0.005 C 
ATOM      6  C   LIG    1       25.599 -21.145   6.070  0.00  0.00    +0.002 C 
ATOM      7  C   LIG    1       27.019 -20.460   5.939  0.00  0.00    -0.022 C 
ATOM      8  C   LIG    1       28.090 -21.572   6.120  0.00  0.00    +0.012 C 
ATOM      9  C   LIG    1       27.332 -19.339   6.953  0.00  0.00    +0.008 C 
ATOM     10  C   LIG    1       28.625 -18.561   6.670  0.00  0.00    +0.005 C 
ATOM     11  C   LIG    1       28.874 -18.337   5.181  0.00  0.00    +0.031 C 
ENDROOT
BRANCH   1  15
ATOM     12  C   LIG    1       27.748 -13.269   5.293  0.00  0.00    +0.012 C 
ATOM     13  C   LIG    1       26.946 -13.603   4.263  0.00  0.00    -0.051 C 
ATOM     14  C   LIG    1       26.454 -14.974   4.069  0.00  0.00    -0.042 C 
ATOM     15  C   LIG    1       27.289 -16.024   3.969  0.00  0.00    +0.004 C 
ATOM     16  C   LIG    1       24.948 -15.030   3.990  0.00  0.00    +0.066 C 
ATOM     17  C   LIG    1       24.401 -14.050   2.945  0.00  0.00    +0.119 C 
ATOM     18  C   LIG    1       24.883 -12.624   3.220  0.00  0.00    +0.036 C 
ATOM     19  C   LIG    1       26.408 -12.570   3.300  0.00  0.00    +0.037 C 
BRANCH  17  20
ATOM     20  O   LIG    1       22.975 -14.080   2.944  0.00  0.00    -0.392 OA
ATOM     21  H   LIG    1       22.657 -13.206   2.662  0.00  0.00    +0.210 HD
ENDBRANCH  17  20
ENDBRANCH   1  15
BRANCH   6  22
ATOM     22  C   LIG    1       24.403 -20.346   6.687  0.00  0.00    +0.012 C 
ATOM     23  C   LIG    1       23.183 -21.209   7.062  0.00  0.00    +0.012 C 
BRANCH  22  24
ATOM     24  C   LIG    1       23.864 -19.322   5.691  0.00  0.00    -0.027 C 
ATOM     25  C   LIG    1       22.609 -19.298   5.205  0.00  0.00    -0.027 C 
BRANCH  25  26
ATOM     26  C   LIG    1       22.114 -18.439   4.046  0.00  0.00    +0.011 C 
ATOM     27  C   LIG    1       21.928 -16.979   4.502  0.00  0.00    +0.012 C 
BRANCH  26  28
ATOM     28  C   LIG    1       20.851 -18.989   3.320  0.00  0.00    -0.011 C 
ATOM     29  C   LIG    1       19.740 -17.938   3.182  0.00  0.00    +0.008 C 
ATOM     30  C   LIG    1       20.259 -20.213   4.039  0.00  0.00    +0.008 C 
ENDBRANCH  26  28
ENDBRANCH  25  26
ENDBRANCH  22  24
ENDBRANCH   6  22
TORSDOF 6
ENDMDL
MODEL 2
REMARK VINA RESULT:       3.7      2.091      7.401
REMARK  Name = *****
REMARK                            x       y       z     vdW  Elec       q    Type
REMARK                         _______ _______ _______ _____ _____    ______ ____
ROOT
ATOM      1  C   LIG    1       23.482 -16.323   3.847  0.00  0.00    -0.000 C 
ATOM      2  C   LIG    1       23.268 -15.008   4.031  0.00  0.00    -0.066 C 
ATOM      3  C   LIG    1       23.957 -13.870   3.268  0.00  0.00    +0.021 C 
ATOM      4  C   LIG    1       24.981 -14.189   2.172  0.00  0.00    +0.009 C 
ATOM      5  C   LIG    1       25.889 -12.966   2.152  0.00  0.00    +0.005 C 
ATOM      6  C   LIG    1       26.140 -12.668   3.647  0.00  0.00    +0.002 C 
ATOM      7  C   LIG    1       24.692 -12.871   4.251  0.00  0.00    -0.022 C 
ATOM      8  C   LIG    1       23.970 -11.496   4.202  0.00  0.00    +0.012 C 
ATOM      9  C   LIG    1       24.625 -13.382   5.706  0.00  0.00    +0.008 C 
ATOM     10  C   LIG    1       23.218 -13.762   6.189  0.00  0.00    +0.005 C 
ATOM     11  C   LIG    1       22.374 -14.428   5.105  0.00  0.00    +0.031 C 
ENDROOT
BRANCH   1  15
ATOM     12  C   LIG    1       22.891 -19.475   6.972  0.00  0.00    +0.012 C 
ATOM     13  C   LIG    1       22.818 -19.661   5.639  0.00  0.00    -0.051 C 
ATOM     14  C   LIG    1       23.355 -18.684   4.683  0.00  0.00    -0.042 C 
ATOM     15  C   LIG    1       22.966 -17.395   4.688  0.00  0.00    +0.004 C 
ATOM     16  C   LIG    1       24.350 -19.305   3.735  0.00  0.00    +0.066 C 
ATOM     17  C   LIG    1       23.774 -20.550   3.049  0.00  0.00    +0.119 C 
ATOM     18  C   LIG    1       23.286 -21.571   4.078  0.00  0.00    +0.036 C 
ATOM     19  C   LIG    1       22.279 -20.939   5.039  0.00  0.00    +0.037 C 
BRANCH  17  20
ATOM     20  O   LIG    1       24.761 -21.150   2.213  0.00  0.00    -0.392 OA
ATOM     21  H   LIG    1       24.976 -20.520   1.505  0.00  0.00    +0.210 HD
ENDBRANCH  17  20
ENDBRANCH   1  15
BRANCH   6  22
ATOM     22  C   LIG    1       27.337 -13.517   4.194  0.00  0.00    +0.012 C 
ATOM     23  C   LIG    1       28.695 -13.203   3.536  0.00  0.00    +0.012 C 
BRANCH  22  24
ATOM     24  C   LIG    1       27.112 -15.004   3.930  0.00  0.00    -0.027 C 
ATOM     25  C   LIG    1       27.792 -16.008   4.514  0.00  0.00    -0.027 C 
BRANCH  25  26
ATOM     26  C   LIG    1       27.750 -17.475   4.104  0.00  0.00    +0.011 C 
ATOM     27  C   LIG    1       26.455 -17.778   3.326  0.00  0.00    +0.012 C 
BRANCH  26  28
ATOM     28  C   LIG    1       27.982 -18.485   5.267  0.00  0.00    -0.011 C 
ATOM     29  C   LIG    1       29.463 -18.627   5.644  0.00  0.00    +0.008 C 
ATOM     30  C   LIG    1       27.442 -19.886   4.932  0.00  0.00    +0.008 C 
ENDBRANCH  26  28
ENDBRANCH  25  26
ENDBRANCH  22  24
ENDBRANCH   6  22
TORSDOF 6
ENDMDL
MODEL 3
REMARK VINA RESULT:       4.1      1.647      4.791
REMARK  Name = *****
REMARK                            x       y       z     vdW  Elec       q    Type
REMARK                         _______ _______ _______ _____ _____    ______ ____
ROOT
ATOM      1  C   LIG    1       23.810 -17.068   4.581  0.00  0.00    -0.000 C 
ATOM      2  C   LIG    1       22.892 -18.018   4.332  0.00  0.00    -0.066 C 
ATOM      3  C   LIG    1       22.465 -19.131   5.297  0.00  0.00    +0.021 C 
ATOM      4  C   LIG    1       23.091 -19.218   6.695  0.00  0.00    +0.009 C 
ATOM      5  C   LIG    1       22.987 -20.695   7.051  0.00  0.00    +0.005 C 
ATOM      6  C   LIG    1       23.418 -21.419   5.756  0.00  0.00    +0.002 C 
ATOM      7  C   LIG    1       22.665 -20.565   4.658  0.00  0.00    -0.022 C 
ATOM      8  C   LIG    1       21.271 -21.216   4.437  0.00  0.00    +0.012 C 
ATOM      9  C   LIG    1       23.357 -20.462   3.281  0.00  0.00    +0.008 C 
ATOM     10  C   LIG    1       22.708 -19.465   2.311  0.00  0.00    +0.005 C 
ATOM     11  C   LIG    1       22.192 -18.206   3.003  0.00  0.00    +0.031 C 
ENDROOT
BRANCH   1  15
ATOM     12  C   LIG    1       26.406 -14.302   2.202  0.00  0.00    +0.012 C 
ATOM     13  C   LIG    1       25.226 -13.984   2.770  0.00  0.00    -0.051 C 
ATOM     14  C   LIG    1       24.608 -14.820   3.808  0.00  0.00    -0.042 C 
ATOM     15  C   LIG    1       24.344 -16.125   3.608  0.00  0.00    +0.004 C 
ATOM     16  C   LIG    1       24.315 -14.041   5.066  0.00  0.00    +0.066 C 
ATOM     17  C   LIG    1       23.507 -12.772   4.768  0.00  0.00    +0.119 C 
ATOM     18  C   LIG    1       24.215 -11.897   3.732  0.00  0.00    +0.036 C 
ATOM     19  C   LIG    1       24.511 -12.688   2.459  0.00  0.00    +0.037 C 
BRANCH  17  20
ATOM     20  O   LIG    1       23.306 -12.026   5.966  0.00  0.00    -0.392 OA
ATOM     21  H   LIG    1       24.031 -12.239   6.577  0.00  0.00    +0.210 HD
ENDBRANCH  17  20
ENDBRANCH   1  15
BRANCH   6  22
ATOM     22  C   LIG    1       24.975 -21.570   5.692  0.00  0.00    +0.012 C 
ATOM     23  C   LIG    1       25.688 -21.415   7.049  0.00  0.00    +0.012 C 
BRANCH  22  24
ATOM     24  C   LIG    1       25.589 -20.490   4.805  0.00  0.00    -0.027 C 
ATOM     25  C   LIG    1       26.438 -19.531   5.222  0.00  0.00    -0.027 C 
BRANCH  25  26
ATOM     26  C   LIG    1       26.879 -18.314   4.417  0.00  0.00    +0.011 C 
ATOM     27  C   LIG    1       26.414 -18.441   2.954  0.00  0.00    +0.012 C 
BRANCH  26  28
ATOM     28  C   LIG    1       28.396 -17.979   4.520  0.00  0.00    -0.011 C 
ATOM     29  C   LIG    1       29.073 -18.655   5.721  0.00  0.00    +0.008 C 
ATOM     30  C   LIG    1       28.647 -16.465   4.626  0.00  0.00    +0.008 C 
ENDBRANCH  26  28
ENDBRANCH  25  26
ENDBRANCH  22  24
ENDBRANCH   6  22
TORSDOF 6
ENDMDL
