MODEL 1
REMARK VINA RESULT:      -9.0      0.000      0.000
REMARK  Name = *****
REMARK                            x       y       z     vdW  Elec       q    Type
REMARK                         _______ _______ _______ _____ _____    ______ ____
ROOT
ATOM      1  C   LIG    1       29.128 -19.477   7.716  0.00  0.00    +0.084 C 
ATOM      2  C   LIG    1       29.224 -19.246   6.200  0.00  0.00    +0.027 C 
ENDROOT
BRANCH   1   3
ATOM      3  N   LIG    1       28.276 -20.663   8.002  0.00  0.00    -0.305 NA
ATOM      4  H   LIG    1       28.330 -20.891   9.002  0.00  0.00    +0.123 HD
BRANCH   3   6
ATOM      5  C   LIG    1       25.892 -20.586   8.871  0.00  0.00    +0.027 C 
ATOM      6  C   LIG    1       26.834 -20.528   7.664  0.00  0.00    +0.088 C 
BRANCH   6   7
ATOM      7  C   LIG    1       26.431 -21.593   6.618  0.00  0.00    +0.247 C 
BRANCH   7   8
ATOM      8  O   LIG    1       25.014 -21.611   6.430  0.00  0.00    -0.490 OA
BRANCH   8   9
ATOM      9  C   LIG    1       24.440 -20.707   5.583  0.00  0.00    +0.121 A 
ATOM     10  C   LIG    1       23.152 -20.302   5.934  0.00  0.00    +0.045 A 
ATOM     11  C   LIG    1       22.449 -19.383   5.149  0.00  0.00    +0.004 A 
ATOM     12  C   LIG    1       23.039 -18.856   4.000  0.00  0.00    +0.000 A 
ATOM     13  C   LIG    1       24.316 -19.259   3.638  0.00  0.00    +0.004 A 
ATOM     14  C   LIG    1       25.013 -20.181   4.420  0.00  0.00    +0.045 A 
ENDBRANCH   8   9
ENDBRANCH   7   8
ENDBRANCH   6   7
ENDBRANCH   3   6
ENDBRANCH   1   3
BRANCH   1  15
ATOM     15  C   LIG    1       30.568 -19.681   8.332  0.00  0.00    +0.161 C 
BRANCH  15  16
ATOM     16  C   LIG    1       31.043 -18.520   9.196  0.00  0.00    -0.018 A 
ATOM     17  C   LIG    1       30.433 -18.219  10.429  0.00  0.00    +0.010 A 
ATOM     18  C   LIG    1       30.913 -17.177  11.229  0.00  0.00    +0.046 A 
ATOM     19  C   LIG    1       31.987 -16.418  10.802  0.00  0.00    +0.117 A 
ATOM     20  C   LIG    1       32.600 -16.679   9.577  0.00  0.00    +0.046 A 
ATOM     21  C   LIG    1       32.126 -17.731   8.784  0.00  0.00    +0.010 A 
BRANCH  19  22
ATOM     22  O   LIG    1       32.426 -15.410  11.611  0.00  0.00    -0.507 OA
ATOM     23  H   LIG    1       32.210 -14.561  11.198  0.00  0.00    +0.292 HD
ENDBRANCH  19  22
ENDBRANCH  15  16
BRANCH  15  24
ATOM     24  O   LIG    1       31.522 -19.931   7.291  0.00  0.00    -0.386 OA
ATOM     25  H   LIG    1       31.933 -19.064   7.115  0.00  0.00    +0.210 HD
ENDBRANCH  15  24
ENDBRANCH   1  15
TORSDOF 9
ENDMDL
MODEL 2
REMARK VINA RESULT:      -8.9      2.364      8.339
REMARK  Name = *****
REMARK                            x       y       z     vdW  Elec       q    Type
REMARK                         _______ _______ _______ _____ _____    ______ ____
ROOT
ATOM      1  C   LIG    1       27.915 -20.963   7.209  0.00  0.00    +0.084 C 
ATOM      2  C   LIG    1       27.161 -20.268   6.064  0.00  0.00    +0.027 C 
ENDROOT
BRANCH   1   3
ATOM      3  N   LIG    1       28.921 -20.038   7.798  0.00  0.00    -0.305 NA
ATOM      4  H   LIG    1       28.733 -19.922   8.800  0.00  0.00    +0.123 HD
BRANCH   3   6
ATOM      5  C   LIG    1       30.893 -21.221   8.872  0.00  0.00    +0.027 C 
ATOM      6  C   LIG    1       30.344 -20.452   7.666  0.00  0.00    +0.088 C 
BRANCH   6   7
ATOM      7  C   LIG    1       31.230 -19.221   7.367  0.00  0.00    +0.247 C 
BRANCH   7   8
ATOM      8  O   LIG    1       30.637 -18.029   7.885  0.00  0.00    -0.490 OA
BRANCH   8   9
ATOM      9  C   LIG    1       31.144 -17.471   9.025  0.00  0.00    +0.121 A 
ATOM     10  C   LIG    1       30.356 -17.636  10.165  0.00  0.00    +0.045 A 
ATOM     11  C   LIG    1       30.756 -17.110  11.397  0.00  0.00    +0.004 A 
ATOM     12  C   LIG    1       31.961 -16.413  11.496  0.00  0.00    +0.000 A 
ATOM     13  C   LIG    1       32.746 -16.237  10.367  0.00  0.00    +0.004 A 
ATOM     14  C   LIG    1       32.341 -16.757   9.137  0.00  0.00    +0.045 A 
ENDBRANCH   8   9
ENDBRANCH   7   8
ENDBRANCH   6   7
ENDBRANCH   3   6
ENDBRANCH   1   3
BRANCH   1  15
ATOM     15  C   LIG    1       26.900 -21.442   8.319  0.00  0.00    +0.161 C 
BRANCH  15  16
ATOM     16  C   LIG    1       25.628 -22.072   7.767  0.00  0.00    -0.018 A 
ATOM     17  C   LIG    1       25.618 -23.379   7.243  0.00  0.00    +0.010 A 
ATOM     18  C   LIG    1       24.429 -23.955   6.782  0.00  0.00    +0.046 A 
ATOM     19  C   LIG    1       23.252 -23.233   6.822  0.00  0.00    +0.117 A 
ATOM     20  C   LIG    1       23.233 -21.930   7.317  0.00  0.00    +0.046 A 
ATOM     21  C   LIG    1       24.421 -21.359   7.790  0.00  0.00    +0.010 A 
BRANCH  19  22
ATOM     22  O   LIG    1       22.114 -23.831   6.363  0.00  0.00    -0.507 OA
ATOM     23  H   LIG    1       22.359 -24.589   5.813  0.00  0.00    +0.292 HD
ENDBRANCH  19  22
ENDBRANCH  15  16
BRANCH  15  24
ATOM     24  O   LIG    1       26.562 -20.353   9.188  0.00  0.00    -0.386 OA
ATOM     25  H   LIG    1       27.402 -20.106   9.618  0.00  0.00    +0.210 HD
ENDBRANCH  15  24
ENDBRANCH   1  15
TORSDOF 9
ENDMDL
MODEL 3
REMARK VINA RESULT:      -8.9      1.781      2.932
REMARK  Name = *****
REMARK                            x       y       z     vdW  Elec       q    Type
REMARK                         _______ _______ _______ _____ _____    ______ ____
ROOT
ATOM      1  C   LIG    1       27.426 -21.580   7.406  0.00  0.00    +0.084 C 
ATOM      2  C   LIG    1       26.580 -20.434   7.983  0.00  0.00    +0.027 C 
ENDROOT
BRANCH   1   3
ATOM      3  N   LIG    1       26.593 -22.438   6.520  0.00  0.00    -0.305 NA
ATOM      4  H   LIG    1       27.201 -23.073   5.990  0.00  0.00    +0.123 HD
BRANCH   3   6
ATOM      5  C   LIG    1       25.702 -24.781   6.923  0.00  0.00    +0.027 C 
ATOM      6  C   LIG    1       25.571 -23.279   7.199  0.00  0.00    +0.088 C 
BRANCH   6   7
ATOM      7  C   LIG    1       24.151 -22.789   6.833  0.00  0.00    +0.247 C 
BRANCH   7   8
ATOM      8  O   LIG    1       24.051 -22.518   5.434  0.00  0.00    -0.490 OA
BRANCH   8   9
ATOM      9  C   LIG    1       23.734 -21.256   5.018  0.00  0.00    +0.121 A 
ATOM     10  C   LIG    1       24.665 -20.663   4.164  0.00  0.00    +0.045 A 
ATOM     11  C   LIG    1       24.464 -19.372   3.668  0.00  0.00    +0.004 A 
ATOM     12  C   LIG    1       23.318 -18.661   4.025  0.00  0.00    +0.000 A 
ATOM     13  C   LIG    1       22.392 -19.238   4.881  0.00  0.00    +0.004 A 
ATOM     14  C   LIG    1       22.597 -20.525   5.379  0.00  0.00    +0.045 A 
ENDBRANCH   8   9
ENDBRANCH   7   8
ENDBRANCH   6   7
ENDBRANCH   3   6
ENDBRANCH   1   3
BRANCH   1  15
ATOM     15  C   LIG    1       28.657 -21.002   6.604  0.00  0.00    +0.161 C 
BRANCH  15  16
ATOM     16  C   LIG    1       29.651 -20.233   7.464  0.00  0.00    -0.018 A 
ATOM     17  C   LIG    1       29.717 -18.826   7.439  0.00  0.00    +0.010 A 
ATOM     18  C   LIG    1       30.607 -18.138   8.270  0.00  0.00    +0.046 A 
ATOM     19  C   LIG    1       31.445 -18.840   9.116  0.00  0.00    +0.117 A 
ATOM     20  C   LIG    1       31.418 -20.233   9.149  0.00  0.00    +0.046 A 
ATOM     21  C   LIG    1       30.518 -20.921   8.326  0.00  0.00    +0.010 A 
BRANCH  19  22
ATOM     22  O   LIG    1       32.299 -18.131   9.911  0.00  0.00    -0.507 OA
ATOM     23  H   LIG    1       33.194 -18.202   9.550  0.00  0.00    +0.292 HD
ENDBRANCH  19  22
ENDBRANCH  15  16
BRANCH  15  24
ATOM     24  O   LIG    1       28.203 -20.170   5.529  0.00  0.00    -0.386 OA
ATOM     25  H   LIG    1       28.117 -19.281   5.919  0.00  0.00    +0.210 HD
ENDBRANCH  15  24
ENDBRANCH   1  15
TORSDOF 9
ENDMDL
MODEL 4
REMARK VINA RESULT:      -8.5      2.134      2.980
REMARK  Name = *****
REMARK                            x       y       z     vdW  Elec       q    Type
REMARK                         _______ _______ _______ _____ _____    ______ ____
ROOT
ATOM      1  C   LIG    1       29.221 -19.374   7.673  0.00  0.00    +0.084 C 
ATOM      2  C   LIG    1       29.326 -19.056   6.173  0.00  0.00    +0.027 C 
ENDROOT
BRANCH   1   3
ATOM      3  N   LIG    1       28.391 -20.591   7.883  0.00  0.00    -0.305 NA
ATOM      4  H   LIG    1       28.480 -20.902   8.857  0.00  0.00    +0.123 HD
BRANCH   3   6
ATOM      5  C   LIG    1       26.049 -20.454   8.851  0.00  0.00    +0.027 C 
ATOM      6  C   LIG    1       26.937 -20.447   7.603  0.00  0.00    +0.088 C 
BRANCH   6   7
ATOM      7  C   LIG    1       26.476 -21.539   6.610  0.00  0.00    +0.247 C 
BRANCH   7   8
ATOM      8  O   LIG    1       26.655 -22.842   7.168  0.00  0.00    -0.490 OA
BRANCH   8   9
ATOM      9  C   LIG    1       25.802 -23.846   6.807  0.00  0.00    +0.121 A 
ATOM     10  C   LIG    1       24.447 -23.519   6.860  0.00  0.00    +0.045 A 
ATOM     11  C   LIG    1       23.467 -24.456   6.520  0.00  0.00    +0.004 A 
ATOM     12  C   LIG    1       23.843 -25.739   6.117  0.00  0.00    +0.000 A 
ATOM     13  C   LIG    1       25.187 -26.076   6.070  0.00  0.00    +0.004 A 
ATOM     14  C   LIG    1       26.162 -25.140   6.416  0.00  0.00    +0.045 A 
ENDBRANCH   8   9
ENDBRANCH   7   8
ENDBRANCH   6   7
ENDBRANCH   3   6
ENDBRANCH   1   3
BRANCH   1  15
ATOM     15  C   LIG    1       30.659 -19.582   8.290  0.00  0.00    +0.161 C 
BRANCH  15  16
ATOM     16  C   LIG    1       31.112 -18.450   9.202  0.00  0.00    -0.018 A 
ATOM     17  C   LIG    1       30.464 -18.180  10.423  0.00  0.00    +0.010 A 
ATOM     18  C   LIG    1       30.924 -17.164  11.268  0.00  0.00    +0.046 A 
ATOM     19  C   LIG    1       32.016 -16.401  10.898  0.00  0.00    +0.117 A 
ATOM     20  C   LIG    1       32.667 -16.631   9.687  0.00  0.00    +0.046 A 
ATOM     21  C   LIG    1       32.213 -17.657   8.848  0.00  0.00    +0.010 A 
BRANCH  19  22
ATOM     22  O   LIG    1       32.434 -15.420  11.750  0.00  0.00    -0.507 OA
ATOM     23  H   LIG    1       32.115 -15.623  12.641  0.00  0.00    +0.292 HD
ENDBRANCH  19  22
ENDBRANCH  15  16
BRANCH  15  24
ATOM     24  O   LIG    1       31.624 -19.779   7.248  0.00  0.00    -0.386 OA
ATOM     25  H   LIG    1       31.556 -18.983   6.690  0.00  0.00    +0.210 HD
ENDBRANCH  15  24
ENDBRANCH   1  15
TORSDOF 9
ENDMDL
MODEL 5
REMARK VINA RESULT:      -8.5      3.271      5.909
REMARK  Name = *****
REMARK                            x       y       z     vdW  Elec       q    Type
REMARK                         _______ _______ _______ _____ _____    ______ ____
ROOT
ATOM      1  C   LIG    1       24.176 -20.279   5.086  0.00  0.00    +0.084 C 
ATOM      2  C   LIG    1       23.324 -19.381   4.175  0.00  0.00    +0.027 C 
ENDROOT
BRANCH   1   3
ATOM      3  N   LIG    1       23.608 -21.653   5.130  0.00  0.00    -0.305 NA
ATOM      4  H   LIG    1       24.363 -22.339   5.023  0.00  0.00    +0.123 HD
BRANCH   3   6
ATOM      5  C   LIG    1       23.234 -21.174   7.595  0.00  0.00    +0.027 C 
ATOM      6  C   LIG    1       22.864 -22.013   6.367  0.00  0.00    +0.088 C 
BRANCH   6   7
ATOM      7  C   LIG    1       23.040 -23.518   6.674  0.00  0.00    +0.247 C 
BRANCH   7   8
ATOM      8  O   LIG    1       24.413 -23.832   6.912  0.00  0.00    -0.490 OA
BRANCH   8   9
ATOM      9  C   LIG    1       24.921 -25.009   6.441  0.00  0.00    +0.121 A 
ATOM     10  C   LIG    1       23.967 -25.939   6.021  0.00  0.00    +0.045 A 
ATOM     11  C   LIG    1       24.352 -27.186   5.521  0.00  0.00    +0.004 A 
ATOM     12  C   LIG    1       25.706 -27.512   5.434  0.00  0.00    +0.000 A 
ATOM     13  C   LIG    1       26.660 -26.598   5.856  0.00  0.00    +0.004 A 
ATOM     14  C   LIG    1       26.273 -25.357   6.360  0.00  0.00    +0.045 A 
ENDBRANCH   8   9
ENDBRANCH   7   8
ENDBRANCH   6   7
ENDBRANCH   3   6
ENDBRANCH   1   3
BRANCH   1  15
ATOM     15  C   LIG    1       25.668 -20.322   4.570  0.00  0.00    +0.161 C 
BRANCH  15  16
ATOM     16  C   LIG    1       26.709 -20.174   5.671  0.00  0.00    -0.018 A 
ATOM     17  C   LIG    1       26.440 -20.561   6.999  0.00  0.00    +0.010 A 
ATOM     18  C   LIG    1       27.426 -20.459   7.987  0.00  0.00    +0.046 A 
ATOM     19  C   LIG    1       28.674 -19.958   7.667  0.00  0.00    +0.117 A 
ATOM     20  C   LIG    1       28.964 -19.549   6.366  0.00  0.00    +0.046 A 
ATOM     21  C   LIG    1       27.981 -19.663   5.376  0.00  0.00    +0.010 A 
BRANCH  19  22
ATOM     22  O   LIG    1       29.608 -19.875   8.658  0.00  0.00    -0.507 OA
ATOM     23  H   LIG    1       29.170 -20.003   9.512  0.00  0.00    +0.292 HD
ENDBRANCH  19  22
ENDBRANCH  15  16
BRANCH  15  24
ATOM     24  O   LIG    1       25.877 -19.318   3.569  0.00  0.00    -0.386 OA
ATOM     25  H   LIG    1       26.222 -18.547   4.055  0.00  0.00    +0.210 HD
ENDBRANCH  15  24
ENDBRANCH   1  15
TORSDOF 9
ENDMDL
MODEL 6
REMARK VINA RESULT:      -8.5      1.489      8.107
REMARK  Name = *****
REMARK                            x       y       z     vdW  Elec       q    Type
REMARK                         _______ _______ _______ _____ _____    ______ ____
ROOT
ATOM      1  C   LIG    1       27.073 -20.704   7.738  0.00  0.00    +0.084 C 
ATOM      2  C   LIG    1       26.073 -20.456   8.879  0.00  0.00    +0.027 C 
ENDROOT
BRANCH   1   3
ATOM      3  N   LIG    1       28.275 -21.413   8.253  0.00  0.00    -0.305 NA
ATOM      4  H   LIG    1       28.258 -22.389   7.937  0.00  0.00    +0.123 HD
BRANCH   3   6
ATOM      5  C   LIG    1       30.774 -21.333   8.690  0.00  0.00    +0.027 C 
ATOM      6  C   LIG    1       29.590 -20.846   7.849  0.00  0.00    +0.088 C 
BRANCH   6   7
ATOM      7  C   LIG    1       29.528 -19.302   7.854  0.00  0.00    +0.247 C 
BRANCH   7   8
ATOM      8  O   LIG    1       29.484 -18.799   9.191  0.00  0.00    -0.490 OA
BRANCH   8   9
ATOM      9  C   LIG    1       30.453 -17.932   9.611  0.00  0.00    +0.121 A 
ATOM     10  C   LIG    1       30.344 -17.523  10.941  0.00  0.00    +0.045 A 
ATOM     11  C   LIG    1       31.269 -16.633  11.496  0.00  0.00    +0.004 A 
ATOM     12  C   LIG    1       32.319 -16.147  10.717  0.00  0.00    +0.000 A 
ATOM     13  C   LIG    1       32.430 -16.540   9.392  0.00  0.00    +0.004 A 
ATOM     14  C   LIG    1       31.503 -17.424   8.839  0.00  0.00    +0.045 A 
ENDBRANCH   8   9
ENDBRANCH   7   8
ENDBRANCH   6   7
ENDBRANCH   3   6
ENDBRANCH   1   3
BRANCH   1  15
ATOM     15  C   LIG    1       26.393 -21.548   6.589  0.00  0.00    +0.161 C 
BRANCH  15  16
ATOM     16  C   LIG    1       25.242 -20.834   5.893  0.00  0.00    -0.018 A 
ATOM     17  C   LIG    1       23.948 -20.803   6.449  0.00  0.00    +0.010 A 
ATOM     18  C   LIG    1       22.915 -20.102   5.815  0.00  0.00    +0.046 A 
ATOM     19  C   LIG    1       23.157 -19.446   4.623  0.00  0.00    +0.117 A 
ATOM     20  C   LIG    1       24.422 -19.475   4.038  0.00  0.00    +0.046 A 
ATOM     21  C   LIG    1       25.458 -20.165   4.680  0.00  0.00    +0.010 A 
BRANCH  19  22
ATOM     22  O   LIG    1       22.123 -18.774   4.037  0.00  0.00    -0.507 OA
ATOM     23  H   LIG    1       21.951 -19.163   3.167  0.00  0.00    +0.292 HD
ENDBRANCH  19  22
ENDBRANCH  15  16
BRANCH  15  24
ATOM     24  O   LIG    1       25.942 -22.809   7.099  0.00  0.00    -0.386 OA
ATOM     25  H   LIG    1       26.715 -23.399   7.030  0.00  0.00    +0.210 HD
ENDBRANCH  15  24
ENDBRANCH   1  15
TORSDOF 9
ENDMDL
MODEL 7
REMARK VINA RESULT:      -8.4      1.074      1.568
REMARK  Name = *****
REMARK                            x       y       z     vdW  Elec       q    Type
REMARK                         _______ _______ _______ _____ _____    ______ ____
ROOT
ATOM      1  C   LIG    1       29.624 -20.232   7.622  0.00  0.00    +0.084 C 
ATOM      2  C   LIG    1       30.461 -21.222   8.447  0.00  0.00    +0.027 C 
ENDROOT
BRANCH   1   3
ATOM      3  N   LIG    1       28.396 -19.848   8.371  0.00  0.00    -0.305 NA
ATOM      4  H   LIG    1       28.324 -18.825   8.409  0.00  0.00    +0.123 HD
BRANCH   3   6
ATOM      5  C   LIG    1       26.667 -21.707   8.389  0.00  0.00    +0.027 C 
ATOM      6  C   LIG    1       27.111 -20.355   7.820  0.00  0.00    +0.088 C 
BRANCH   6   7
ATOM      7  C   LIG    1       27.182 -20.421   6.277  0.00  0.00    +0.247 C 
BRANCH   7   8
ATOM      8  O   LIG    1       26.071 -21.146   5.746  0.00  0.00    -0.490 OA
BRANCH   8   9
ATOM      9  C   LIG    1       25.001 -20.459   5.248  0.00  0.00    +0.121 A 
ATOM     10  C   LIG    1       23.835 -20.547   6.011  0.00  0.00    +0.045 A 
ATOM     11  C   LIG    1       22.665 -19.895   5.612  0.00  0.00    +0.004 A 
ATOM     12  C   LIG    1       22.656 -19.140   4.438  0.00  0.00    +0.000 A 
ATOM     13  C   LIG    1       23.807 -19.054   3.670  0.00  0.00    +0.004 A 
ATOM     14  C   LIG    1       24.972 -19.711   4.067  0.00  0.00    +0.045 A 
ENDBRANCH   8   9
ENDBRANCH   7   8
ENDBRANCH   6   7
ENDBRANCH   3   6
ENDBRANCH   1   3
BRANCH   1  15
ATOM     15  C   LIG    1       30.476 -18.947   7.281  0.00  0.00    +0.161 C 
BRANCH  15  16
ATOM     16  C   LIG    1       30.899 -18.141   8.501  0.00  0.00    -0.018 A 
ATOM     17  C   LIG    1       32.220 -17.679   8.661  0.00  0.00    +0.010 A 
ATOM     18  C   LIG    1       32.577 -16.901   9.767  0.00  0.00    +0.046 A 
ATOM     19  C   LIG    1       31.631 -16.592  10.727  0.00  0.00    +0.117 A 
ATOM     20  C   LIG    1       30.320 -17.051  10.608  0.00  0.00    +0.046 A 
ATOM     21  C   LIG    1       29.961 -17.819   9.493  0.00  0.00    +0.010 A 
BRANCH  19  22
ATOM     22  O   LIG    1       32.019 -15.831  11.792  0.00  0.00    -0.507 OA
ATOM     23  H   LIG    1       31.306 -15.214  12.011  0.00  0.00    +0.292 HD
ENDBRANCH  19  22
ENDBRANCH  15  16
BRANCH  15  24
ATOM     24  O   LIG    1       29.761 -18.104   6.368  0.00  0.00    -0.386 OA
ATOM     25  H   LIG    1       28.895 -17.958   6.789  0.00  0.00    +0.210 HD
ENDBRANCH  15  24
ENDBRANCH   1  15
TORSDOF 9
ENDMDL
MODEL 8
REMARK VINA RESULT:      -8.4      2.351      8.764
REMARK  Name = *****
REMARK                            x       y       z     vdW  Elec       q    Type
REMARK                         _______ _______ _______ _____ _____    ______ ____
ROOT
ATOM      1  C   LIG    1       26.639 -20.980   6.531  0.00  0.00    +0.084 C 
ATOM      2  C   LIG    1       25.759 -20.350   5.440  0.00  0.00    +0.027 C 
ENDROOT
BRANCH   1   3
ATOM      3  N   LIG    1       27.472 -19.935   7.186  0.00  0.00    -0.305 NA
ATOM      4  H   LIG    1       27.182 -19.829   8.165  0.00  0.00    +0.123 HD
BRANCH   3   6
ATOM      5  C   LIG    1       29.372 -21.420   7.980  0.00  0.00    +0.027 C 
ATOM      6  C   LIG    1       28.940 -20.179   7.191  0.00  0.00    +0.088 C 
BRANCH   6   7
ATOM      7  C   LIG    1       29.686 -18.928   7.709  0.00  0.00    +0.247 C 
BRANCH   7   8
ATOM      8  O   LIG    1       30.018 -19.069   9.091  0.00  0.00    -0.490 OA
BRANCH   8   9
ATOM      9  C   LIG    1       30.718 -18.076   9.715  0.00  0.00    +0.121 A 
ATOM     10  C   LIG    1       31.795 -17.566   8.989  0.00  0.00    +0.045 A 
ATOM     11  C   LIG    1       32.598 -16.548   9.514  0.00  0.00    +0.004 A 
ATOM     12  C   LIG    1       32.321 -16.029  10.779  0.00  0.00    +0.000 A 
ATOM     13  C   LIG    1       31.259 -16.536  11.512  0.00  0.00    +0.004 A 
ATOM     14  C   LIG    1       30.463 -17.555  10.988  0.00  0.00    +0.045 A 
ENDBRANCH   8   9
ENDBRANCH   7   8
ENDBRANCH   6   7
ENDBRANCH   3   6
ENDBRANCH   1   3
BRANCH   1  15
ATOM     15  C   LIG    1       25.740 -21.711   7.605  0.00  0.00    +0.161 C 
BRANCH  15  16
ATOM     16  C   LIG    1       25.208 -23.063   7.150  0.00  0.00    -0.018 A 
ATOM     17  C   LIG    1       23.833 -23.279   6.929  0.00  0.00    +0.010 A 
ATOM     18  C   LIG    1       23.370 -24.516   6.468  0.00  0.00    +0.046 A 
ATOM     19  C   LIG    1       24.263 -25.547   6.240  0.00  0.00    +0.117 A 
ATOM     20  C   LIG    1       25.627 -25.369   6.469  0.00  0.00    +0.046 A 
ATOM     21  C   LIG    1       26.091 -24.127   6.918  0.00  0.00    +0.010 A 
BRANCH  19  22
ATOM     22  O   LIG    1       23.771 -26.738   5.791  0.00  0.00    -0.507 OA
ATOM     23  H   LIG    1       22.805 -26.682   5.748  0.00  0.00    +0.292 HD
ENDBRANCH  19  22
ENDBRANCH  15  16
BRANCH  15  24
ATOM     24  O   LIG    1       24.648 -20.868   7.996  0.00  0.00    -0.386 OA
ATOM     25  H   LIG    1       24.170 -20.678   7.169  0.00  0.00    +0.210 HD
ENDBRANCH  15  24
ENDBRANCH   1  15
TORSDOF 9
ENDMDL
MODEL 9
REMARK VINA RESULT:      -8.3      2.170      3.231
REMARK  Name = *****
REMARK                            x       y       z     vdW  Elec       q    Type
REMARK                         _______ _______ _______ _____ _____    ______ ____
ROOT
ATOM      1  C   LIG    1       29.240 -19.335   7.628  0.00  0.00    +0.084 C 
ATOM      2  C   LIG    1       29.233 -19.231   6.095  0.00  0.00    +0.027 C 
ENDROOT
BRANCH   1   3
ATOM      3  N   LIG    1       28.406 -20.485   8.070  0.00  0.00    -0.305 NA
ATOM      4  H   LIG    1       28.457 -20.572   9.091  0.00  0.00    +0.123 HD
BRANCH   3   6
ATOM      5  C   LIG    1       26.009 -20.502   8.904  0.00  0.00    +0.027 C 
ATOM      6  C   LIG    1       26.964 -20.423   7.709  0.00  0.00    +0.088 C 
BRANCH   6   7
ATOM      7  C   LIG    1       26.626 -21.524   6.678  0.00  0.00    +0.247 C 
BRANCH   7   8
ATOM      8  O   LIG    1       26.595 -22.811   7.300  0.00  0.00    -0.490 OA
BRANCH   8   9
ATOM      9  C   LIG    1       25.625 -23.703   6.940  0.00  0.00    +0.121 A 
ATOM     10  C   LIG    1       26.092 -24.969   6.581  0.00  0.00    +0.045 A 
ATOM     11  C   LIG    1       25.205 -25.976   6.187  0.00  0.00    +0.004 A 
ATOM     12  C   LIG    1       23.833 -25.720   6.154  0.00  0.00    +0.000 A 
ATOM     13  C   LIG    1       23.362 -24.462   6.500  0.00  0.00    +0.004 A 
ATOM     14  C   LIG    1       24.249 -23.458   6.887  0.00  0.00    +0.045 A 
ENDBRANCH   8   9
ENDBRANCH   7   8
ENDBRANCH   6   7
ENDBRANCH   3   6
ENDBRANCH   1   3
BRANCH   1  15
ATOM     15  C   LIG    1       30.719 -19.499   8.158  0.00  0.00    +0.161 C 
BRANCH  15  16
ATOM     16  C   LIG    1       31.142 -18.430   9.157  0.00  0.00    -0.018 A 
ATOM     17  C   LIG    1       32.311 -17.666   8.970  0.00  0.00    +0.010 A 
ATOM     18  C   LIG    1       32.657 -16.657   9.876  0.00  0.00    +0.046 A 
ATOM     19  C   LIG    1       31.858 -16.414  10.977  0.00  0.00    +0.117 A 
ATOM     20  C   LIG    1       30.705 -17.166  11.199  0.00  0.00    +0.046 A 
ATOM     21  C   LIG    1       30.352 -18.166  10.285  0.00  0.00    +0.010 A 
BRANCH  19  22
ATOM     22  O   LIG    1       32.230 -15.421  11.836  0.00  0.00    -0.507 OA
ATOM     23  H   LIG    1       31.528 -15.294  12.491  0.00  0.00    +0.292 HD
ENDBRANCH  19  22
ENDBRANCH  15  16
BRANCH  15  24
ATOM     24  O   LIG    1       31.640 -19.527   7.060  0.00  0.00    -0.386 OA
ATOM     25  H   LIG    1       31.453 -18.714   6.556  0.00  0.00    +0.210 HD
ENDBRANCH  15  24
ENDBRANCH   1  15
TORSDOF 9
ENDMDL
