MODEL 1
REMARK VINA RESULT:      -3.9      0.000      0.000
REMARK  Name = *****
REMARK                            x       y       z     vdW  Elec       q    Type
REMARK                         _______ _______ _______ _____ _____    ______ ____
ROOT
ATOM      1  O   LIG    1       26.606 -14.355   1.832  0.00  0.00    -0.248 OA
ATOM      2  C   LIG    1       26.935 -13.757   2.850  0.00  0.00    +0.338 C 
ENDROOT
BRANCH   2   3
ATOM      3  C   LIG    1       25.971 -13.444   3.983  0.00  0.00    +0.279 C 
ATOM      4 CL   LIG    1       26.807 -13.557   5.555  0.00  0.00    -0.092 Cl
ATOM      5 CL   LIG    1       24.634 -14.606   3.929  0.00  0.00    -0.092 Cl
ENDBRANCH   2   3
BRANCH   2   6
ATOM      6  O   LIG    1       28.223 -13.375   3.051  0.00  0.00    -0.479 OA
ATOM      7  H   LIG    1       28.358 -12.924   3.911  0.00  0.00    +0.295 HD
ENDBRANCH   2   6
TORSDOF 2
ENDMDL
MODEL 2
REMARK VINA RESULT:      -3.9      1.641      2.311
REMARK  Name = *****
REMARK                            x       y       z     vdW  Elec       q    Type
REMARK                         _______ _______ _______ _____ _____    ______ ____
ROOT
ATOM      1  O   LIG    1       26.355 -15.978   3.115  0.00  0.00    -0.248 OA
ATOM      2  C   LIG    1       26.861 -14.863   3.091  0.00  0.00    +0.338 C 
ENDROOT
BRANCH   2   3
ATOM      3  C   LIG    1       27.529 -14.223   4.298  0.00  0.00    +0.279 C 
ATOM      4 CL   LIG    1       26.321 -13.363   5.290  0.00  0.00    -0.092 Cl
ATOM      5 CL   LIG    1       28.759 -13.081   3.728  0.00  0.00    -0.092 Cl
ENDBRANCH   2   3
BRANCH   2   6
ATOM      6  O   LIG    1       26.902 -14.137   1.943  0.00  0.00    -0.479 OA
ATOM      7  H   LIG    1       26.928 -13.170   2.104  0.00  0.00    +0.295 HD
ENDBRANCH   2   6
TORSDOF 2
ENDMDL
MODEL 3
REMARK VINA RESULT:      -3.8      1.158      2.158
REMARK  Name = *****
REMARK                            x       y       z     vdW  Elec       q    Type
REMARK                         _______ _______ _______ _____ _____    ______ ____
ROOT
ATOM      1  O   LIG    1       25.185 -12.757   2.163  0.00  0.00    -0.248 OA
ATOM      2  C   LIG    1       25.876 -13.674   2.590  0.00  0.00    +0.338 C 
ENDROOT
BRANCH   2   3
ATOM      3  C   LIG    1       25.604 -14.381   3.907  0.00  0.00    +0.279 C 
ATOM      4 CL   LIG    1       23.851 -14.431   4.234  0.00  0.00    -0.092 Cl
ATOM      5 CL   LIG    1       26.432 -13.503   5.205  0.00  0.00    -0.092 Cl
ENDBRANCH   2   3
BRANCH   2   6
ATOM      6  O   LIG    1       26.920 -14.157   1.867  0.00  0.00    -0.479 OA
ATOM      7  H   LIG    1       27.431 -13.452   1.416  0.00  0.00    +0.295 HD
ENDBRANCH   2   6
TORSDOF 2
ENDMDL
MODEL 4
REMARK VINA RESULT:      -3.6      1.389      2.264
REMARK  Name = *****
REMARK                            x       y       z     vdW  Elec       q    Type
REMARK                         _______ _______ _______ _____ _____    ______ ____
ROOT
ATOM      1  O   LIG    1       26.466 -16.146   3.205  0.00  0.00    -0.248 OA
ATOM      2  C   LIG    1       26.161 -14.966   3.081  0.00  0.00    +0.338 C 
ENDROOT
BRANCH   2   3
ATOM      3  C   LIG    1       25.362 -14.196   4.121  0.00  0.00    +0.279 C 
ATOM      4 CL   LIG    1       24.335 -12.971   3.330  0.00  0.00    -0.092 Cl
ATOM      5 CL   LIG    1       26.493 -13.404   5.233  0.00  0.00    -0.092 Cl
ENDBRANCH   2   3
BRANCH   2   6
ATOM      6  O   LIG    1       26.571 -14.246   2.004  0.00  0.00    -0.479 OA
ATOM      7  H   LIG    1       26.648 -14.788   1.190  0.00  0.00    +0.295 HD
ENDBRANCH   2   6
TORSDOF 2
ENDMDL
MODEL 5
REMARK VINA RESULT:      -3.6      1.720      2.171
REMARK  Name = *****
REMARK                            x       y       z     vdW  Elec       q    Type
REMARK                         _______ _______ _______ _____ _____    ______ ____
ROOT
ATOM      1  O   LIG    1       26.382 -15.695   3.294  0.00  0.00    -0.248 OA
ATOM      2  C   LIG    1       26.204 -14.555   2.879  0.00  0.00    +0.338 C 
ENDROOT
BRANCH   2   3
ATOM      3  C   LIG    1       25.254 -13.566   3.536  0.00  0.00    +0.279 C 
ATOM      4 CL   LIG    1       23.857 -14.423   4.239  0.00  0.00    -0.092 Cl
ATOM      5 CL   LIG    1       24.697 -12.414   2.311  0.00  0.00    -0.092 Cl
ENDBRANCH   2   3
BRANCH   2   6
ATOM      6  O   LIG    1       26.900 -14.082   1.813  0.00  0.00    -0.479 OA
ATOM      7  H   LIG    1       27.683 -13.552   2.073  0.00  0.00    +0.295 HD
ENDBRANCH   2   6
TORSDOF 2
ENDMDL
MODEL 6
REMARK VINA RESULT:      -3.6      6.882      7.373
REMARK  Name = *****
REMARK                            x       y       z     vdW  Elec       q    Type
REMARK                         _______ _______ _______ _____ _____    ______ ____
ROOT
ATOM      1  O   LIG    1       24.888 -19.816   3.649  0.00  0.00    -0.248 OA
ATOM      2  C   LIG    1       24.532 -20.566   4.551  0.00  0.00    +0.338 C 
ENDROOT
BRANCH   2   3
ATOM      3  C   LIG    1       23.156 -20.504   5.194  0.00  0.00    +0.279 C 
ATOM      4 CL   LIG    1       22.360 -18.956   4.807  0.00  0.00    -0.092 Cl
ATOM      5 CL   LIG    1       23.341 -20.662   6.949  0.00  0.00    -0.092 Cl
ENDBRANCH   2   3
BRANCH   2   6
ATOM      6  O   LIG    1       25.350 -21.552   5.004  0.00  0.00    -0.479 OA
ATOM      7  H   LIG    1       26.291 -21.277   5.049  0.00  0.00    +0.295 HD
ENDBRANCH   2   6
TORSDOF 2
ENDMDL
MODEL 7
REMARK VINA RESULT:      -3.5      6.639      7.046
REMARK  Name = *****
REMARK                            x       y       z     vdW  Elec       q    Type
REMARK                         _______ _______ _______ _____ _____    ______ ____
ROOT
ATOM      1  O   LIG    1       25.880 -20.512   6.559  0.00  0.00    -0.248 OA
ATOM      2  C   LIG    1       25.621 -20.390   5.367  0.00  0.00    +0.338 C 
ENDROOT
BRANCH   2   3
ATOM      3  C   LIG    1       24.207 -20.427   4.811  0.00  0.00    +0.279 C 
ATOM      4 CL   LIG    1       23.960 -19.087   3.660  0.00  0.00    -0.092 Cl
ATOM      5 CL   LIG    1       23.063 -20.282   6.156  0.00  0.00    -0.092 Cl
ENDBRANCH   2   3
BRANCH   2   6
ATOM      6  O   LIG    1       26.605 -20.159   4.459  0.00  0.00    -0.479 OA
ATOM      7  H   LIG    1       26.569 -20.771   3.693  0.00  0.00    +0.295 HD
ENDBRANCH   2   6
TORSDOF 2
ENDMDL
MODEL 8
REMARK VINA RESULT:      -3.5      2.185      2.374
REMARK  Name = *****
REMARK                            x       y       z     vdW  Elec       q    Type
REMARK                         _______ _______ _______ _____ _____    ______ ____
ROOT
ATOM      1  O   LIG    1       27.616 -13.214   4.871  0.00  0.00    -0.248 OA
ATOM      2  C   LIG    1       27.963 -13.539   3.741  0.00  0.00    +0.338 C 
ENDROOT
BRANCH   2   3
ATOM      3  C   LIG    1       27.012 -14.131   2.713  0.00  0.00    +0.279 C 
ATOM      4 CL   LIG    1       25.663 -13.007   2.398  0.00  0.00    -0.092 Cl
ATOM      5 CL   LIG    1       26.381 -15.664   3.339  0.00  0.00    -0.092 Cl
ENDBRANCH   2   3
BRANCH   2   6
ATOM      6  O   LIG    1       29.237 -13.336   3.316  0.00  0.00    -0.479 OA
ATOM      7  H   LIG    1       29.302 -12.651   2.617  0.00  0.00    +0.295 HD
ENDBRANCH   2   6
TORSDOF 2
ENDMDL
MODEL 9
REMARK VINA RESULT:      -3.5      1.505      1.967
REMARK  Name = *****
REMARK                            x       y       z     vdW  Elec       q    Type
REMARK                         _______ _______ _______ _____ _____    ______ ____
ROOT
ATOM      1  O   LIG    1       26.264 -13.758   1.974  0.00  0.00    -0.248 OA
ATOM      2  C   LIG    1       25.275 -13.290   2.526  0.00  0.00    +0.338 C 
ENDROOT
BRANCH   2   3
ATOM      3  C   LIG    1       25.061 -13.330   4.030  0.00  0.00    +0.279 C 
ATOM      4 CL   LIG    1       26.581 -13.755   4.861  0.00  0.00    -0.092 Cl
ATOM      5 CL   LIG    1       23.819 -14.541   4.396  0.00  0.00    -0.092 Cl
ENDBRANCH   2   3
BRANCH   2   6
ATOM      6  O   LIG    1       24.314 -12.648   1.812  0.00  0.00    -0.479 OA
ATOM      7  H   LIG    1       23.442 -12.643   2.263  0.00  0.00    +0.295 HD
ENDBRANCH   2   6
TORSDOF 2
ENDMDL
