MODEL 1
REMARK VINA RESULT:       3.4      0.000      0.000
REMARK  Name = *****
REMARK                            x       y       z     vdW  Elec       q    Type
REMARK                         _______ _______ _______ _____ _____    ______ ____
ROOT
ATOM      1  C   LIG    1       25.874 -19.693   4.024  0.00  0.00    +0.234 C 
ATOM      2  N   LIG    1       27.172 -19.928   4.465  0.00  0.00    -0.288 N 
ATOM      3  C   LIG    1       27.722 -19.282   5.697  0.00  0.00    +0.163 C 
ATOM      4  C   LIG    1       28.584 -20.540   5.867  0.00  0.00    +0.051 C 
ATOM      5  C   LIG    1       27.771 -21.220   4.789  0.00  0.00    +0.111 C 
ATOM      6  O   LIG    1       25.464 -18.546   3.834  0.00  0.00    -0.274 OA
ENDROOT
BRANCH   3   7
ATOM      7  C   LIG    1       28.520 -17.950   5.603  0.00  0.00    +0.234 C 
ATOM      8  N   LIG    1       28.103 -17.097   4.610  0.00  0.00    -0.310 N 
ATOM      9  H   LIG    1       27.317 -17.378   4.036  0.00  0.00    +0.149 HD
ATOM     10  O   LIG    1       29.475 -17.677   6.331  0.00  0.00    -0.274 OA
BRANCH   8  11
ATOM     11  C   LIG    1       28.673 -15.780   4.445  0.00  0.00    +0.139 C 
BRANCH  11  12
ATOM     12  C   LIG    1       27.594 -14.780   4.124  0.00  0.00    -0.030 A 
ATOM     13  C   LIG    1       27.262 -14.498   2.796  0.00  0.00    +0.006 A 
ATOM     14  C   LIG    1       26.189 -13.654   2.497  0.00  0.00    +0.016 A 
ATOM     15  C   LIG    1       25.448 -13.047   3.515  0.00  0.00    +0.069 A 
ATOM     16  C   LIG    1       25.810 -13.293   4.849  0.00  0.00    +0.016 A 
ATOM     17  C   LIG    1       26.879 -14.145   5.150  0.00  0.00    +0.006 A 
BRANCH  15  18
ATOM     18  C   LIG    1       24.218 -12.236   3.222  0.00  0.00    +0.362 C 
ATOM     19  N   LIG    1       23.530 -11.496   4.055  0.00  0.00    +0.151 NA
BRANCH  18  20
ATOM     20  N   LIG    1       23.755 -12.219   1.926  0.00  0.00    -0.243 N 
ATOM     21  H   LIG    1       24.448 -12.602   1.291  0.00  0.00    +0.289 HD
ATOM     22  H   LIG    1       22.837 -12.627   1.791  0.00  0.00    +0.289 HD
ENDBRANCH  18  20
BRANCH  19  23
ATOM     23  O   LIG    1       23.965 -11.560   5.377  0.00  0.00    -0.311 OA
ATOM     24  H   LIG    1       23.193 -11.947   5.829  0.00  0.00    +0.360 HD
ENDBRANCH  19  23
ENDBRANCH  15  18
ENDBRANCH  11  12
ENDBRANCH   8  11
ENDBRANCH   3   7
BRANCH   1  25
ATOM     25  C   LIG    1       24.912 -20.925   3.848  0.00  0.00    +0.144 C 
BRANCH  25  26
ATOM     26  C   LIG    1       24.483 -21.541   5.224  0.00  0.00    +0.015 C 
ATOM     27  C   LIG    1       25.142 -20.921   6.473  0.00  0.00    +0.005 C 
ATOM     28  C   LIG    1       24.600 -19.539   6.806  0.00  0.00    +0.000 C 
ATOM     29  C   LIG    1       23.100 -19.593   7.062  0.00  0.00    +0.000 C 
ATOM     30  C   LIG    1       22.333 -20.265   5.928  0.00  0.00    +0.000 C 
ATOM     31  C   LIG    1       22.956 -21.570   5.428  0.00  0.00    +0.005 C 
ENDBRANCH  25  26
BRANCH  25  32
ATOM     32  N   LIG    1       23.734 -20.492   3.059  0.00  0.00    -0.296 NA
ATOM     33  H   LIG    1       23.674 -21.011   2.181  0.00  0.00    +0.123 HD
BRANCH  32  34
ATOM     34  C   LIG    1       23.712 -19.055   2.731  0.00  0.00    +0.203 C 
BRANCH  34  35
ATOM     35  C   LIG    1       22.615 -18.450   3.580  0.00  0.00    +0.321 C 
ATOM     36  O   LIG    1       21.509 -18.935   3.621  0.00  0.00    -0.249 OA
BRANCH  35  37
ATOM     37  O   LIG    1       23.106 -17.477   4.428  0.00  0.00    -0.464 OA
BRANCH  37  39
ATOM     38  C   LIG    1       22.713 -15.194   5.321  0.00  0.00    +0.048 C 
ATOM     39  C   LIG    1       22.672 -16.141   4.137  0.00  0.00    +0.229 C 
ENDBRANCH  37  39
ENDBRANCH  35  37
ENDBRANCH  34  35
ENDBRANCH  32  34
ENDBRANCH  25  32
ENDBRANCH   1  25
TORSDOF 13
ENDMDL
MODEL 2
REMARK VINA RESULT:       4.4      1.886      6.722
REMARK  Name = *****
REMARK                            x       y       z     vdW  Elec       q    Type
REMARK                         _______ _______ _______ _____ _____    ______ ____
ROOT
ATOM      1  C   LIG    1       27.357 -16.112   4.453  0.00  0.00    +0.234 C 
ATOM      2  N   LIG    1       27.905 -16.886   5.471  0.00  0.00    -0.288 N 
ATOM      3  C   LIG    1       28.648 -18.154   5.194  0.00  0.00    +0.163 C 
ATOM      4  C   LIG    1       29.475 -17.843   6.449  0.00  0.00    +0.051 C 
ATOM      5  C   LIG    1       28.872 -16.458   6.480  0.00  0.00    +0.111 C 
ATOM      6  O   LIG    1       26.588 -16.602   3.625  0.00  0.00    -0.274 OA
ENDROOT
BRANCH   3   7
ATOM      7  C   LIG    1       27.911 -19.524   5.219  0.00  0.00    +0.234 C 
ATOM      8  N   LIG    1       27.819 -20.106   6.460  0.00  0.00    -0.310 N 
ATOM      9  H   LIG    1       28.209 -19.610   7.252  0.00  0.00    +0.149 HD
ATOM     10  O   LIG    1       27.467 -20.075   4.211  0.00  0.00    -0.274 OA
BRANCH   8  11
ATOM     11  C   LIG    1       27.085 -21.332   6.676  0.00  0.00    +0.139 C 
BRANCH  11  12
ATOM     12  C   LIG    1       25.669 -21.186   6.187  0.00  0.00    -0.030 A 
ATOM     13  C   LIG    1       24.673 -20.694   7.036  0.00  0.00    +0.006 A 
ATOM     14  C   LIG    1       23.384 -20.455   6.554  0.00  0.00    +0.016 A 
ATOM     15  C   LIG    1       23.052 -20.735   5.225  0.00  0.00    +0.069 A 
ATOM     16  C   LIG    1       24.038 -21.272   4.383  0.00  0.00    +0.016 A 
ATOM     17  C   LIG    1       25.332 -21.504   4.863  0.00  0.00    +0.006 A 
BRANCH  15  18
ATOM     18  C   LIG    1       21.710 -20.373   4.652  0.00  0.00    +0.362 C 
ATOM     19  N   LIG    1       21.342 -19.224   4.143  0.00  0.00    +0.151 NA
BRANCH  18  20
ATOM     20  N   LIG    1       20.745 -21.354   4.609  0.00  0.00    -0.243 N 
ATOM     21  H   LIG    1       20.119 -21.277   5.404  0.00  0.00    +0.289 HD
ATOM     22  H   LIG    1       20.248 -21.430   3.730  0.00  0.00    +0.289 HD
ENDBRANCH  18  20
BRANCH  19  23
ATOM     23  O   LIG    1       22.299 -18.217   4.240  0.00  0.00    -0.311 OA
ATOM     24  H   LIG    1       22.608 -18.315   5.159  0.00  0.00    +0.360 HD
ENDBRANCH  19  23
ENDBRANCH  15  18
ENDBRANCH  11  12
ENDBRANCH   8  11
ENDBRANCH   3   7
BRANCH   1  25
ATOM     25  C   LIG    1       27.805 -14.609   4.337  0.00  0.00    +0.144 C 
BRANCH  25  26
ATOM     26  C   LIG    1       27.898 -14.133   2.846  0.00  0.00    +0.015 C 
ATOM     27  C   LIG    1       26.746 -14.581   1.925  0.00  0.00    +0.005 C 
ATOM     28  C   LIG    1       25.448 -13.833   2.190  0.00  0.00    +0.000 C 
ATOM     29  C   LIG    1       25.637 -12.335   1.989  0.00  0.00    +0.000 C 
ATOM     30  C   LIG    1       26.809 -11.776   2.788  0.00  0.00    +0.000 C 
ATOM     31  C   LIG    1       28.088 -12.611   2.703  0.00  0.00    +0.005 C 
ENDBRANCH  25  26
BRANCH  25  32
ATOM     32  N   LIG    1       26.856 -13.774   5.112  0.00  0.00    -0.296 NA
ATOM     33  H   LIG    1       27.259 -13.505   6.011  0.00  0.00    +0.123 HD
BRANCH  32  34
ATOM     34  C   LIG    1       25.555 -14.415   5.378  0.00  0.00    +0.203 C 
BRANCH  34  35
ATOM     35  C   LIG    1       24.512 -13.335   5.191  0.00  0.00    +0.321 C 
ATOM     36  O   LIG    1       24.746 -12.179   5.454  0.00  0.00    -0.249 OA
BRANCH  35  37
ATOM     37  O   LIG    1       23.416 -13.802   4.492  0.00  0.00    -0.464 OA
BRANCH  37  39
ATOM     38  C   LIG    1       22.071 -15.445   5.779  0.00  0.00    +0.048 C 
ATOM     39  C   LIG    1       23.107 -15.188   4.702  0.00  0.00    +0.229 C 
ENDBRANCH  37  39
ENDBRANCH  35  37
ENDBRANCH  34  35
ENDBRANCH  32  34
ENDBRANCH  25  32
ENDBRANCH   1  25
TORSDOF 13
ENDMDL
