MODEL 1
REMARK VINA RESULT:       8.3      0.000      0.000
REMARK  Name = *****
REMARK                            x       y       z     vdW  Elec       q    Type
REMARK                         _______ _______ _______ _____ _____    ______ ____
ROOT
ATOM      1  CA  LIG    1       22.212 -18.351   4.521  0.00  0.00    +0.191 C 
ATOM      2  C   LIG    1       21.961 -16.840   4.823  0.00  0.00    +0.169 C 
ATOM      3  N   LIG    1       23.117 -16.584   3.977  0.00  0.00    -0.249 N 
ATOM      4  CA  LIG    1       23.762 -15.391   3.851  0.00  0.00    +0.128 C 
ATOM      5  C   LIG    1       23.394 -14.318   4.607  0.00  0.00    +0.033 C 
ATOM      6  C   LIG    1       22.413 -14.462   5.767  0.00  0.00    +0.110 C 
ATOM      7  S   LIG    1       22.332 -16.141   6.439  0.00  0.00    -0.131 S 
ATOM      8  C   LIG    1       23.013 -17.750   3.298  0.00  0.00    +0.244 C 
ATOM      9  O   LIG    1       23.392 -18.102   2.207  0.00  0.00    -0.273 OA
ENDROOT
BRANCH   1  11
ATOM     10  C   LIG    1       24.025 -20.005   5.015  0.00  0.00    +0.268 C 
ATOM     11  N   LIG    1       23.035 -19.155   5.454  0.00  0.00    -0.296 N 
ATOM     12  H   LIG    1       22.804 -19.227   6.446  0.00  0.00    +0.150 HD
ATOM     13  O   LIG    1       24.296 -20.155   3.832  0.00  0.00    -0.268 OA
BRANCH  10  15
ATOM     14  N   LIG    1       24.272 -21.434   7.062  0.00  0.00    -0.078 NA
ATOM     15  C   LIG    1       24.825 -20.715   6.122  0.00  0.00    +0.190 C 
BRANCH  15  16
ATOM     16  C   LIG    1       26.281 -20.561   6.191  0.00  0.00    +0.107 A 
ATOM     17  N   LIG    1       26.931 -19.529   5.507  0.00  0.00    -0.223 NA
ATOM     18  C   LIG    1       28.227 -19.605   5.671  0.00  0.00    +0.156 A 
ATOM     19  S   LIG    1       28.761 -20.860   6.709  0.00  0.00    -0.060 S 
ATOM     20  C   LIG    1       27.140 -21.381   6.901  0.00  0.00    +0.078 A 
BRANCH  18  21
ATOM     21  N   LIG    1       29.096 -18.773   5.081  0.00  0.00    -0.338 N 
ATOM     22  H   LIG    1       28.887 -17.783   5.134  0.00  0.00    +0.144 HD
ATOM     23  H   LIG    1       30.082 -19.005   5.091  0.00  0.00    +0.144 HD
ENDBRANCH  18  21
ENDBRANCH  15  16
BRANCH  14  25
ATOM     24  C   LIG    1       22.546 -21.572   5.554  0.00  0.00    +0.313 C 
ATOM     25  O   LIG    1       22.884 -21.572   6.941  0.00  0.00    -0.396 OA
ENDBRANCH  14  25
ENDBRANCH  10  15
ENDBRANCH   1  11
BRANCH   4  26
ATOM     26  C   LIG    1       24.945 -15.335   2.924  0.00  0.00    +0.352 C 
ATOM     27  O   LIG    1       25.946 -16.019   3.008  0.00  0.00    -0.244 OA
BRANCH  26  28
ATOM     28  OXT LIG    1       24.751 -14.517   1.882  0.00  0.00    -0.476 OA
ATOM     29  HXT LIG    1       24.635 -15.072   1.082  0.00  0.00    +0.295 HD
ENDBRANCH  26  28
ENDBRANCH   4  26
BRANCH   5  30
ATOM     30  C   LIG    1       23.936 -12.899   4.466  0.00  0.00    +0.392 C 
BRANCH  30  31
ATOM     31  N   LIG    1       25.391 -12.914   4.115  0.00  0.00    -0.197 N 
ATOM     32  C   LIG    1       26.363 -13.126   5.033  0.00  0.00    +0.187 A 
ATOM     33  C   LIG    1       26.225 -13.465   6.493  0.00  0.00    +0.107 C 
ATOM     34  C   LIG    1       27.629 -14.015   6.801  0.00  0.00    +0.015 C 
ATOM     35  C   LIG    1       28.599 -13.284   5.866  0.00  0.00    +0.042 C 
ATOM     36  C   LIG    1       27.715 -13.046   4.682  0.00  0.00    +0.019 A 
ATOM     37  C   LIG    1       28.105 -12.766   3.391  0.00  0.00    +0.015 A 
ATOM     38  C   LIG    1       27.105 -12.630   2.443  0.00  0.00    +0.070 A 
ATOM     39  C   LIG    1       25.766 -12.729   2.819  0.00  0.00    +0.309 A 
ENDBRANCH  30  31
ENDBRANCH   5  30
TORSDOF 9
ENDMDL
MODEL 2
REMARK VINA RESULT:      10.0      2.407      6.548
REMARK  Name = *****
REMARK                            x       y       z     vdW  Elec       q    Type
REMARK                         _______ _______ _______ _____ _____    ______ ____
ROOT
ATOM      1  CA  LIG    1       21.952 -17.871   3.259  0.00  0.00    +0.191 C 
ATOM      2  C   LIG    1       23.118 -18.835   2.874  0.00  0.00    +0.169 C 
ATOM      3  N   LIG    1       23.011 -19.343   4.233  0.00  0.00    -0.249 N 
ATOM      4  CA  LIG    1       23.901 -20.174   4.844  0.00  0.00    +0.128 C 
ATOM      5  C   LIG    1       25.052 -20.545   4.214  0.00  0.00    +0.033 C 
ATOM      6  C   LIG    1       25.496 -19.881   2.914  0.00  0.00    +0.110 C 
ATOM      7  S   LIG    1       24.800 -18.227   2.674  0.00  0.00    -0.131 S 
ATOM      8  C   LIG    1       21.727 -18.947   4.394  0.00  0.00    +0.244 C 
ATOM      9  O   LIG    1       20.837 -19.321   5.120  0.00  0.00    -0.273 OA
ENDROOT
BRANCH   1  11
ATOM     10  C   LIG    1       23.497 -16.184   4.278  0.00  0.00    +0.268 C 
ATOM     11  N   LIG    1       22.264 -16.511   3.760  0.00  0.00    -0.296 N 
ATOM     12  H   LIG    1       21.536 -15.806   3.880  0.00  0.00    +0.150 HD
ATOM     13  O   LIG    1       24.417 -16.986   4.361  0.00  0.00    -0.268 OA
BRANCH  10  15
ATOM     14  N   LIG    1       23.110 -14.192   5.752  0.00  0.00    -0.078 NA
ATOM     15  C   LIG    1       23.669 -14.713   4.692  0.00  0.00    +0.190 C 
BRANCH  15  16
ATOM     16  C   LIG    1       24.453 -13.800   3.854  0.00  0.00    +0.107 A 
ATOM     17  N   LIG    1       25.833 -13.964   3.704  0.00  0.00    -0.223 NA
ATOM     18  C   LIG    1       26.336 -13.018   2.953  0.00  0.00    +0.156 A 
ATOM     19  S   LIG    1       25.197 -11.911   2.309  0.00  0.00    -0.060 S 
ATOM     20  C   LIG    1       23.945 -12.721   3.152  0.00  0.00    +0.078 A 
BRANCH  18  21
ATOM     21  N   LIG    1       27.646 -12.901   2.691  0.00  0.00    -0.338 N 
ATOM     22  H   LIG    1       28.274 -13.472   3.244  0.00  0.00    +0.144 HD
ATOM     23  H   LIG    1       27.942 -12.737   1.736  0.00  0.00    +0.144 HD
ENDBRANCH  18  21
ENDBRANCH  15  16
BRANCH  14  25
ATOM     24  C   LIG    1       21.051 -14.637   6.664  0.00  0.00    +0.313 C 
ATOM     25  O   LIG    1       22.393 -15.106   6.532  0.00  0.00    -0.396 OA
ENDBRANCH  14  25
ENDBRANCH  10  15
ENDBRANCH   1  11
BRANCH   4  26
ATOM     26  C   LIG    1       23.610 -20.582   6.262  0.00  0.00    +0.352 C 
ATOM     27  O   LIG    1       24.195 -21.446   6.887  0.00  0.00    -0.244 OA
BRANCH  26  28
ATOM     28  OXT LIG    1       22.692 -19.805   6.850  0.00  0.00    -0.476 OA
ATOM     29  HXT LIG    1       23.086 -19.447   7.674  0.00  0.00    +0.295 HD
ENDBRANCH  26  28
ENDBRANCH   4  26
BRANCH   5  30
ATOM     30  C   LIG    1       26.057 -21.572   4.725  0.00  0.00    +0.392 C 
BRANCH  30  31
ATOM     31  N   LIG    1       27.208 -20.901   5.410  0.00  0.00    -0.197 N 
ATOM     32  C   LIG    1       27.657 -19.675   5.053  0.00  0.00    +0.187 A 
ATOM     33  C   LIG    1       27.097 -18.725   4.029  0.00  0.00    +0.107 C 
ATOM     34  C   LIG    1       27.760 -17.404   4.458  0.00  0.00    +0.015 C 
ATOM     35  C   LIG    1       29.111 -17.776   5.079  0.00  0.00    +0.042 C 
ATOM     36  C   LIG    1       28.789 -19.119   5.659  0.00  0.00    +0.019 A 
ATOM     37  C   LIG    1       29.475 -19.788   6.648  0.00  0.00    +0.015 A 
ATOM     38  C   LIG    1       28.961 -21.005   7.062  0.00  0.00    +0.070 A 
ATOM     39  C   LIG    1       27.822 -21.529   6.449  0.00  0.00    +0.309 A 
ENDBRANCH  30  31
ENDBRANCH   5  30
TORSDOF 9
ENDMDL
MODEL 3
REMARK VINA RESULT:      10.3      2.564      4.733
REMARK  Name = *****
REMARK                            x       y       z     vdW  Elec       q    Type
REMARK                         _______ _______ _______ _____ _____    ______ ____
ROOT
ATOM      1  CA  LIG    1       28.123 -18.051   4.347  0.00  0.00    +0.191 C 
ATOM      2  C   LIG    1       27.323 -17.116   3.388  0.00  0.00    +0.169 C 
ATOM      3  N   LIG    1       27.461 -16.104   4.425  0.00  0.00    -0.249 N 
ATOM      4  CA  LIG    1       26.803 -14.912   4.465  0.00  0.00    +0.128 C 
ATOM      5  C   LIG    1       25.865 -14.603   3.526  0.00  0.00    +0.033 C 
ATOM      6  C   LIG    1       25.356 -15.647   2.537  0.00  0.00    +0.110 C 
ATOM      7  S   LIG    1       25.560 -17.349   3.117  0.00  0.00    -0.131 S 
ATOM      8  C   LIG    1       28.557 -16.670   4.981  0.00  0.00    +0.244 C 
ATOM      9  O   LIG    1       29.454 -16.230   5.659  0.00  0.00    -0.273 OA
ENDROOT
BRANCH   1  11
ATOM     10  C   LIG    1       26.688 -20.045   4.833  0.00  0.00    +0.268 C 
ATOM     11  N   LIG    1       27.390 -18.946   5.274  0.00  0.00    -0.296 N 
ATOM     12  H   LIG    1       27.251 -18.701   6.255  0.00  0.00    +0.150 HD
ATOM     13  O   LIG    1       26.620 -20.360   3.653  0.00  0.00    -0.268 OA
BRANCH  10  15
ATOM     14  N   LIG    1       26.723 -21.571   6.823  0.00  0.00    -0.078 NA
ATOM     15  C   LIG    1       26.039 -20.899   5.936  0.00  0.00    +0.190 C 
BRANCH  15  16
ATOM     16  C   LIG    1       24.581 -21.033   5.999  0.00  0.00    +0.107 A 
ATOM     17  N   LIG    1       23.770 -20.603   4.945  0.00  0.00    -0.223 NA
ATOM     18  C   LIG    1       22.504 -20.777   5.229  0.00  0.00    +0.156 A 
ATOM     19  S   LIG    1       22.189 -21.533   6.735  0.00  0.00    -0.060 S 
ATOM     20  C   LIG    1       23.871 -21.571   7.058  0.00  0.00    +0.078 A 
BRANCH  18  21
ATOM     21  N   LIG    1       21.506 -20.399   4.418  0.00  0.00    -0.338 N 
ATOM     22  H   LIG    1       21.771 -19.964   3.542  0.00  0.00    +0.144 HD
ATOM     23  H   LIG    1       20.664 -20.960   4.381  0.00  0.00    +0.144 HD
ENDBRANCH  18  21
ENDBRANCH  15  16
BRANCH  14  25
ATOM     24  C   LIG    1       28.408 -20.022   6.996  0.00  0.00    +0.313 C 
ATOM     25  O   LIG    1       28.108 -21.393   6.738  0.00  0.00    -0.396 OA
ENDBRANCH  14  25
ENDBRANCH  10  15
ENDBRANCH   1  11
BRANCH   4  26
ATOM     26  C   LIG    1       27.082 -14.003   5.632  0.00  0.00    +0.352 C 
ATOM     27  O   LIG    1       26.745 -14.201   6.783  0.00  0.00    -0.244 OA
BRANCH  26  28
ATOM     28  OXT LIG    1       27.870 -12.970   5.309  0.00  0.00    -0.476 OA
ATOM     29  HXT LIG    1       28.180 -13.106   4.388  0.00  0.00    +0.295 HD
ENDBRANCH  26  28
ENDBRANCH   4  26
BRANCH   5  30
ATOM     30  C   LIG    1       25.162 -13.257   3.376  0.00  0.00    +0.392 C 
BRANCH  30  31
ATOM     31  N   LIG    1       24.299 -12.968   4.565  0.00  0.00    -0.197 N 
ATOM     32  C   LIG    1       23.327 -13.811   4.985  0.00  0.00    +0.187 A 
ATOM     33  C   LIG    1       22.968 -15.176   4.460  0.00  0.00    +0.107 C 
ATOM     34  C   LIG    1       22.148 -15.737   5.635  0.00  0.00    +0.015 C 
ATOM     35  C   LIG    1       21.470 -14.537   6.306  0.00  0.00    +0.042 C 
ATOM     36  C   LIG    1       22.483 -13.466   6.047  0.00  0.00    +0.019 A 
ATOM     37  C   LIG    1       22.622 -12.268   6.712  0.00  0.00    +0.015 A 
ATOM     38  C   LIG    1       23.670 -11.448   6.328  0.00  0.00    +0.070 A 
ATOM     39  C   LIG    1       24.504 -11.825   5.275  0.00  0.00    +0.309 A 
ENDBRANCH  30  31
ENDBRANCH   5  30
TORSDOF 9
ENDMDL
