MODEL 1
REMARK VINA RESULT:      -4.9      0.000      0.000
REMARK  Name = *****
REMARK                            x       y       z     vdW  Elec       q    Type
REMARK                         _______ _______ _______ _____ _____    ______ ____
ROOT
ATOM      1  C   LIG    1       26.626 -14.088   3.477  0.00  0.00    +0.175 C 
ENDROOT
BRANCH   1   2
ATOM      2  C   LIG    1       27.041 -15.575   3.367  0.00  0.00    +0.371 C 
ATOM      3  F   LIG    1       25.943 -16.374   3.470  0.00  0.00    -0.207 F 
ATOM      4  F   LIG    1       27.816 -15.898   4.443  0.00  0.00    -0.207 F 
ENDBRANCH   1   2
BRANCH   1   5
ATOM      5  N   LIG    1       26.455 -13.418   2.120  0.00  0.00    -0.311 NA
ATOM      6  H   LIG    1       25.630 -13.846   1.679  0.00  0.00    +0.119 HD
ATOM      7  H   LIG    1       26.159 -12.450   2.278  0.00  0.00    +0.119 HD
ENDBRANCH   1   5
BRANCH   1   8
ATOM      8  C   LIG    1       27.790 -13.393   4.193  0.00  0.00    +0.331 C 
ATOM      9  O   LIG    1       28.906 -13.206   3.724  0.00  0.00    -0.249 OA
BRANCH   8  10
ATOM     10  O   LIG    1       27.443 -13.028   5.457  0.00  0.00    -0.479 OA
ATOM     11  H   LIG    1       28.092 -12.318   5.711  0.00  0.00    +0.295 HD
ENDBRANCH   8  10
ENDBRANCH   1   8
BRANCH   1  12
ATOM     12  C   LIG    1       25.322 -13.949   4.296  0.00  0.00    +0.040 C 
BRANCH  12  13
ATOM     13  C   LIG    1       24.067 -13.557   3.488  0.00  0.00    +0.017 C 
BRANCH  13  14
ATOM     14  C   LIG    1       23.805 -12.048   3.527  0.00  0.00    +0.078 C 
BRANCH  14  15
ATOM     15  N   LIG    1       23.896 -11.448   2.203  0.00  0.00    -0.330 NA
ATOM     16  H   LIG    1       22.998 -11.034   1.950  0.00  0.00    +0.118 HD
ATOM     17  H   LIG    1       24.561 -10.675   2.226  0.00  0.00    +0.118 HD
ENDBRANCH  14  15
ENDBRANCH  13  14
ENDBRANCH  12  13
ENDBRANCH   1  12
TORSDOF 8
ENDMDL
MODEL 2
REMARK VINA RESULT:      -4.8      1.897      2.454
REMARK  Name = *****
REMARK                            x       y       z     vdW  Elec       q    Type
REMARK                         _______ _______ _______ _____ _____    ______ ____
ROOT
ATOM      1  C   LIG    1       27.366 -13.991   3.946  0.00  0.00    +0.175 C 
ENDROOT
BRANCH   1   2
ATOM      2  C   LIG    1       26.386 -13.503   5.040  0.00  0.00    +0.371 C 
ATOM      3  F   LIG    1       26.859 -13.836   6.273  0.00  0.00    -0.207 F 
ATOM      4  F   LIG    1       25.211 -14.186   4.915  0.00  0.00    -0.207 F 
ENDBRANCH   1   2
BRANCH   1   5
ATOM      5  N   LIG    1       27.859 -15.412   4.182  0.00  0.00    -0.311 NA
ATOM      6  H   LIG    1       28.449 -15.660   3.376  0.00  0.00    +0.119 HD
ATOM      7  H   LIG    1       28.524 -15.393   4.960  0.00  0.00    +0.119 HD
ENDBRANCH   1   5
BRANCH   1   8
ATOM      8  C   LIG    1       28.579 -13.059   4.042  0.00  0.00    +0.331 C 
ATOM      9  O   LIG    1       28.737 -12.177   4.878  0.00  0.00    -0.249 OA
BRANCH   8  10
ATOM     10  O   LIG    1       29.470 -13.305   3.043  0.00  0.00    -0.479 OA
ATOM     11  H   LIG    1       29.149 -14.139   2.606  0.00  0.00    +0.295 HD
ENDBRANCH   8  10
ENDBRANCH   1   8
BRANCH   1  12
ATOM     12  C   LIG    1       26.711 -13.891   2.549  0.00  0.00    +0.040 C 
BRANCH  12  13
ATOM     13  C   LIG    1       26.029 -12.545   2.228  0.00  0.00    +0.017 C 
BRANCH  13  14
ATOM     14  C   LIG    1       24.530 -12.709   1.956  0.00  0.00    +0.078 C 
BRANCH  14  15
ATOM     15  N   LIG    1       23.724 -11.878   2.841  0.00  0.00    -0.330 NA
ATOM     16  H   LIG    1       24.335 -11.339   3.455  0.00  0.00    +0.118 HD
ATOM     17  H   LIG    1       23.210 -11.193   2.288  0.00  0.00    +0.118 HD
ENDBRANCH  14  15
ENDBRANCH  13  14
ENDBRANCH  12  13
ENDBRANCH   1  12
TORSDOF 8
ENDMDL
MODEL 3
REMARK VINA RESULT:      -4.7      2.419      3.647
REMARK  Name = *****
REMARK                            x       y       z     vdW  Elec       q    Type
REMARK                         _______ _______ _______ _____ _____    ______ ____
ROOT
ATOM      1  C   LIG    1       25.060 -13.653   3.885  0.00  0.00    +0.175 C 
ENDROOT
BRANCH   1   2
ATOM      2  C   LIG    1       23.963 -14.745   3.876  0.00  0.00    +0.371 C 
ATOM      3  F   LIG    1       23.299 -14.749   5.066  0.00  0.00    -0.207 F 
ATOM      4  F   LIG    1       24.561 -15.970   3.801  0.00  0.00    -0.207 F 
ENDBRANCH   1   2
BRANCH   1   5
ATOM      5  N   LIG    1       24.643 -12.399   4.642  0.00  0.00    -0.311 NA
ATOM      6  H   LIG    1       24.040 -12.708   5.418  0.00  0.00    +0.119 HD
ATOM      7  H   LIG    1       25.467 -12.028   5.122  0.00  0.00    +0.119 HD
ENDBRANCH   1   5
BRANCH   1   8
ATOM      8  C   LIG    1       25.256 -13.262   2.416  0.00  0.00    +0.331 C 
ATOM      9  O   LIG    1       24.615 -12.409   1.813  0.00  0.00    -0.249 OA
BRANCH   8  10
ATOM     10  O   LIG    1       26.227 -14.014   1.831  0.00  0.00    -0.479 OA
ATOM     11  H   LIG    1       25.846 -14.302   0.959  0.00  0.00    +0.295 HD
ENDBRANCH   8  10
ENDBRANCH   1   8
BRANCH   1  12
ATOM     12  C   LIG    1       26.373 -14.209   4.480  0.00  0.00    +0.040 C 
BRANCH  12  13
ATOM     13  C   LIG    1       27.153 -13.241   5.394  0.00  0.00    +0.017 C 
BRANCH  13  14
ATOM     14  C   LIG    1       28.344 -12.601   4.673  0.00  0.00    +0.078 C 
BRANCH  14  15
ATOM     15  N   LIG    1       28.679 -13.311   3.446  0.00  0.00    -0.330 NA
ATOM     16  H   LIG    1       28.751 -14.311   3.636  0.00  0.00    +0.118 HD
ATOM     17  H   LIG    1       27.916 -13.210   2.776  0.00  0.00    +0.118 HD
ENDBRANCH  14  15
ENDBRANCH  13  14
ENDBRANCH  12  13
ENDBRANCH   1  12
TORSDOF 8
ENDMDL
MODEL 4
REMARK VINA RESULT:      -4.6      2.691      3.916
REMARK  Name = *****
REMARK                            x       y       z     vdW  Elec       q    Type
REMARK                         _______ _______ _______ _____ _____    ______ ____
ROOT
ATOM      1  C   LIG    1       25.174 -13.318   3.806  0.00  0.00    +0.175 C 
ENDROOT
BRANCH   1   2
ATOM      2  C   LIG    1       24.319 -14.607   3.744  0.00  0.00    +0.371 C 
ATOM      3  F   LIG    1       23.526 -14.694   4.848  0.00  0.00    -0.207 F 
ATOM      4  F   LIG    1       25.148 -15.689   3.817  0.00  0.00    -0.207 F 
ENDBRANCH   1   2
BRANCH   1   5
ATOM      5  N   LIG    1       25.516 -12.900   5.230  0.00  0.00    -0.311 NA
ATOM      6  H   LIG    1       25.038 -13.563   5.857  0.00  0.00    +0.119 HD
ATOM      7  H   LIG    1       26.507 -13.101   5.392  0.00  0.00    +0.119 HD
ENDBRANCH   1   5
BRANCH   1   8
ATOM      8  C   LIG    1       24.297 -12.218   3.200  0.00  0.00    +0.331 C 
ATOM      9  O   LIG    1       23.582 -11.447   3.829  0.00  0.00    -0.249 OA
BRANCH   8  10
ATOM     10  O   LIG    1       24.377 -12.217   1.841  0.00  0.00    -0.479 OA
ATOM     11  H   LIG    1       23.655 -11.602   1.537  0.00  0.00    +0.295 HD
ENDBRANCH   8  10
ENDBRANCH   1   8
BRANCH   1  12
ATOM     12  C   LIG    1       26.474 -13.491   2.987  0.00  0.00    +0.040 C 
BRANCH  12  13
ATOM     13  C   LIG    1       27.721 -13.907   3.796  0.00  0.00    +0.017 C 
BRANCH  13  14
ATOM     14  C   LIG    1       28.730 -12.763   3.929  0.00  0.00    +0.078 C 
BRANCH  14  15
ATOM     15  N   LIG    1       28.698 -12.163   5.256  0.00  0.00    -0.330 NA
ATOM     16  H   LIG    1       27.896 -12.521   5.775  0.00  0.00    +0.118 HD
ATOM     17  H   LIG    1       29.522 -12.455   5.781  0.00  0.00    +0.118 HD
ENDBRANCH  14  15
ENDBRANCH  13  14
ENDBRANCH  12  13
ENDBRANCH   1  12
TORSDOF 8
ENDMDL
MODEL 5
REMARK VINA RESULT:      -4.6      3.040      4.170
REMARK  Name = *****
REMARK                            x       y       z     vdW  Elec       q    Type
REMARK                         _______ _______ _______ _____ _____    ______ ____
ROOT
ATOM      1  C   LIG    1       25.615 -13.850   3.208  0.00  0.00    +0.175 C 
ENDROOT
BRANCH   1   2
ATOM      2  C   LIG    1       24.489 -12.818   2.956  0.00  0.00    +0.371 C 
ATOM      3  F   LIG    1       24.916 -11.866   2.080  0.00  0.00    -0.207 F 
ATOM      4  F   LIG    1       24.241 -12.145   4.117  0.00  0.00    -0.207 F 
ENDBRANCH   1   2
BRANCH   1   5
ATOM      5  N   LIG    1       26.440 -14.145   1.962  0.00  0.00    -0.311 NA
ATOM      6  H   LIG    1       26.059 -13.556   1.208  0.00  0.00    +0.119 HD
ATOM      7  H   LIG    1       27.378 -13.762   2.104  0.00  0.00    +0.119 HD
ENDBRANCH   1   5
BRANCH   1   8
ATOM      8  C   LIG    1       24.899 -15.145   3.605  0.00  0.00    +0.331 C 
ATOM      9  O   LIG    1       23.817 -15.216   4.177  0.00  0.00    -0.249 OA
BRANCH   8  10
ATOM     10  O   LIG    1       25.637 -16.239   3.273  0.00  0.00    -0.479 OA
ATOM     11  H   LIG    1       24.973 -16.949   3.063  0.00  0.00    +0.295 HD
ENDBRANCH   8  10
ENDBRANCH   1   8
BRANCH   1  12
ATOM     12  C   LIG    1       26.544 -13.370   4.347  0.00  0.00    +0.040 C 
BRANCH  12  13
ATOM     13  C   LIG    1       28.033 -13.746   4.194  0.00  0.00    +0.017 C 
BRANCH  13  14
ATOM     14  C   LIG    1       28.936 -12.509   4.132  0.00  0.00    +0.078 C 
BRANCH  14  15
ATOM     15  N   LIG    1       29.052 -11.858   5.430  0.00  0.00    -0.330 NA
ATOM     16  H   LIG    1       28.227 -12.066   5.994  0.00  0.00    +0.118 HD
ATOM     17  H   LIG    1       29.843 -12.252   5.938  0.00  0.00    +0.118 HD
ENDBRANCH  14  15
ENDBRANCH  13  14
ENDBRANCH  12  13
ENDBRANCH   1  12
TORSDOF 8
ENDMDL
MODEL 6
REMARK VINA RESULT:      -4.5      6.809      7.940
REMARK  Name = *****
REMARK                            x       y       z     vdW  Elec       q    Type
REMARK                         _______ _______ _______ _____ _____    ______ ____
ROOT
ATOM      1  C   LIG    1       24.172 -20.716   4.466  0.00  0.00    +0.175 C 
ENDROOT
BRANCH   1   2
ATOM      2  C   LIG    1       24.459 -19.236   4.114  0.00  0.00    +0.371 C 
ATOM      3  F   LIG    1       23.361 -18.670   3.541  0.00  0.00    -0.207 F 
ATOM      4  F   LIG    1       25.424 -19.192   3.150  0.00  0.00    -0.207 F 
ENDBRANCH   1   2
BRANCH   1   5
ATOM      5  N   LIG    1       23.880 -21.571   3.240  0.00  0.00    -0.311 NA
ATOM      6  H   LIG    1       23.221 -22.304   3.539  0.00  0.00    +0.119 HD
ATOM      7  H   LIG    1       23.325 -21.011   2.587  0.00  0.00    +0.119 HD
ENDBRANCH   1   5
BRANCH   1   8
ATOM      8  C   LIG    1       22.903 -20.691   5.325  0.00  0.00    +0.331 C 
ATOM      9  O   LIG    1       22.731 -20.003   6.324  0.00  0.00    -0.249 OA
BRANCH   8  10
ATOM     10  O   LIG    1       21.975 -21.571   4.860  0.00  0.00    -0.479 OA
ATOM     11  H   LIG    1       21.099 -21.214   5.167  0.00  0.00    +0.295 HD
ENDBRANCH   8  10
ENDBRANCH   1   8
BRANCH   1  12
ATOM     12  C   LIG    1       25.353 -21.323   5.257  0.00  0.00    +0.040 C 
BRANCH  12  13
ATOM     13  C   LIG    1       25.892 -20.460   6.416  0.00  0.00    +0.017 C 
BRANCH  13  14
ATOM     14  C   LIG    1       27.423 -20.477   6.484  0.00  0.00    +0.078 C 
BRANCH  14  15
ATOM     15  N   LIG    1       28.025 -20.026   5.236  0.00  0.00    -0.330 NA
ATOM     16  H   LIG    1       27.308 -19.613   4.639  0.00  0.00    +0.118 HD
ATOM     17  H   LIG    1       28.689 -19.277   5.431  0.00  0.00    +0.118 HD
ENDBRANCH  14  15
ENDBRANCH  13  14
ENDBRANCH  12  13
ENDBRANCH   1  12
TORSDOF 8
ENDMDL
MODEL 7
REMARK VINA RESULT:      -4.4      2.378      2.801
REMARK  Name = *****
REMARK                            x       y       z     vdW  Elec       q    Type
REMARK                         _______ _______ _______ _____ _____    ______ ____
ROOT
ATOM      1  C   LIG    1       26.753 -13.841   3.784  0.00  0.00    +0.175 C 
ENDROOT
BRANCH   1   2
ATOM      2  C   LIG    1       28.180 -13.295   4.031  0.00  0.00    +0.371 C 
ATOM      3  F   LIG    1       28.239 -12.672   5.240  0.00  0.00    -0.207 F 
ATOM      4  F   LIG    1       28.443 -12.318   3.115  0.00  0.00    -0.207 F 
ENDBRANCH   1   2
BRANCH   1   5
ATOM      5  N   LIG    1       25.825 -13.633   4.973  0.00  0.00    -0.311 NA
ATOM      6  H   LIG    1       26.408 -13.689   5.819  0.00  0.00    +0.119 HD
ATOM      7  H   LIG    1       25.516 -12.657   4.968  0.00  0.00    +0.119 HD
ENDBRANCH   1   5
BRANCH   1   8
ATOM      8  C   LIG    1       26.923 -15.352   3.589  0.00  0.00    +0.331 C 
ATOM      9  O   LIG    1       26.131 -16.092   3.019  0.00  0.00    -0.249 OA
BRANCH   8  10
ATOM     10  O   LIG    1       28.071 -15.798   4.169  0.00  0.00    -0.479 OA
ATOM     11  H   LIG    1       28.389 -16.537   3.584  0.00  0.00    +0.295 HD
ENDBRANCH   8  10
ENDBRANCH   1   8
BRANCH   1  12
ATOM     12  C   LIG    1       26.138 -13.195   2.522  0.00  0.00    +0.040 C 
BRANCH  12  13
ATOM     13  C   LIG    1       24.596 -13.153   2.480  0.00  0.00    +0.017 C 
BRANCH  13  14
ATOM     14  C   LIG    1       24.054 -11.730   2.652  0.00  0.00    +0.078 C 
BRANCH  14  15
ATOM     15  N   LIG    1       23.661 -11.462   4.029  0.00  0.00    -0.330 NA
ATOM     16  H   LIG    1       22.944 -10.736   4.047  0.00  0.00    +0.118 HD
ATOM     17  H   LIG    1       23.224 -12.294   4.425  0.00  0.00    +0.118 HD
ENDBRANCH  14  15
ENDBRANCH  13  14
ENDBRANCH  12  13
ENDBRANCH   1  12
TORSDOF 8
ENDMDL
MODEL 8
REMARK VINA RESULT:      -4.3      2.872      4.105
REMARK  Name = *****
REMARK                            x       y       z     vdW  Elec       q    Type
REMARK                         _______ _______ _______ _____ _____    ______ ____
ROOT
ATOM      1  C   LIG    1       25.803 -13.977   3.278  0.00  0.00    +0.175 C 
ENDROOT
BRANCH   1   2
ATOM      2  C   LIG    1       26.687 -13.385   4.402  0.00  0.00    +0.371 C 
ATOM      3  F   LIG    1       27.964 -13.843   4.282  0.00  0.00    -0.207 F 
ATOM      4  F   LIG    1       26.252 -13.863   5.604  0.00  0.00    -0.207 F 
ENDBRANCH   1   2
BRANCH   1   5
ATOM      5  N   LIG    1       26.531 -14.083   1.945  0.00  0.00    -0.311 NA
ATOM      6  H   LIG    1       27.422 -14.565   2.130  0.00  0.00    +0.119 HD
ATOM      7  H   LIG    1       26.023 -14.751   1.357  0.00  0.00    +0.119 HD
ENDBRANCH   1   5
BRANCH   1   8
ATOM      8  C   LIG    1       24.652 -12.982   3.099  0.00  0.00    +0.331 C 
ATOM      9  O   LIG    1       24.161 -12.291   3.984  0.00  0.00    -0.249 OA
BRANCH   8  10
ATOM     10  O   LIG    1       24.199 -12.978   1.816  0.00  0.00    -0.479 OA
ATOM     11  H   LIG    1       23.217 -12.831   1.885  0.00  0.00    +0.295 HD
ENDBRANCH   8  10
ENDBRANCH   1   8
BRANCH   1  12
ATOM     12  C   LIG    1       25.264 -15.366   3.690  0.00  0.00    +0.040 C 
BRANCH  12  13
ATOM     13  C   LIG    1       26.188 -16.560   3.373  0.00  0.00    +0.017 C 
BRANCH  13  14
ATOM     14  C   LIG    1       25.421 -17.886   3.324  0.00  0.00    +0.078 C 
BRANCH  14  15
ATOM     15  N   LIG    1       26.191 -18.979   3.902  0.00  0.00    -0.330 NA
ATOM     16  H   LIG    1       26.631 -19.521   3.157  0.00  0.00    +0.118 HD
ATOM     17  H   LIG    1       26.957 -18.598   4.457  0.00  0.00    +0.118 HD
ENDBRANCH  14  15
ENDBRANCH  13  14
ENDBRANCH  12  13
ENDBRANCH   1  12
TORSDOF 8
ENDMDL
MODEL 9
REMARK VINA RESULT:      -4.2      6.101      7.057
REMARK  Name = *****
REMARK                            x       y       z     vdW  Elec       q    Type
REMARK                         _______ _______ _______ _____ _____    ______ ____
ROOT
ATOM      1  C   LIG    1       23.910 -20.435   4.714  0.00  0.00    +0.175 C 
ENDROOT
BRANCH   1   2
ATOM      2  C   LIG    1       22.622 -20.472   5.572  0.00  0.00    +0.371 C 
ATOM      3  F   LIG    1       21.574 -20.912   4.821  0.00  0.00    -0.207 F 
ATOM      4  F   LIG    1       22.292 -19.197   5.929  0.00  0.00    -0.207 F 
ENDBRANCH   1   2
BRANCH   1   5
ATOM      5  N   LIG    1       23.981 -21.570   3.702  0.00  0.00    -0.311 NA
ATOM      6  H   LIG    1       23.315 -21.340   2.951  0.00  0.00    +0.119 HD
ATOM      7  H   LIG    1       24.889 -21.519   3.231  0.00  0.00    +0.119 HD
ENDBRANCH   1   5
BRANCH   1   8
ATOM      8  C   LIG    1       25.064 -20.624   5.704  0.00  0.00    +0.331 C 
ATOM      9  O   LIG    1       24.994 -20.478   6.919  0.00  0.00    -0.249 OA
BRANCH   8  10
ATOM     10  O   LIG    1       26.218 -20.949   5.060  0.00  0.00    -0.479 OA
ATOM     11  H   LIG    1       26.855 -20.217   5.279  0.00  0.00    +0.295 HD
ENDBRANCH   8  10
ENDBRANCH   1   8
BRANCH   1  12
ATOM     12  C   LIG    1       24.035 -19.077   3.986  0.00  0.00    +0.040 C 
BRANCH  12  13
ATOM     13  C   LIG    1       25.382 -18.822   3.279  0.00  0.00    +0.017 C 
BRANCH  13  14
ATOM     14  C   LIG    1       25.782 -17.343   3.316  0.00  0.00    +0.078 C 
BRANCH  14  15
ATOM     15  N   LIG    1       27.218 -17.174   3.495  0.00  0.00    -0.330 NA
ATOM     16  H   LIG    1       27.396 -16.385   4.117  0.00  0.00    +0.118 HD
ATOM     17  H   LIG    1       27.599 -17.993   3.967  0.00  0.00    +0.118 HD
ENDBRANCH  14  15
ENDBRANCH  13  14
ENDBRANCH  12  13
ENDBRANCH   1  12
TORSDOF 8
ENDMDL
