MODEL 1
REMARK VINA RESULT:      -5.5      0.000      0.000
REMARK  Name = *****
REMARK                            x       y       z     vdW  Elec       q    Type
REMARK                         _______ _______ _______ _____ _____    ______ ____
ROOT
ATOM      1  C   LIG    1       22.095 -20.869   5.229  0.00  0.00    +0.063 C 
ATOM      2  C   LIG    1       23.454 -20.346   4.921  0.00  0.00    +0.043 C 
ATOM      3  C   LIG    1       23.707 -19.456   3.750  0.00  0.00    +0.150 C 
ATOM      4  C   LIG    1       25.181 -19.214   3.880  0.00  0.00    +0.245 C 
ATOM      5  O   LIG    1       25.832 -18.523   3.113  0.00  0.00    -0.273 OA
ATOM      6  N   LIG    1       25.557 -19.937   5.024  0.00  0.00    -0.161 N 
ATOM      7  N   LIG    1       24.507 -20.606   5.629  0.00  0.00    -0.181 NA
ENDROOT
BRANCH   6   8
ATOM      8  C   LIG    1       26.850 -20.048   5.597  0.00  0.00    +0.060 A 
ATOM      9  C   LIG    1       27.142 -21.099   6.482  0.00  0.00    +0.025 A 
ATOM     10  C   LIG    1       28.408 -21.230   7.062  0.00  0.00    +0.002 A 
ATOM     11  C   LIG    1       29.406 -20.309   6.764  0.00  0.00    +0.000 A 
ATOM     12  C   LIG    1       29.138 -19.261   5.889  0.00  0.00    +0.002 A 
ATOM     13  C   LIG    1       27.870 -19.131   5.311  0.00  0.00    +0.025 A 
ENDBRANCH   6   8
TORSDOF 1
ENDMDL
MODEL 2
REMARK VINA RESULT:      -4.8      5.274      7.042
REMARK  Name = *****
REMARK                            x       y       z     vdW  Elec       q    Type
REMARK                         _______ _______ _______ _____ _____    ______ ____
ROOT
ATOM      1  C   LIG    1       25.402 -18.787   3.348  0.00  0.00    +0.063 C 
ATOM      2  C   LIG    1       25.813 -17.359   3.449  0.00  0.00    +0.043 C 
ATOM      3  C   LIG    1       27.229 -16.965   3.704  0.00  0.00    +0.150 C 
ATOM      4  C   LIG    1       27.120 -15.469   3.711  0.00  0.00    +0.245 C 
ATOM      5  O   LIG    1       28.062 -14.715   3.891  0.00  0.00    -0.273 OA
ATOM      6  N   LIG    1       25.759 -15.215   3.475  0.00  0.00    -0.161 N 
ATOM      7  N   LIG    1       24.998 -16.361   3.321  0.00  0.00    -0.181 NA
ENDROOT
BRANCH   6   8
ATOM      8  C   LIG    1       25.113 -13.956   3.381  0.00  0.00    +0.060 A 
ATOM      9  C   LIG    1       25.105 -13.255   2.164  0.00  0.00    +0.025 A 
ATOM     10  C   LIG    1       24.476 -12.012   2.046  0.00  0.00    +0.002 A 
ATOM     11  C   LIG    1       23.842 -11.447   3.147  0.00  0.00    +0.000 A 
ATOM     12  C   LIG    1       23.837 -12.125   4.362  0.00  0.00    +0.002 A 
ATOM     13  C   LIG    1       24.468 -13.369   4.478  0.00  0.00    +0.025 A 
ENDBRANCH   6   8
TORSDOF 1
ENDMDL
MODEL 3
REMARK VINA RESULT:      -4.7      1.754      2.163
REMARK  Name = *****
REMARK                            x       y       z     vdW  Elec       q    Type
REMARK                         _______ _______ _______ _____ _____    ______ ____
ROOT
ATOM      1  C   LIG    1       22.515 -18.318   3.456  0.00  0.00    +0.063 C 
ATOM      2  C   LIG    1       23.266 -19.162   4.425  0.00  0.00    +0.043 C 
ATOM      3  C   LIG    1       22.571 -20.077   5.375  0.00  0.00    +0.150 C 
ATOM      4  C   LIG    1       23.733 -20.680   6.106  0.00  0.00    +0.245 C 
ATOM      5  O   LIG    1       23.627 -21.506   6.998  0.00  0.00    -0.273 OA
ATOM      6  N   LIG    1       24.862 -20.081   5.524  0.00  0.00    -0.161 N 
ATOM      7  N   LIG    1       24.558 -19.177   4.522  0.00  0.00    -0.181 NA
ENDROOT
BRANCH   6   8
ATOM      8  C   LIG    1       26.226 -20.300   5.847  0.00  0.00    +0.060 A 
ATOM      9  C   LIG    1       26.586 -21.335   6.727  0.00  0.00    +0.025 A 
ATOM     10  C   LIG    1       27.923 -21.571   7.062  0.00  0.00    +0.002 A 
ATOM     11  C   LIG    1       28.926 -20.773   6.520  0.00  0.00    +0.000 A 
ATOM     12  C   LIG    1       28.591 -19.744   5.646  0.00  0.00    +0.002 A 
ATOM     13  C   LIG    1       27.252 -19.509   5.313  0.00  0.00    +0.025 A 
ENDBRANCH   6   8
TORSDOF 1
ENDMDL
MODEL 4
REMARK VINA RESULT:      -4.5      1.290      4.613
REMARK  Name = *****
REMARK                            x       y       z     vdW  Elec       q    Type
REMARK                         _______ _______ _______ _____ _____    ______ ____
ROOT
ATOM      1  C   LIG    1       29.475 -20.433   7.061  0.00  0.00    +0.063 C 
ATOM      2  C   LIG    1       28.263 -20.103   6.261  0.00  0.00    +0.043 C 
ATOM      3  C   LIG    1       28.300 -19.105   5.153  0.00  0.00    +0.150 C 
ATOM      4  C   LIG    1       26.878 -19.139   4.680  0.00  0.00    +0.245 C 
ATOM      5  O   LIG    1       26.444 -18.460   3.763  0.00  0.00    -0.273 OA
ATOM      6  N   LIG    1       26.253 -20.083   5.512  0.00  0.00    -0.161 N 
ATOM      7  N   LIG    1       27.103 -20.645   6.449  0.00  0.00    -0.181 NA
ENDROOT
BRANCH   6   8
ATOM      8  C   LIG    1       24.898 -20.500   5.490  0.00  0.00    +0.060 A 
ATOM      9  C   LIG    1       24.333 -21.124   6.615  0.00  0.00    +0.025 A 
ATOM     10  C   LIG    1       23.000 -21.546   6.618  0.00  0.00    +0.002 A 
ATOM     11  C   LIG    1       22.206 -21.348   5.493  0.00  0.00    +0.000 A 
ATOM     12  C   LIG    1       22.746 -20.730   4.370  0.00  0.00    +0.002 A 
ATOM     13  C   LIG    1       24.080 -20.310   4.368  0.00  0.00    +0.025 A 
ENDBRANCH   6   8
TORSDOF 1
ENDMDL
MODEL 5
REMARK VINA RESULT:      -4.5      4.034      5.893
REMARK  Name = *****
REMARK                            x       y       z     vdW  Elec       q    Type
REMARK                         _______ _______ _______ _____ _____    ______ ____
ROOT
ATOM      1  C   LIG    1       23.858 -12.145   4.030  0.00  0.00    +0.063 C 
ATOM      2  C   LIG    1       24.392 -13.526   3.874  0.00  0.00    +0.043 C 
ATOM      3  C   LIG    1       25.811 -13.782   3.492  0.00  0.00    +0.150 C 
ATOM      4  C   LIG    1       25.844 -15.281   3.473  0.00  0.00    +0.245 C 
ATOM      5  O   LIG    1       26.834 -15.941   3.202  0.00  0.00    -0.273 OA
ATOM      6  N   LIG    1       24.539 -15.665   3.823  0.00  0.00    -0.161 N 
ATOM      7  N   LIG    1       23.689 -14.598   4.058  0.00  0.00    -0.181 NA
ENDROOT
BRANCH   6   8
ATOM      8  C   LIG    1       24.025 -16.981   3.955  0.00  0.00    +0.060 A 
ATOM      9  C   LIG    1       22.721 -17.185   4.435  0.00  0.00    +0.025 A 
ATOM     10  C   LIG    1       22.191 -18.472   4.574  0.00  0.00    +0.002 A 
ATOM     11  C   LIG    1       22.960 -19.580   4.235  0.00  0.00    +0.000 A 
ATOM     12  C   LIG    1       24.254 -19.399   3.757  0.00  0.00    +0.002 A 
ATOM     13  C   LIG    1       24.783 -18.111   3.618  0.00  0.00    +0.025 A 
ENDBRANCH   6   8
TORSDOF 1
ENDMDL
MODEL 6
REMARK VINA RESULT:      -4.4      3.643      5.647
REMARK  Name = *****
REMARK                            x       y       z     vdW  Elec       q    Type
REMARK                         _______ _______ _______ _____ _____    ______ ____
ROOT
ATOM      1  C   LIG    1       27.635 -13.789   2.941  0.00  0.00    +0.063 C 
ATOM      2  C   LIG    1       26.412 -14.546   3.326  0.00  0.00    +0.043 C 
ATOM      3  C   LIG    1       25.181 -13.857   3.813  0.00  0.00    +0.150 C 
ATOM      4  C   LIG    1       24.269 -15.022   4.055  0.00  0.00    +0.245 C 
ATOM      5  O   LIG    1       23.126 -14.922   4.470  0.00  0.00    -0.273 OA
ATOM      6  N   LIG    1       25.033 -16.146   3.700  0.00  0.00    -0.161 N 
ATOM      7  N   LIG    1       26.311 -15.836   3.267  0.00  0.00    -0.181 NA
ENDROOT
BRANCH   6   8
ATOM      8  C   LIG    1       24.644 -17.510   3.739  0.00  0.00    +0.060 A 
ATOM      9  C   LIG    1       25.583 -18.519   3.467  0.00  0.00    +0.025 A 
ATOM     10  C   LIG    1       25.225 -19.871   3.498  0.00  0.00    +0.002 A 
ATOM     11  C   LIG    1       23.918 -20.236   3.802  0.00  0.00    +0.000 A 
ATOM     12  C   LIG    1       22.974 -19.252   4.076  0.00  0.00    +0.002 A 
ATOM     13  C   LIG    1       23.333 -17.900   4.043  0.00  0.00    +0.025 A 
ENDBRANCH   6   8
TORSDOF 1
ENDMDL
MODEL 7
REMARK VINA RESULT:      -4.4      4.017      5.895
REMARK  Name = *****
REMARK                            x       y       z     vdW  Elec       q    Type
REMARK                         _______ _______ _______ _____ _____    ______ ____
ROOT
ATOM      1  C   LIG    1       23.860 -12.158   4.019  0.00  0.00    +0.063 C 
ATOM      2  C   LIG    1       24.382 -13.544   3.868  0.00  0.00    +0.043 C 
ATOM      3  C   LIG    1       25.797 -13.814   3.479  0.00  0.00    +0.150 C 
ATOM      4  C   LIG    1       25.817 -15.313   3.467  0.00  0.00    +0.245 C 
ATOM      5  O   LIG    1       26.800 -15.982   3.194  0.00  0.00    -0.273 OA
ATOM      6  N   LIG    1       24.512 -15.685   3.827  0.00  0.00    -0.161 N 
ATOM      7  N   LIG    1       23.672 -14.610   4.061  0.00  0.00    -0.181 NA
ENDROOT
BRANCH   6   8
ATOM      8  C   LIG    1       23.988 -16.996   3.969  0.00  0.00    +0.060 A 
ATOM      9  C   LIG    1       24.772 -18.110   3.624  0.00  0.00    +0.025 A 
ATOM     10  C   LIG    1       24.279 -19.412   3.754  0.00  0.00    +0.002 A 
ATOM     11  C   LIG    1       22.990 -19.623   4.231  0.00  0.00    +0.000 A 
ATOM     12  C   LIG    1       22.198 -18.533   4.578  0.00  0.00    +0.002 A 
ATOM     13  C   LIG    1       22.692 -17.230   4.447  0.00  0.00    +0.025 A 
ENDBRANCH   6   8
TORSDOF 1
ENDMDL
MODEL 8
REMARK VINA RESULT:      -3.8      3.802      5.147
REMARK  Name = *****
REMARK                            x       y       z     vdW  Elec       q    Type
REMARK                         _______ _______ _______ _____ _____    ______ ____
ROOT
ATOM      1  C   LIG    1       24.223 -20.682   3.481  0.00  0.00    +0.063 C 
ATOM      2  C   LIG    1       23.948 -19.243   3.748  0.00  0.00    +0.043 C 
ATOM      3  C   LIG    1       22.658 -18.785   4.340  0.00  0.00    +0.150 C 
ATOM      4  C   LIG    1       22.875 -17.303   4.408  0.00  0.00    +0.245 C 
ATOM      5  O   LIG    1       22.054 -16.510   4.837  0.00  0.00    -0.273 OA
ATOM      6  N   LIG    1       24.166 -17.114   3.888  0.00  0.00    -0.161 N 
ATOM      7  N   LIG    1       24.788 -18.288   3.501  0.00  0.00    -0.181 NA
ENDROOT
BRANCH   6   8
ATOM      8  C   LIG    1       24.868 -15.891   3.727  0.00  0.00    +0.060 A 
ATOM      9  C   LIG    1       26.221 -15.899   3.350  0.00  0.00    +0.025 A 
ATOM     10  C   LIG    1       26.936 -14.708   3.185  0.00  0.00    +0.002 A 
ATOM     11  C   LIG    1       26.307 -13.486   3.396  0.00  0.00    +0.000 A 
ATOM     12  C   LIG    1       24.967 -13.457   3.769  0.00  0.00    +0.002 A 
ATOM     13  C   LIG    1       24.254 -14.649   3.934  0.00  0.00    +0.025 A 
ENDBRANCH   6   8
TORSDOF 1
ENDMDL
MODEL 9
REMARK VINA RESULT:      -3.7      3.849      5.278
REMARK  Name = *****
REMARK                            x       y       z     vdW  Elec       q    Type
REMARK                         _______ _______ _______ _____ _____    ______ ____
ROOT
ATOM      1  C   LIG    1       21.934 -19.512   4.551  0.00  0.00    +0.063 C 
ATOM      2  C   LIG    1       23.109 -18.677   4.177  0.00  0.00    +0.043 C 
ATOM      3  C   LIG    1       24.377 -19.283   3.678  0.00  0.00    +0.150 C 
ATOM      4  C   LIG    1       25.215 -18.062   3.447  0.00  0.00    +0.245 C 
ATOM      5  O   LIG    1       26.362 -18.086   3.029  0.00  0.00    -0.273 OA
ATOM      6  N   LIG    1       24.384 -16.991   3.813  0.00  0.00    -0.161 N 
ATOM      7  N   LIG    1       23.129 -17.384   4.246  0.00  0.00    -0.181 NA
ENDROOT
BRANCH   6   8
ATOM      8  C   LIG    1       24.686 -15.605   3.784  0.00  0.00    +0.060 A 
ATOM      9  C   LIG    1       23.726 -14.665   4.193  0.00  0.00    +0.025 A 
ATOM     10  C   LIG    1       23.999 -13.293   4.174  0.00  0.00    +0.002 A 
ATOM     11  C   LIG    1       25.242 -12.838   3.744  0.00  0.00    +0.000 A 
ATOM     12  C   LIG    1       26.207 -13.754   3.336  0.00  0.00    +0.002 A 
ATOM     13  C   LIG    1       25.931 -15.125   3.355  0.00  0.00    +0.025 A 
ENDBRANCH   6   8
TORSDOF 1
ENDMDL
