MODEL 1
REMARK VINA RESULT:      -3.0      0.000      0.000
REMARK  Name = *****
REMARK                            x       y       z     vdW  Elec       q    Type
REMARK                         _______ _______ _______ _____ _____    ______ ____
ROOT
ATOM      1  C   LIG    1       26.207 -16.440   3.309  0.00  0.00    +0.211 C 
ATOM      2  O   LIG    1       25.066 -15.567   3.357  0.00  0.00    -0.483 OA
ATOM      3  C   LIG    1       25.348 -14.273   3.015  0.00  0.00    +0.139 A 
ATOM      4  C   LIG    1       26.618 -13.704   3.118  0.00  0.00    +0.101 A 
ATOM      5  C   LIG    1       26.813 -12.364   2.763  0.00  0.00    +0.134 A 
ATOM      6  C   LIG    1       25.744 -11.590   2.316  0.00  0.00    +0.091 A 
ATOM      7  C   LIG    1       24.479 -12.166   2.234  0.00  0.00    +0.124 A 
ATOM      8  C   LIG    1       27.714 -14.532   3.653  0.00  0.00    +0.174 C 
ATOM      9  O   LIG    1       28.847 -14.066   3.735  0.00  0.00    -0.292 OA
ATOM     10  C   LIG    1       24.273 -13.497   2.583  0.00  0.00    +0.092 A 
ATOM     11  C   LIG    1       27.348 -15.900   4.160  0.00  0.00    +0.129 C 
ENDROOT
BRANCH   1  15
ATOM     12  C   LIG    1       24.944 -20.385   4.662  0.00  0.00    +0.161 A 
ATOM     13  C   LIG    1       26.256 -19.953   4.879  0.00  0.00    +0.159 A 
ATOM     14  C   LIG    1       26.668 -18.687   4.438  0.00  0.00    +0.056 A 
ATOM     15  C   LIG    1       25.778 -17.820   3.780  0.00  0.00    -0.003 A 
ATOM     16  C   LIG    1       24.470 -18.264   3.553  0.00  0.00    +0.011 A 
ATOM     17  C   LIG    1       24.064 -19.527   3.993  0.00  0.00    +0.050 A 
BRANCH  12  19
ATOM     18  C   LIG    1       23.306 -21.545   5.967  0.00  0.00    +0.277 C 
ATOM     19  O   LIG    1       24.364 -21.572   5.020  0.00  0.00    -0.491 OA
ENDBRANCH  12  19
BRANCH  13  20
ATOM     20  O   LIG    1       27.170 -20.741   5.523  0.00  0.00    -0.503 OA
ATOM     21  H   LIG    1       27.042 -20.659   6.482  0.00  0.00    +0.292 HD
ENDBRANCH  13  20
ENDBRANCH   1  15
BRANCH   7  22
ATOM     22  O   LIG    1       23.399 -11.447   1.815  0.00  0.00    -0.506 OA
ATOM     23  H   LIG    1       23.639 -10.506   1.785  0.00  0.00    +0.292 HD
ENDBRANCH   7  22
BRANCH   5  24
ATOM     24  O   LIG    1       28.029 -11.740   2.846  0.00  0.00    -0.506 OA
ATOM     25  H   LIG    1       28.710 -12.418   3.055  0.00  0.00    +0.292 HD
ENDBRANCH   5  24
TORSDOF 5
ENDMDL
