MODEL 1
REMARK VINA RESULT:      70.0      0.000      0.000
REMARK  Name = *****
REMARK                            x       y       z     vdW  Elec       q    Type
REMARK                         _______ _______ _______ _____ _____    ______ ____
ROOT
ATOM      1  C   LIG    1       23.293 -13.140   5.025  0.00  0.00    +0.210 C 
ATOM      2  C   LIG    1       24.452 -13.018   3.938  0.00  0.00    +0.127 C 
ATOM      3  C   LIG    1       24.290 -14.096   2.860  0.00  0.00    +0.048 C 
ATOM      4  C   LIG    1       25.840 -13.041   4.653  0.00  0.00    +0.166 C 
ATOM      5  C   LIG    1       27.125 -12.945   3.731  0.00  0.00    +0.085 C 
ATOM      6  C   LIG    1       28.286 -12.253   4.484  0.00  0.00    +0.027 C 
ATOM      7  N   LIG    1       27.722 -14.189   3.177  0.00  0.00    -0.300 NA
ATOM      8  C   LIG    1       27.315 -14.523   1.819  0.00  0.00    +0.105 C 
ATOM      9  C   LIG    1       27.653 -15.315   4.101  0.00  0.00    +0.087 C 
ATOM     10  C   LIG    1       28.651 -16.472   3.968  0.00  0.00    +0.003 C 
ATOM     11  C   LIG    1       29.302 -16.781   2.628  0.00  0.00    +0.009 C 
ATOM     12  C   LIG    1       28.128 -17.694   4.747  0.00  0.00    +0.041 C 
ATOM     13  C   LIG    1       26.769 -18.447   4.546  0.00  0.00    +0.090 C 
ATOM     14  C   LIG    1       26.057 -18.111   3.240  0.00  0.00    +0.044 C 
ATOM     15  C   LIG    1       25.851 -18.390   5.892  0.00  0.00    +0.158 C 
ATOM     16  C   LIG    1       24.358 -18.955   5.655  0.00  0.00    +0.047 C 
ATOM     17  C   LIG    1       24.247 -20.437   6.053  0.00  0.00    +0.013 C 
ATOM     18  C   LIG    1       23.223 -17.989   6.251  0.00  0.00    +0.140 C 
ATOM     19  C   LIG    1       23.049 -16.784   5.264  0.00  0.00    +0.124 C 
ATOM     20  C   LIG    1       21.935 -16.876   4.194  0.00  0.00    +0.022 C 
ATOM     21  C   LIG    1       23.016 -15.409   5.896  0.00  0.00    +0.313 C 
ATOM     22  O   LIG    1       23.397 -15.140   7.062  0.00  0.00    -0.250 OA
ATOM     23  O   LIG    1       22.745 -14.480   4.957  0.00  0.00    -0.458 OA
ENDROOT
BRANCH   1  25
ATOM     24  C   LIG    1       21.105 -12.125   5.856  0.00  0.00    +0.007 C 
ATOM     25  C   LIG    1       22.137 -12.168   4.739  0.00  0.00    +0.044 C 
ENDBRANCH   1  25
BRANCH   2  26
ATOM     26  O   LIG    1       24.369 -11.728   3.287  0.00  0.00    -0.383 OA
ATOM     27  H   LIG    1       23.839 -11.131   3.845  0.00  0.00    +0.210 HD
ENDBRANCH   2  26
BRANCH   4  28
ATOM     28  O   LIG    1       25.843 -11.919   5.565  0.00  0.00    -0.387 OA
ATOM     29  H   LIG    1       25.392 -12.235   6.374  0.00  0.00    +0.210 HD
ENDBRANCH   4  28
BRANCH  13  30
ATOM     30  O   LIG    1       27.073 -19.826   4.344  0.00  0.00    -0.386 OA
ATOM     31  H   LIG    1       26.278 -20.142   3.882  0.00  0.00    +0.210 HD
ENDBRANCH  13  30
BRANCH  15  32
ATOM     32  O   LIG    1       26.397 -19.138   7.059  0.00  0.00    -0.342 OA
BRANCH  32  33
ATOM     33  C   LIG    1       27.684 -19.768   7.009  0.00  0.00    +0.281 C 
ATOM     34  C   LIG    1       27.918 -21.004   6.086  0.00  0.00    +0.187 C 
ATOM     35  C   LIG    1       27.894 -20.671   4.573  0.00  0.00    +0.092 C 
ATOM     36  C   LIG    1       28.923 -19.542   4.334  0.00  0.00    +0.053 C 
ATOM     37  C   LIG    1       29.042 -18.458   5.399  0.00  0.00    +0.120 C 
ATOM     38  C   LIG    1       28.489 -17.105   4.951  0.00  0.00    +0.038 C 
ATOM     39  O   LIG    1       28.720 -18.826   6.732  0.00  0.00    -0.346 OA
BRANCH  35  40
ATOM     40  N   LIG    1       26.538 -20.433   4.010  0.00  0.00    -0.303 NA
ATOM     41  C   LIG    1       26.432 -20.852   2.602  0.00  0.00    +0.105 C 
ATOM     42  C   LIG    1       25.506 -21.210   4.733  0.00  0.00    +0.105 C 
ENDBRANCH  35  40
BRANCH  34  43
ATOM     43  O   LIG    1       29.231 -21.571   6.382  0.00  0.00    -0.385 OA
ATOM     44  H   LIG    1       29.126 -22.139   7.170  0.00  0.00    +0.210 HD
ENDBRANCH  34  43
ENDBRANCH  32  33
ENDBRANCH  15  32
BRANCH  18  45
ATOM     45  O   LIG    1       21.988 -18.716   6.470  0.00  0.00    -0.347 OA
BRANCH  45  46
ATOM     46  C   LIG    1       21.292 -19.147   5.274  0.00  0.00    +0.254 C 
ATOM     47  O   LIG    1       21.753 -20.425   4.849  0.00  0.00    -0.346 OA
ATOM     48  C   LIG    1       21.146 -20.948   3.659  0.00  0.00    +0.150 C 
ATOM     49  C   LIG    1       19.711 -21.421   3.886  0.00  0.00    +0.040 C 
ATOM     50  C   LIG    1       21.314 -19.988   2.467  0.00  0.00    +0.175 C 
ATOM     51  C   LIG    1       20.883 -18.532   2.790  0.00  0.00    +0.099 C 
ATOM     52  C   LIG    1       19.351 -18.369   2.820  0.00  0.00    +0.044 C 
ATOM     53  C   LIG    1       21.501 -18.111   4.152  0.00  0.00    +0.098 C 
BRANCH  50  54
ATOM     54  O   LIG    1       22.701 -20.019   2.076  0.00  0.00    -0.386 OA
ATOM     55  H   LIG    1       23.012 -19.096   2.032  0.00  0.00    +0.210 HD
ENDBRANCH  50  54
BRANCH  51  56
ATOM     56  O   LIG    1       21.402 -17.590   1.814  0.00  0.00    -0.374 OA
ATOM     57  C   LIG    1       20.832 -16.283   1.815  0.00  0.00    +0.195 C 
ENDBRANCH  51  56
ENDBRANCH  45  46
ENDBRANCH  18  45
TORSDOF 12
ENDMDL
