MODEL 1
REMARK VINA RESULT:      -2.2      0.000      0.000
REMARK  Name = *****
REMARK                            x       y       z     vdW  Elec       q    Type
REMARK                         _______ _______ _______ _____ _____    ______ ____
ROOT
ATOM      1  C   LIG    1       22.963 -19.027   4.437  0.00  0.00    +0.037 A 
ATOM      2  C   LIG    1       23.670 -17.815   4.434  0.00  0.00    +0.033 A 
ATOM      3  C   LIG    1       23.043 -16.615   4.073  0.00  0.00    +0.002 A 
ATOM      4  C   LIG    1       21.694 -16.640   3.698  0.00  0.00    +0.010 A 
ATOM      5  C   LIG    1       20.986 -17.844   3.688  0.00  0.00    +0.002 A 
ATOM      6  C   LIG    1       21.619 -19.035   4.052  0.00  0.00    +0.023 A 
ENDROOT
BRANCH   3   7
ATOM      7  C   LIG    1       23.781 -15.341   4.128  0.00  0.00    +0.076 A 
ATOM      8  N   LIG    1       25.172 -15.275   3.922  0.00  0.00    -0.213 N 
ATOM      9  C   LIG    1       25.841 -14.038   3.972  0.00  0.00    +0.174 A 
ATOM     10  C   LIG    1       27.169 -14.315   3.728  0.00  0.00    +0.116 A 
ATOM     11  C   LIG    1       27.232 -15.702   3.550  0.00  0.00    +0.156 A 
ATOM     12  N   LIG    1       25.184 -12.864   4.222  0.00  0.00    -0.235 NA
ATOM     13  C   LIG    1       23.904 -12.958   4.413  0.00  0.00    +0.115 A 
ATOM     14  N   LIG    1       26.042 -16.293   3.664  0.00  0.00    -0.172 NA
ATOM     15  C   LIG    1       23.100 -14.208   4.383  0.00  0.00    +0.048 A 
BRANCH  10  16
ATOM     16  C   LIG    1       28.236 -13.381   3.672  0.00  0.00    +0.104 C 
ATOM     17  N   LIG    1       29.112 -12.611   3.671  0.00  0.00    -0.191 NA
ENDBRANCH  10  16
ENDBRANCH   3   7
BRANCH   1  18
ATOM     18  N   LIG    1       23.633 -20.226   4.801  0.00  0.00    -0.272 N 
ATOM     19  C   LIG    1       24.959 -20.518   4.481  0.00  0.00    +0.217 C 
ATOM     20  O   LIG    1       25.506 -21.572   4.817  0.00  0.00    -0.276 OA
ATOM     21  C   LIG    1       25.726 -19.531   3.633  0.00  0.00    +0.110 C 
BRANCH  18  23
ATOM     22  C   LIG    1       23.146 -21.170   7.061  0.00  0.00    +0.025 C 
ATOM     23  C   LIG    1       22.865 -21.218   5.565  0.00  0.00    +0.110 C 
ENDBRANCH  18  23
ENDBRANCH   1  18
TORSDOF 4
ENDMDL
MODEL 2
REMARK VINA RESULT:      -0.9      1.963      4.023
REMARK  Name = *****
REMARK                            x       y       z     vdW  Elec       q    Type
REMARK                         _______ _______ _______ _____ _____    ______ ____
ROOT
ATOM      1  C   LIG    1       26.720 -19.399   4.834  0.00  0.00    +0.037 A 
ATOM      2  C   LIG    1       26.542 -18.056   4.467  0.00  0.00    +0.033 A 
ATOM      3  C   LIG    1       27.606 -17.147   4.521  0.00  0.00    +0.002 A 
ATOM      4  C   LIG    1       28.859 -17.592   4.962  0.00  0.00    +0.010 A 
ATOM      5  C   LIG    1       29.041 -18.925   5.340  0.00  0.00    +0.002 A 
ATOM      6  C   LIG    1       27.975 -19.825   5.280  0.00  0.00    +0.023 A 
ENDROOT
BRANCH   3   7
ATOM      7  C   LIG    1       27.421 -15.753   4.080  0.00  0.00    +0.076 A 
ATOM      8  N   LIG    1       26.143 -15.199   3.877  0.00  0.00    -0.213 N 
ATOM      9  C   LIG    1       26.005 -13.860   3.465  0.00  0.00    +0.174 A 
ATOM     10  C   LIG    1       24.650 -13.631   3.366  0.00  0.00    +0.116 A 
ATOM     11  C   LIG    1       24.043 -14.843   3.716  0.00  0.00    +0.156 A 
ATOM     12  N   LIG    1       27.086 -13.051   3.245  0.00  0.00    -0.235 NA
ATOM     13  C   LIG    1       28.250 -13.592   3.434  0.00  0.00    +0.115 A 
ATOM     14  N   LIG    1       24.925 -15.794   4.025  0.00  0.00    -0.172 NA
ATOM     15  C   LIG    1       28.509 -14.991   3.866  0.00  0.00    +0.048 A 
BRANCH  10  16
ATOM     16  C   LIG    1       24.017 -12.419   2.987  0.00  0.00    +0.104 C 
ATOM     17  N   LIG    1       23.464 -11.447   2.657  0.00  0.00    -0.191 NA
ENDBRANCH  10  16
ENDBRANCH   3   7
BRANCH   1  18
ATOM     18  N   LIG    1       25.616 -20.291   4.774  0.00  0.00    -0.272 N 
ATOM     19  C   LIG    1       24.663 -20.302   3.755  0.00  0.00    +0.217 C 
ATOM     20  O   LIG    1       23.718 -21.096   3.738  0.00  0.00    -0.276 OA
ATOM     21  C   LIG    1       24.762 -19.256   2.670  0.00  0.00    +0.110 C 
BRANCH  18  23
ATOM     22  C   LIG    1       24.618 -20.754   7.016  0.00  0.00    +0.025 C 
ATOM     23  C   LIG    1       25.479 -21.263   5.867  0.00  0.00    +0.110 C 
ENDBRANCH  18  23
ENDBRANCH   1  18
TORSDOF 4
ENDMDL
MODEL 3
REMARK VINA RESULT:      -0.6      2.825      7.276
REMARK  Name = *****
REMARK                            x       y       z     vdW  Elec       q    Type
REMARK                         _______ _______ _______ _____ _____    ______ ____
ROOT
ATOM      1  C   LIG    1       25.338 -13.842   3.669  0.00  0.00    +0.037 A 
ATOM      2  C   LIG    1       24.914 -15.180   3.678  0.00  0.00    +0.033 A 
ATOM      3  C   LIG    1       25.831 -16.227   3.514  0.00  0.00    +0.002 A 
ATOM      4  C   LIG    1       27.184 -15.923   3.326  0.00  0.00    +0.010 A 
ATOM      5  C   LIG    1       27.612 -14.592   3.304  0.00  0.00    +0.002 A 
ATOM      6  C   LIG    1       26.692 -13.555   3.471  0.00  0.00    +0.023 A 
ENDROOT
BRANCH   3   7
ATOM      7  C   LIG    1       25.382 -17.629   3.582  0.00  0.00    +0.076 A 
ATOM      8  N   LIG    1       24.076 -17.977   3.977  0.00  0.00    -0.213 N 
ATOM      9  C   LIG    1       23.681 -19.327   4.019  0.00  0.00    +0.174 A 
ATOM     10  C   LIG    1       22.366 -19.324   4.432  0.00  0.00    +0.116 A 
ATOM     11  C   LIG    1       22.040 -17.976   4.622  0.00  0.00    +0.156 A 
ATOM     12  N   LIG    1       24.532 -20.346   3.688  0.00  0.00    -0.235 NA
ATOM     13  C   LIG    1       25.730 -19.994   3.335  0.00  0.00    +0.115 A 
ATOM     14  N   LIG    1       23.055 -17.154   4.353  0.00  0.00    -0.172 NA
ATOM     15  C   LIG    1       26.251 -18.604   3.256  0.00  0.00    +0.048 A 
BRANCH  10  16
ATOM     16  C   LIG    1       21.532 -20.456   4.620  0.00  0.00    +0.104 C 
ATOM     17  N   LIG    1       20.868 -21.407   4.742  0.00  0.00    -0.191 NA
ENDBRANCH  10  16
ENDBRANCH   3   7
BRANCH   1  18
ATOM     18  N   LIG    1       24.380 -12.806   3.830  0.00  0.00    -0.272 N 
ATOM     19  C   LIG    1       23.900 -12.357   5.062  0.00  0.00    +0.217 C 
ATOM     20  O   LIG    1       23.068 -11.451   5.160  0.00  0.00    -0.276 OA
ATOM     21  C   LIG    1       24.374 -13.058   6.314  0.00  0.00    +0.110 C 
BRANCH  18  23
ATOM     22  C   LIG    1       24.941 -11.447   1.812  0.00  0.00    +0.025 C 
ATOM     23  C   LIG    1       23.865 -12.171   2.609  0.00  0.00    +0.110 C 
ENDBRANCH  18  23
ENDBRANCH   1  18
TORSDOF 4
ENDMDL
MODEL 4
REMARK VINA RESULT:      -0.0      1.673      2.627
REMARK  Name = *****
REMARK                            x       y       z     vdW  Elec       q    Type
REMARK                         _______ _______ _______ _____ _____    ______ ____
ROOT
ATOM      1  C   LIG    1       23.214 -19.201   3.847  0.00  0.00    +0.037 A 
ATOM      2  C   LIG    1       23.465 -17.838   4.062  0.00  0.00    +0.033 A 
ATOM      3  C   LIG    1       24.703 -17.272   3.731  0.00  0.00    +0.002 A 
ATOM      4  C   LIG    1       25.702 -18.090   3.189  0.00  0.00    +0.010 A 
ATOM      5  C   LIG    1       25.463 -19.452   2.983  0.00  0.00    +0.002 A 
ATOM      6  C   LIG    1       24.225 -20.006   3.314  0.00  0.00    +0.023 A 
ENDROOT
BRANCH   3   7
ATOM      7  C   LIG    1       24.935 -15.828   3.909  0.00  0.00    +0.076 A 
ATOM      8  N   LIG    1       26.232 -15.285   3.988  0.00  0.00    -0.213 N 
ATOM      9  C   LIG    1       26.415 -13.898   4.148  0.00  0.00    +0.174 A 
ATOM     10  C   LIG    1       27.778 -13.697   4.183  0.00  0.00    +0.116 A 
ATOM     11  C   LIG    1       28.344 -14.970   4.048  0.00  0.00    +0.156 A 
ATOM     12  N   LIG    1       25.361 -13.030   4.237  0.00  0.00    -0.235 NA
ATOM     13  C   LIG    1       24.179 -13.561   4.167  0.00  0.00    +0.115 A 
ATOM     14  N   LIG    1       27.430 -15.934   3.930  0.00  0.00    -0.172 NA
ATOM     15  C   LIG    1       23.873 -15.006   4.000  0.00  0.00    +0.048 A 
BRANCH  10  16
ATOM     16  C   LIG    1       28.451 -12.457   4.326  0.00  0.00    +0.104 C 
ATOM     17  N   LIG    1       29.036 -11.458   4.467  0.00  0.00    -0.191 NA
ENDBRANCH  10  16
ENDBRANCH   3   7
BRANCH   1  18
ATOM     18  N   LIG    1       21.950 -19.744   4.202  0.00  0.00    -0.272 N 
ATOM     19  C   LIG    1       20.725 -19.261   3.740  0.00  0.00    +0.217 C 
ATOM     20  O   LIG    1       19.647 -19.762   4.071  0.00  0.00    -0.276 OA
ATOM     21  C   LIG    1       20.725 -18.039   2.852  0.00  0.00    +0.110 C 
BRANCH  18  23
ATOM     22  C   LIG    1       22.921 -20.730   6.281  0.00  0.00    +0.025 C 
ATOM     23  C   LIG    1       21.945 -20.889   5.122  0.00  0.00    +0.110 C 
ENDBRANCH  18  23
ENDBRANCH   1  18
TORSDOF 4
ENDMDL
MODEL 5
REMARK VINA RESULT:       0.3      1.486      2.031
REMARK  Name = *****
REMARK                            x       y       z     vdW  Elec       q    Type
REMARK                         _______ _______ _______ _____ _____    ______ ____
ROOT
ATOM      1  C   LIG    1       23.256 -18.032   4.361  0.00  0.00    +0.037 A 
ATOM      2  C   LIG    1       23.918 -16.885   3.899  0.00  0.00    +0.033 A 
ATOM      3  C   LIG    1       23.456 -15.604   4.230  0.00  0.00    +0.002 A 
ATOM      4  C   LIG    1       22.308 -15.479   5.022  0.00  0.00    +0.010 A 
ATOM      5  C   LIG    1       21.636 -16.617   5.475  0.00  0.00    +0.002 A 
ATOM      6  C   LIG    1       22.106 -17.890   5.143  0.00  0.00    +0.023 A 
ENDROOT
BRANCH   3   7
ATOM      7  C   LIG    1       24.192 -14.407   3.786  0.00  0.00    +0.076 A 
ATOM      8  N   LIG    1       25.557 -14.221   4.074  0.00  0.00    -0.213 N 
ATOM      9  C   LIG    1       26.230 -13.069   3.624  0.00  0.00    +0.174 A 
ATOM     10  C   LIG    1       27.531 -13.195   4.060  0.00  0.00    +0.116 A 
ATOM     11  C   LIG    1       27.574 -14.410   4.754  0.00  0.00    +0.156 A 
ATOM     12  N   LIG    1       25.598 -12.093   2.902  0.00  0.00    -0.235 NA
ATOM     13  C   LIG    1       24.339 -12.290   2.658  0.00  0.00    +0.115 A 
ATOM     14  N   LIG    1       26.397 -15.039   4.771  0.00  0.00    -0.172 NA
ATOM     15  C   LIG    1       23.535 -13.465   3.084  0.00  0.00    +0.048 A 
BRANCH  10  16
ATOM     16  C   LIG    1       28.592 -12.279   3.845  0.00  0.00    +0.104 C 
ATOM     17  N   LIG    1       29.475 -11.529   3.711  0.00  0.00    -0.191 NA
ENDBRANCH  10  16
ENDBRANCH   3   7
BRANCH   1  18
ATOM     18  N   LIG    1       23.748 -19.315   3.999  0.00  0.00    -0.272 N 
ATOM     19  C   LIG    1       22.972 -20.475   3.952  0.00  0.00    +0.217 C 
ATOM     20  O   LIG    1       23.437 -21.571   3.631  0.00  0.00    -0.276 OA
ATOM     21  C   LIG    1       21.524 -20.386   4.375  0.00  0.00    +0.110 C 
BRANCH  18  23
ATOM     22  C   LIG    1       26.019 -20.000   4.779  0.00  0.00    +0.025 C 
ATOM     23  C   LIG    1       25.172 -19.416   3.656  0.00  0.00    +0.110 C 
ENDBRANCH  18  23
ENDBRANCH   1  18
TORSDOF 4
ENDMDL
MODEL 6
REMARK VINA RESULT:       0.4      0.786      1.625
REMARK  Name = *****
REMARK                            x       y       z     vdW  Elec       q    Type
REMARK                         _______ _______ _______ _____ _____    ______ ____
ROOT
ATOM      1  C   LIG    1       22.907 -18.798   4.270  0.00  0.00    +0.037 A 
ATOM      2  C   LIG    1       23.633 -17.601   4.358  0.00  0.00    +0.033 A 
ATOM      3  C   LIG    1       23.066 -16.383   3.959  0.00  0.00    +0.002 A 
ATOM      4  C   LIG    1       21.760 -16.375   3.454  0.00  0.00    +0.010 A 
ATOM      5  C   LIG    1       21.035 -17.565   3.353  0.00  0.00    +0.002 A 
ATOM      6  C   LIG    1       21.607 -18.773   3.756  0.00  0.00    +0.023 A 
ENDROOT
BRANCH   3   7
ATOM      7  C   LIG    1       23.818 -15.125   4.108  0.00  0.00    +0.076 A 
ATOM      8  N   LIG    1       25.205 -15.052   3.875  0.00  0.00    -0.213 N 
ATOM      9  C   LIG    1       25.887 -13.829   4.017  0.00  0.00    +0.174 A 
ATOM     10  C   LIG    1       27.206 -14.094   3.717  0.00  0.00    +0.116 A 
ATOM     11  C   LIG    1       27.250 -15.460   3.415  0.00  0.00    +0.156 A 
ATOM     12  N   LIG    1       25.248 -12.677   4.386  0.00  0.00    -0.235 NA
ATOM     13  C   LIG    1       23.972 -12.778   4.600  0.00  0.00    +0.115 A 
ATOM     14  N   LIG    1       26.058 -16.050   3.505  0.00  0.00    -0.172 NA
ATOM     15  C   LIG    1       23.155 -14.014   4.480  0.00  0.00    +0.048 A 
BRANCH  10  16
ATOM     16  C   LIG    1       28.280 -13.168   3.717  0.00  0.00    +0.104 C 
ATOM     17  N   LIG    1       29.139 -12.379   3.744  0.00  0.00    -0.191 NA
ENDBRANCH  10  16
ENDBRANCH   3   7
BRANCH   1  18
ATOM     18  N   LIG    1       23.517 -20.016   4.676  0.00  0.00    -0.272 N 
ATOM     19  C   LIG    1       23.512 -20.505   5.983  0.00  0.00    +0.217 C 
ATOM     20  O   LIG    1       24.052 -21.569   6.296  0.00  0.00    -0.276 OA
ATOM     21  C   LIG    1       22.876 -19.660   7.062  0.00  0.00    +0.110 C 
BRANCH  18  23
ATOM     22  C   LIG    1       24.405 -20.035   2.342  0.00  0.00    +0.025 C 
ATOM     23  C   LIG    1       24.197 -20.804   3.640  0.00  0.00    +0.110 C 
ENDBRANCH  18  23
ENDBRANCH   1  18
TORSDOF 4
ENDMDL
