MODEL 1
REMARK VINA RESULT:      -4.9      0.000      0.000
REMARK  Name = *****
REMARK                            x       y       z     vdW  Elec       q    Type
REMARK                         _______ _______ _______ _____ _____    ______ ____
ROOT
ATOM      1  C   LIG    1       24.069 -20.383   4.781  0.00  0.00    +0.120 C 
ATOM      2  C   LIG    1       23.011 -20.043   5.855  0.00  0.00    +0.070 C 
ATOM      3  C   LIG    1       22.322 -19.111   4.833  0.00  0.00    +0.171 C 
ATOM      4  F   LIG    1       21.263 -19.659   4.186  0.00  0.00    -0.245 F 
ATOM      5  C   LIG    1       23.640 -19.104   4.027  0.00  0.00    +0.070 C 
ENDROOT
BRANCH   1   6
ATOM      6  N   LIG    1       23.598 -21.572   4.009  0.00  0.00    -0.316 NA
ATOM      7  H   LIG    1       23.878 -22.459   4.442  0.00  0.00    +0.119 HD
ATOM      8  H   LIG    1       22.574 -21.644   3.962  0.00  0.00    +0.119 HD
ENDBRANCH   1   6
BRANCH   1   9
ATOM      9  C   LIG    1       25.580 -20.507   5.213  0.00  0.00    +0.325 C 
ATOM     10  O   LIG    1       26.015 -20.875   6.298  0.00  0.00    -0.249 OA
BRANCH   9  11
ATOM     11  O   LIG    1       26.416 -20.141   4.199  0.00  0.00    -0.479 OA
ATOM     12  H   LIG    1       25.837 -19.891   3.440  0.00  0.00    +0.295 HD
ENDBRANCH   9  11
ENDBRANCH   1   9
TORSDOF 3
ENDMDL
MODEL 2
REMARK VINA RESULT:      -4.8      6.098      6.651
REMARK  Name = *****
REMARK                            x       y       z     vdW  Elec       q    Type
REMARK                         _______ _______ _______ _____ _____    ______ ____
ROOT
ATOM      1  C   LIG    1       25.717 -14.149   3.831  0.00  0.00    +0.120 C 
ATOM      2  C   LIG    1       25.454 -13.171   2.664  0.00  0.00    +0.070 C 
ATOM      3  C   LIG    1       24.000 -13.018   3.163  0.00  0.00    +0.171 C 
ATOM      4  F   LIG    1       23.773 -11.922   3.928  0.00  0.00    -0.245 F 
ATOM      5  C   LIG    1       24.187 -14.332   3.953  0.00  0.00    +0.070 C 
ENDROOT
BRANCH   1   6
ATOM      6  N   LIG    1       26.199 -13.367   5.009  0.00  0.00    -0.316 NA
ATOM      7  H   LIG    1       25.976 -13.821   5.901  0.00  0.00    +0.119 HD
ATOM      8  H   LIG    1       27.221 -13.272   5.040  0.00  0.00    +0.119 HD
ENDBRANCH   1   6
BRANCH   1   9
ATOM      9  C   LIG    1       26.590 -15.435   3.566  0.00  0.00    +0.325 C 
ATOM     10  O   LIG    1       26.215 -16.502   3.095  0.00  0.00    -0.249 OA
BRANCH   9  11
ATOM     11  O   LIG    1       27.888 -15.237   3.935  0.00  0.00    -0.479 OA
ATOM     12  H   LIG    1       28.410 -15.196   3.098  0.00  0.00    +0.295 HD
ENDBRANCH   9  11
ENDBRANCH   1   9
TORSDOF 3
ENDMDL
MODEL 3
REMARK VINA RESULT:      -4.6      1.290      1.779
REMARK  Name = *****
REMARK                            x       y       z     vdW  Elec       q    Type
REMARK                         _______ _______ _______ _____ _____    ______ ____
ROOT
ATOM      1  C   LIG    1       24.127 -20.270   4.217  0.00  0.00    +0.120 C 
ATOM      2  C   LIG    1       23.939 -20.889   5.621  0.00  0.00    +0.070 C 
ATOM      3  C   LIG    1       22.454 -20.464   5.574  0.00  0.00    +0.171 C 
ATOM      4  F   LIG    1       21.594 -21.443   5.198  0.00  0.00    -0.245 F 
ATOM      5  C   LIG    1       22.828 -19.466   4.456  0.00  0.00    +0.070 C 
ENDROOT
BRANCH   1   6
ATOM      6  N   LIG    1       23.854 -21.322   3.193  0.00  0.00    -0.316 NA
ATOM      7  H   LIG    1       23.684 -20.930   2.261  0.00  0.00    +0.119 HD
ATOM      8  H   LIG    1       24.648 -21.956   3.042  0.00  0.00    +0.119 HD
ENDBRANCH   1   6
BRANCH   1   9
ATOM      9  C   LIG    1       25.444 -19.460   3.911  0.00  0.00    +0.325 C 
ATOM     10  O   LIG    1       25.535 -18.375   3.350  0.00  0.00    -0.249 OA
BRANCH   9  11
ATOM     11  O   LIG    1       26.548 -20.125   4.357  0.00  0.00    -0.479 OA
ATOM     12  H   LIG    1       26.227 -20.986   4.717  0.00  0.00    +0.295 HD
ENDBRANCH   9  11
ENDBRANCH   1   9
TORSDOF 3
ENDMDL
MODEL 4
REMARK VINA RESULT:      -4.5      6.094      6.588
REMARK  Name = *****
REMARK                            x       y       z     vdW  Elec       q    Type
REMARK                         _______ _______ _______ _____ _____    ______ ____
ROOT
ATOM      1  C   LIG    1       26.216 -14.139   3.340  0.00  0.00    +0.120 C 
ATOM      2  C   LIG    1       25.200 -15.249   3.692  0.00  0.00    +0.070 C 
ATOM      3  C   LIG    1       24.169 -14.151   4.037  0.00  0.00    +0.171 C 
ATOM      4  F   LIG    1       23.284 -13.870   3.049  0.00  0.00    -0.245 F 
ATOM      5  C   LIG    1       25.345 -13.156   4.155  0.00  0.00    +0.070 C 
ENDROOT
BRANCH   1   6
ATOM      6  N   LIG    1       26.076 -13.809   1.890  0.00  0.00    -0.316 NA
ATOM      7  H   LIG    1       26.792 -13.152   1.564  0.00  0.00    +0.119 HD
ATOM      8  H   LIG    1       26.205 -14.623   1.275  0.00  0.00    +0.119 HD
ENDBRANCH   1   6
BRANCH   1   9
ATOM      9  C   LIG    1       27.721 -14.318   3.773  0.00  0.00    +0.325 C 
ATOM     10  O   LIG    1       28.589 -13.455   3.815  0.00  0.00    -0.249 OA
BRANCH   9  11
ATOM     11  O   LIG    1       27.986 -15.610   4.119  0.00  0.00    -0.479 OA
ATOM     12  H   LIG    1       27.905 -15.656   5.102  0.00  0.00    +0.295 HD
ENDBRANCH   9  11
ENDBRANCH   1   9
TORSDOF 3
ENDMDL
MODEL 5
REMARK VINA RESULT:      -4.4      7.277      7.672
REMARK  Name = *****
REMARK                            x       y       z     vdW  Elec       q    Type
REMARK                         _______ _______ _______ _____ _____    ______ ____
ROOT
ATOM      1  C   LIG    1       25.384 -13.736   3.700  0.00  0.00    +0.120 C 
ATOM      2  C   LIG    1       26.581 -13.762   2.723  0.00  0.00    +0.070 C 
ATOM      3  C   LIG    1       27.512 -14.045   3.923  0.00  0.00    +0.171 C 
ATOM      4  F   LIG    1       27.830 -15.352   4.101  0.00  0.00    -0.245 F 
ATOM      5  C   LIG    1       26.395 -13.518   4.850  0.00  0.00    +0.070 C 
ENDROOT
BRANCH   1   6
ATOM      6  N   LIG    1       24.829 -15.118   3.810  0.00  0.00    -0.316 NA
ATOM      7  H   LIG    1       24.201 -15.354   3.034  0.00  0.00    +0.119 HD
ATOM      8  H   LIG    1       25.550 -15.849   3.761  0.00  0.00    +0.119 HD
ENDBRANCH   1   6
BRANCH   1   9
ATOM      9  C   LIG    1       24.259 -12.651   3.498  0.00  0.00    +0.325 C 
ATOM     10  O   LIG    1       23.819 -11.873   4.336  0.00  0.00    -0.249 OA
BRANCH   9  11
ATOM     11  O   LIG    1       23.787 -12.659   2.219  0.00  0.00    -0.479 OA
ATOM     12  H   LIG    1       23.299 -13.510   2.109  0.00  0.00    +0.295 HD
ENDBRANCH   9  11
ENDBRANCH   1   9
TORSDOF 3
ENDMDL
MODEL 6
REMARK VINA RESULT:      -4.4      6.907      7.474
REMARK  Name = *****
REMARK                            x       y       z     vdW  Elec       q    Type
REMARK                         _______ _______ _______ _____ _____    ______ ____
ROOT
ATOM      1  C   LIG    1       25.683 -13.828   3.520  0.00  0.00    +0.120 C 
ATOM      2  C   LIG    1       26.500 -13.538   4.799  0.00  0.00    +0.070 C 
ATOM      3  C   LIG    1       27.593 -14.498   4.280  0.00  0.00    +0.171 C 
ATOM      4  F   LIG    1       28.638 -13.891   3.663  0.00  0.00    -0.245 F 
ATOM      5  C   LIG    1       26.539 -15.101   3.326  0.00  0.00    +0.070 C 
ENDROOT
BRANCH   1   6
ATOM      6  N   LIG    1       26.067 -12.832   2.475  0.00  0.00    -0.316 NA
ATOM      7  H   LIG    1       27.017 -12.980   2.120  0.00  0.00    +0.119 HD
ATOM      8  H   LIG    1       25.487 -12.890   1.629  0.00  0.00    +0.119 HD
ENDBRANCH   1   6
BRANCH   1   9
ATOM      9  C   LIG    1       24.121 -14.006   3.636  0.00  0.00    +0.325 C 
ATOM     10  O   LIG    1       23.511 -14.709   4.433  0.00  0.00    -0.249 OA
BRANCH   9  11
ATOM     11  O   LIG    1       23.467 -13.254   2.705  0.00  0.00    -0.479 OA
ATOM     12  H   LIG    1       24.159 -12.727   2.239  0.00  0.00    +0.295 HD
ENDBRANCH   9  11
ENDBRANCH   1   9
TORSDOF 3
ENDMDL
MODEL 7
REMARK VINA RESULT:      -4.4      6.391      6.946
REMARK  Name = *****
REMARK                            x       y       z     vdW  Elec       q    Type
REMARK                         _______ _______ _______ _____ _____    ______ ____
ROOT
ATOM      1  C   LIG    1       26.095 -13.759   3.964  0.00  0.00    +0.120 C 
ATOM      2  C   LIG    1       24.870 -12.978   3.435  0.00  0.00    +0.070 C 
ATOM      3  C   LIG    1       23.977 -14.176   3.831  0.00  0.00    +0.171 C 
ATOM      4  F   LIG    1       23.348 -14.046   5.026  0.00  0.00    -0.245 F 
ATOM      5  C   LIG    1       25.250 -15.050   3.861  0.00  0.00    +0.070 C 
ENDROOT
BRANCH   1   6
ATOM      6  N   LIG    1       26.282 -13.426   5.408  0.00  0.00    -0.316 NA
ATOM      7  H   LIG    1       26.222 -12.419   5.592  0.00  0.00    +0.119 HD
ATOM      8  H   LIG    1       25.552 -13.821   6.013  0.00  0.00    +0.119 HD
ENDBRANCH   1   6
BRANCH   1   9
ATOM      9  C   LIG    1       27.445 -13.699   3.153  0.00  0.00    +0.325 C 
ATOM     10  O   LIG    1       28.539 -13.326   3.558  0.00  0.00    -0.249 OA
BRANCH   9  11
ATOM     11  O   LIG    1       27.271 -14.131   1.871  0.00  0.00    -0.479 OA
ATOM     12  H   LIG    1       27.592 -13.402   1.288  0.00  0.00    +0.295 HD
ENDBRANCH   9  11
ENDBRANCH   1   9
TORSDOF 3
ENDMDL
MODEL 8
REMARK VINA RESULT:      -4.4      7.068      7.417
REMARK  Name = *****
REMARK                            x       y       z     vdW  Elec       q    Type
REMARK                         _______ _______ _______ _____ _____    ______ ____
ROOT
ATOM      1  C   LIG    1       27.232 -13.768   4.094  0.00  0.00    +0.120 C 
ATOM      2  C   LIG    1       26.166 -13.522   5.186  0.00  0.00    +0.070 C 
ATOM      3  C   LIG    1       25.075 -13.615   4.095  0.00  0.00    +0.171 C 
ATOM      4  F   LIG    1       24.470 -14.825   3.996  0.00  0.00    -0.245 F 
ATOM      5  C   LIG    1       26.176 -13.354   3.044  0.00  0.00    +0.070 C 
ENDROOT
BRANCH   1   6
ATOM      6  N   LIG    1       27.465 -15.239   3.980  0.00  0.00    -0.316 NA
ATOM      7  H   LIG    1       28.402 -15.515   4.294  0.00  0.00    +0.119 HD
ATOM      8  H   LIG    1       26.842 -15.795   4.579  0.00  0.00    +0.119 HD
ENDBRANCH   1   6
BRANCH   1   9
ATOM      9  C   LIG    1       28.577 -12.948   4.144  0.00  0.00    +0.325 C 
ATOM     10  O   LIG    1       29.475 -12.942   3.311  0.00  0.00    -0.249 OA
BRANCH   9  11
ATOM     11  O   LIG    1       28.656 -12.195   5.279  0.00  0.00    -0.479 OA
ATOM     12  H   LIG    1       28.172 -12.696   5.978  0.00  0.00    +0.295 HD
ENDBRANCH   9  11
ENDBRANCH   1   9
TORSDOF 3
ENDMDL
MODEL 9
REMARK VINA RESULT:      -4.3      6.860      7.123
REMARK  Name = *****
REMARK                            x       y       z     vdW  Elec       q    Type
REMARK                         _______ _______ _______ _____ _____    ______ ____
ROOT
ATOM      1  C   LIG    1       26.228 -13.744   3.672  0.00  0.00    +0.120 C 
ATOM      2  C   LIG    1       24.998 -13.466   4.565  0.00  0.00    +0.070 C 
ATOM      3  C   LIG    1       24.245 -12.961   3.315  0.00  0.00    +0.171 C 
ATOM      4  F   LIG    1       23.424 -13.873   2.737  0.00  0.00    -0.245 F 
ATOM      5  C   LIG    1       25.615 -12.791   2.621  0.00  0.00    +0.070 C 
ENDROOT
BRANCH   1   6
ATOM      6  N   LIG    1       26.136 -15.143   3.158  0.00  0.00    -0.316 NA
ATOM      7  H   LIG    1       26.144 -15.187   2.133  0.00  0.00    +0.119 HD
ATOM      8  H   LIG    1       26.938 -15.727   3.426  0.00  0.00    +0.119 HD
ENDBRANCH   1   6
BRANCH   1   9
ATOM      9  C   LIG    1       27.664 -13.400   4.224  0.00  0.00    +0.325 C 
ATOM     10  O   LIG    1       28.730 -13.487   3.626  0.00  0.00    -0.249 OA
BRANCH   9  11
ATOM     11  O   LIG    1       27.607 -12.969   5.517  0.00  0.00    -0.479 OA
ATOM     12  H   LIG    1       27.149 -12.095   5.497  0.00  0.00    +0.295 HD
ENDBRANCH   9  11
ENDBRANCH   1   9
TORSDOF 3
ENDMDL
