MODEL 1
REMARK VINA RESULT:       3.7      0.000      0.000
REMARK  Name = *****
REMARK                            x       y       z     vdW  Elec       q    Type
REMARK                         _______ _______ _______ _____ _____    ______ ____
ROOT
ATOM      1  C   LIG    1       25.466 -14.253   5.778  0.00  0.00    +0.015 C 
ATOM      2  C   LIG    1       25.438 -14.326   4.241  0.00  0.00    +0.009 C 
ATOM      3  C   LIG    1       26.110 -13.075   3.585  0.00  0.00    +0.132 C 
ATOM      4  C   LIG    1       25.557 -13.050   2.156  0.00  0.00    +0.043 C 
ATOM      5  C   LIG    1       24.203 -13.766   2.222  0.00  0.00    +0.007 C 
ATOM      6  C   LIG    1       23.998 -14.203   3.688  0.00  0.00    +0.002 C 
ATOM      7  C   LIG    1       23.096 -15.452   3.806  0.00  0.00    -0.000 C 
ATOM      8  C   LIG    1       22.345 -15.512   5.160  0.00  0.00    +0.008 C 
ATOM      9  C   LIG    1       22.434 -16.809   5.972  0.00  0.00    +0.032 C 
ATOM     10  C   LIG    1       22.635 -18.091   5.203  0.00  0.00    -0.056 C 
ATOM     11  C   LIG    1       22.834 -17.997   3.696  0.00  0.00    +0.013 C 
ATOM     12  C   LIG    1       21.450 -17.824   3.017  0.00  0.00    +0.020 C 
ATOM     13  C   LIG    1       23.372 -19.296   3.110  0.00  0.00    -0.012 C 
ATOM     14  C   LIG    1       23.483 -20.443   3.785  0.00  0.00    +0.047 C 
ATOM     15  C   LIG    1       23.110 -20.518   5.216  0.00  0.00    +0.179 C 
ATOM     16  O   LIG    1       23.130 -21.572   5.825  0.00  0.00    -0.288 OA
ATOM     17  C   LIG    1       22.748 -19.247   5.882  0.00  0.00    +0.051 C 
ATOM     18  C   LIG    1       23.784 -16.781   3.398  0.00  0.00    +0.035 C 
ATOM     19  C   LIG    1       25.204 -16.895   4.022  0.00  0.00    +0.120 C 
ATOM     20  C   LIG    1       26.070 -15.653   3.769  0.00  0.00    +0.042 C 
ENDROOT
BRANCH   3  21
ATOM     21  O   LIG    1       25.601 -11.880   4.221  0.00  0.00    -0.380 OA
ATOM     22  H   LIG    1       25.682 -12.024   5.190  0.00  0.00    +0.211 HD
ENDBRANCH   3  21
BRANCH   3  23
ATOM     23  C   LIG    1       27.643 -12.997   3.728  0.00  0.00    +0.190 C 
ATOM     24  O   LIG    1       28.362 -13.354   2.785  0.00  0.00    -0.292 OA
BRANCH  23  25
ATOM     25  C   LIG    1       28.271 -12.568   5.042  0.00  0.00    +0.233 C 
BRANCH  25  26
ATOM     26  O   LIG    1       29.425 -11.779   4.820  0.00  0.00    -0.387 OA
ATOM     27  H   LIG    1       29.127 -10.850   4.771  0.00  0.00    +0.210 HD
ENDBRANCH  25  26
ENDBRANCH  23  25
ENDBRANCH   3  23
BRANCH  19  28
ATOM     28  O   LIG    1       25.924 -18.001   3.474  0.00  0.00    -0.391 OA
ATOM     29  H   LIG    1       25.548 -18.215   2.604  0.00  0.00    +0.210 HD
ENDBRANCH  19  28
TORSDOF 5
ENDMDL
MODEL 2
REMARK VINA RESULT:       5.1      2.094      6.845
REMARK  Name = *****
REMARK                            x       y       z     vdW  Elec       q    Type
REMARK                         _______ _______ _______ _____ _____    ______ ____
ROOT
ATOM      1  C   LIG    1       25.379 -19.121   5.784  0.00  0.00    +0.015 C 
ATOM      2  C   LIG    1       24.703 -19.115   4.402  0.00  0.00    +0.009 C 
ATOM      3  C   LIG    1       24.260 -20.550   3.963  0.00  0.00    +0.132 C 
ATOM      4  C   LIG    1       24.102 -20.452   2.442  0.00  0.00    +0.043 C 
ATOM      5  C   LIG    1       25.032 -19.314   2.000  0.00  0.00    +0.007 C 
ATOM      6  C   LIG    1       25.705 -18.765   3.276  0.00  0.00    +0.002 C 
ATOM      7  C   LIG    1       26.105 -17.280   3.133  0.00  0.00    -0.000 C 
ATOM      8  C   LIG    1       27.309 -16.904   4.032  0.00  0.00    +0.008 C 
ATOM      9  C   LIG    1       27.170 -15.679   4.942  0.00  0.00    +0.032 C 
ATOM     10  C   LIG    1       26.246 -14.579   4.480  0.00  0.00    -0.056 C 
ATOM     11  C   LIG    1       25.447 -14.806   3.204  0.00  0.00    +0.013 C 
ATOM     12  C   LIG    1       26.363 -14.529   1.983  0.00  0.00    +0.020 C 
ATOM     13  C   LIG    1       24.316 -13.798   3.052  0.00  0.00    -0.012 C 
ATOM     14  C   LIG    1       24.145 -12.727   3.832  0.00  0.00    +0.047 C 
ATOM     15  C   LIG    1       25.062 -12.462   4.964  0.00  0.00    +0.179 C 
ATOM     16  O   LIG    1       24.971 -11.451   5.636  0.00  0.00    -0.288 OA
ATOM     17  C   LIG    1       26.073 -13.500   5.266  0.00  0.00    +0.051 C 
ATOM     18  C   LIG    1       24.917 -16.286   3.209  0.00  0.00    +0.035 C 
ATOM     19  C   LIG    1       23.965 -16.634   4.390  0.00  0.00    +0.120 C 
ATOM     20  C   LIG    1       23.535 -18.107   4.396  0.00  0.00    +0.042 C 
ENDROOT
BRANCH   3  21
ATOM     21  O   LIG    1       25.355 -21.468   4.183  0.00  0.00    -0.380 OA
ATOM     22  H   LIG    1       25.876 -21.486   3.351  0.00  0.00    +0.211 HD
ENDBRANCH   3  21
BRANCH   3  23
ATOM     23  C   LIG    1       23.066 -21.139   4.739  0.00  0.00    +0.190 C 
ATOM     24  O   LIG    1       21.954 -21.194   4.196  0.00  0.00    -0.292 OA
BRANCH  23  25
ATOM     25  C   LIG    1       23.226 -21.569   6.186  0.00  0.00    +0.233 C 
BRANCH  25  26
ATOM     26  O   LIG    1       23.105 -20.464   7.062  0.00  0.00    -0.387 OA
ATOM     27  H   LIG    1       23.744 -20.606   7.786  0.00  0.00    +0.210 HD
ENDBRANCH  25  26
ENDBRANCH  23  25
ENDBRANCH   3  23
BRANCH  19  28
ATOM     28  O   LIG    1       22.762 -15.867   4.329  0.00  0.00    -0.391 OA
ATOM     29  H   LIG    1       22.225 -16.069   5.113  0.00  0.00    +0.210 HD
ENDBRANCH  19  28
TORSDOF 5
ENDMDL
