MODEL 1
REMARK VINA RESULT:      -7.9      0.000      0.000
REMARK  Name = *****
REMARK                            x       y       z     vdW  Elec       q    Type
REMARK                         _______ _______ _______ _____ _____    ______ ____
ROOT
ATOM      1  C   LIG    1       29.289 -20.476   7.139  0.00  0.00    +0.119 C 
ATOM      2  N   LIG    1       28.099 -20.371   8.017  0.00  0.00    -0.330 N 
ATOM      3  H   LIG    1       28.111 -20.953   8.858  0.00  0.00    +0.147 HD
ATOM      4  C   LIG    1       26.827 -20.459   7.422  0.00  0.00    +0.133 A 
ATOM      5  C   LIG    1       26.617 -20.327   6.090  0.00  0.00    +0.126 A 
ATOM      6  N   LIG    1       25.342 -20.415   5.607  0.00  0.00    -0.315 N 
ATOM      7  H   LIG    1       25.268 -20.668   4.633  0.00  0.00    +0.170 HD
ATOM      8  C   LIG    1       24.307 -20.729   6.424  0.00  0.00    +0.195 A 
ATOM      9  N   LIG    1       24.381 -20.898   7.699  0.00  0.00    -0.176 NA
ATOM     10  N   LIG    1       27.694 -20.130   5.228  0.00  0.00    -0.327 N 
ATOM     11  H   LIG    1       27.432 -19.603   4.401  0.00  0.00    +0.147 HD
ATOM     12  C   LIG    1       25.621 -20.780   8.295  0.00  0.00    +0.297 A 
ATOM     13  O   LIG    1       25.804 -20.960   9.499  0.00  0.00    -0.264 OA
ATOM     14  C   LIG    1       29.008 -19.754   5.785  0.00  0.00    +0.128 C 
ENDROOT
BRANCH   8  15
ATOM     15  N   LIG    1       23.123 -20.849   5.772  0.00  0.00    -0.329 N 
ATOM     16  H   LIG    1       23.270 -21.241   4.845  0.00  0.00    +0.145 HD
ATOM     17  H   LIG    1       22.431 -21.388   6.278  0.00  0.00    +0.145 HD
ENDBRANCH   8  15
BRANCH   1  18
ATOM     18  C   LIG    1       30.509 -19.864   7.862  0.00  0.00    +0.164 C 
BRANCH  18  20
ATOM     19  C   LIG    1       31.582 -17.673   8.693  0.00  0.00    +0.040 C 
ATOM     20  C   LIG    1       30.296 -18.429   8.385  0.00  0.00    +0.142 C 
BRANCH  20  21
ATOM     21  O   LIG    1       29.540 -18.506   9.601  0.00  0.00    -0.389 OA
ATOM     22  H   LIG    1       28.739 -17.966   9.440  0.00  0.00    +0.210 HD
ENDBRANCH  20  21
ENDBRANCH  18  20
BRANCH  18  23
ATOM     23  O   LIG    1       31.653 -19.845   6.980  0.00  0.00    -0.387 OA
ATOM     24  H   LIG    1       32.331 -20.394   7.418  0.00  0.00    +0.210 HD
ENDBRANCH  18  23
ENDBRANCH   1  18
TORSDOF 5
ENDMDL
MODEL 2
REMARK VINA RESULT:      -7.2      2.941      5.982
REMARK  Name = *****
REMARK                            x       y       z     vdW  Elec       q    Type
REMARK                         _______ _______ _______ _____ _____    ______ ____
ROOT
ATOM      1  C   LIG    1       24.696 -22.427   6.532  0.00  0.00    +0.119 C 
ATOM      2  N   LIG    1       26.078 -22.319   7.058  0.00  0.00    -0.330 N 
ATOM      3  H   LIG    1       26.173 -22.354   8.076  0.00  0.00    +0.147 HD
ATOM      4  C   LIG    1       26.896 -21.288   6.561  0.00  0.00    +0.133 A 
ATOM      5  C   LIG    1       26.616 -20.592   5.432  0.00  0.00    +0.126 A 
ATOM      6  N   LIG    1       27.481 -19.617   5.021  0.00  0.00    -0.315 N 
ATOM      7  H   LIG    1       27.078 -18.911   4.423  0.00  0.00    +0.170 HD
ATOM      8  C   LIG    1       28.553 -19.273   5.775  0.00  0.00    +0.195 A 
ATOM      9  N   LIG    1       28.913 -19.844   6.874  0.00  0.00    -0.176 NA
ATOM     10  N   LIG    1       25.448 -20.856   4.720  0.00  0.00    -0.327 N 
ATOM     11  H   LIG    1       25.549 -20.658   3.730  0.00  0.00    +0.147 HD
ATOM     12  C   LIG    1       28.133 -20.878   7.350  0.00  0.00    +0.297 A 
ATOM     13  O   LIG    1       28.370 -21.462   8.408  0.00  0.00    -0.264 OA
ATOM     14  C   LIG    1       24.685 -22.086   5.009  0.00  0.00    +0.128 C 
ENDROOT
BRANCH   8  15
ATOM     15  N   LIG    1       29.264 -18.238   5.261  0.00  0.00    -0.329 N 
ATOM     16  H   LIG    1       28.913 -17.355   5.625  0.00  0.00    +0.145 HD
ATOM     17  H   LIG    1       30.262 -18.313   5.414  0.00  0.00    +0.145 HD
ENDBRANCH   8  15
BRANCH   1  18
ATOM     18  C   LIG    1       24.163 -23.853   6.794  0.00  0.00    +0.164 C 
BRANCH  18  20
ATOM     19  C   LIG    1       24.159 -26.316   6.037  0.00  0.00    +0.040 C 
ATOM     20  C   LIG    1       24.848 -24.959   5.967  0.00  0.00    +0.142 C 
BRANCH  20  21
ATOM     21  O   LIG    1       26.182 -25.126   6.464  0.00  0.00    -0.389 OA
ATOM     22  H   LIG    1       26.242 -26.068   6.725  0.00  0.00    +0.210 HD
ENDBRANCH  20  21
ENDBRANCH  18  20
BRANCH  18  23
ATOM     23  O   LIG    1       22.746 -23.913   6.521  0.00  0.00    -0.387 OA
ATOM     24  H   LIG    1       22.308 -23.610   7.340  0.00  0.00    +0.210 HD
ENDBRANCH  18  23
ENDBRANCH   1  18
TORSDOF 5
ENDMDL
MODEL 3
REMARK VINA RESULT:      -7.0      2.327      5.736
REMARK  Name = *****
REMARK                            x       y       z     vdW  Elec       q    Type
REMARK                         _______ _______ _______ _____ _____    ______ ____
ROOT
ATOM      1  C   LIG    1       25.088 -20.660   5.855  0.00  0.00    +0.119 C 
ATOM      2  N   LIG    1       26.093 -21.293   6.743  0.00  0.00    -0.330 N 
ATOM      3  H   LIG    1       25.803 -21.440   7.713  0.00  0.00    +0.147 HD
ATOM      4  C   LIG    1       27.402 -20.779   6.733  0.00  0.00    +0.133 A 
ATOM      5  C   LIG    1       27.875 -19.962   5.761  0.00  0.00    +0.126 A 
ATOM      6  N   LIG    1       29.168 -19.525   5.831  0.00  0.00    -0.315 N 
ATOM      7  H   LIG    1       29.361 -18.674   5.324  0.00  0.00    +0.170 HD
ATOM      8  C   LIG    1       29.944 -19.814   6.903  0.00  0.00    +0.195 A 
ATOM      9  N   LIG    1       29.604 -20.561   7.897  0.00  0.00    -0.176 NA
ATOM     10  N   LIG    1       27.041 -19.558   4.721  0.00  0.00    -0.327 N 
ATOM     11  H   LIG    1       27.555 -19.371   3.866  0.00  0.00    +0.147 HD
ATOM     12  C   LIG    1       28.332 -21.096   7.898  0.00  0.00    +0.297 A 
ATOM     13  O   LIG    1       27.899 -21.790   8.818  0.00  0.00    -0.264 OA
ATOM     14  C   LIG    1       25.760 -20.257   4.506  0.00  0.00    +0.128 C 
ENDROOT
BRANCH   8  15
ATOM     15  N   LIG    1       31.173 -19.241   6.848  0.00  0.00    -0.329 N 
ATOM     16  H   LIG    1       31.896 -19.957   6.869  0.00  0.00    +0.145 HD
ATOM     17  H   LIG    1       31.303 -18.630   6.051  0.00  0.00    +0.145 HD
ENDBRANCH   8  15
BRANCH   1  18
ATOM     18  C   LIG    1       23.917 -21.642   5.632  0.00  0.00    +0.164 C 
BRANCH  18  20
ATOM     19  C   LIG    1       22.426 -23.498   6.619  0.00  0.00    +0.040 C 
ATOM     20  C   LIG    1       23.565 -22.514   6.854  0.00  0.00    +0.142 C 
BRANCH  20  21
ATOM     21  O   LIG    1       23.171 -21.645   7.923  0.00  0.00    -0.389 OA
ATOM     22  H   LIG    1       22.796 -22.235   8.608  0.00  0.00    +0.210 HD
ENDBRANCH  20  21
ENDBRANCH  18  20
BRANCH  18  23
ATOM     23  O   LIG    1       24.213 -22.528   4.530  0.00  0.00    -0.387 OA
ATOM     24  H   LIG    1       24.600 -23.329   4.933  0.00  0.00    +0.210 HD
ENDBRANCH  18  23
ENDBRANCH   1  18
TORSDOF 5
ENDMDL
MODEL 4
REMARK VINA RESULT:      -6.8      2.466      6.039
REMARK  Name = *****
REMARK                            x       y       z     vdW  Elec       q    Type
REMARK                         _______ _______ _______ _____ _____    ______ ____
ROOT
ATOM      1  C   LIG    1       26.322 -21.606   6.247  0.00  0.00    +0.119 C 
ATOM      2  N   LIG    1       26.913 -20.295   5.884  0.00  0.00    -0.330 N 
ATOM      3  H   LIG    1       26.895 -20.057   4.890  0.00  0.00    +0.147 HD
ATOM      4  C   LIG    1       28.179 -19.973   6.405  0.00  0.00    +0.133 A 
ATOM      5  C   LIG    1       28.748 -20.634   7.443  0.00  0.00    +0.126 A 
ATOM      6  N   LIG    1       29.977 -20.237   7.889  0.00  0.00    -0.315 N 
ATOM      7  H   LIG    1       30.501 -20.942   8.386  0.00  0.00    +0.170 HD
ATOM      8  C   LIG    1       30.672 -19.266   7.247  0.00  0.00    +0.195 A 
ATOM      9  N   LIG    1       30.249 -18.580   6.241  0.00  0.00    -0.176 NA
ATOM     10  N   LIG    1       28.093 -21.717   8.026  0.00  0.00    -0.327 N 
ATOM     11  H   LIG    1       28.333 -21.828   9.006  0.00  0.00    +0.147 HD
ATOM     12  C   LIG    1       28.994 -18.869   5.744  0.00  0.00    +0.297 A 
ATOM     13  O   LIG    1       28.515 -18.298   4.764  0.00  0.00    -0.264 OA
ATOM     14  C   LIG    1       26.666 -21.945   7.730  0.00  0.00    +0.128 C 
ENDROOT
BRANCH   8  15
ATOM     15  N   LIG    1       31.903 -19.047   7.773  0.00  0.00    -0.329 N 
ATOM     16  H   LIG    1       32.157 -19.806   8.401  0.00  0.00    +0.145 HD
ATOM     17  H   LIG    1       32.626 -18.908   7.077  0.00  0.00    +0.145 HD
ENDBRANCH   8  15
BRANCH   1  18
ATOM     18  C   LIG    1       24.795 -21.556   6.018  0.00  0.00    +0.164 C 
BRANCH  18  20
ATOM     19  C   LIG    1       22.912 -23.132   6.800  0.00  0.00    +0.040 C 
ATOM     20  C   LIG    1       23.950 -22.088   7.193  0.00  0.00    +0.142 C 
BRANCH  20  21
ATOM     21  O   LIG    1       23.249 -20.981   7.776  0.00  0.00    -0.389 OA
ATOM     22  H   LIG    1       23.287 -20.272   7.103  0.00  0.00    +0.210 HD
ENDBRANCH  20  21
ENDBRANCH  18  20
BRANCH  18  23
ATOM     23  O   LIG    1       24.442 -22.316   4.842  0.00  0.00    -0.387 OA
ATOM     24  H   LIG    1       23.625 -22.797   5.076  0.00  0.00    +0.210 HD
ENDBRANCH  18  23
ENDBRANCH   1  18
TORSDOF 5
ENDMDL
MODEL 5
REMARK VINA RESULT:      -6.8      2.612      6.024
REMARK  Name = *****
REMARK                            x       y       z     vdW  Elec       q    Type
REMARK                         _______ _______ _______ _____ _____    ______ ____
ROOT
ATOM      1  C   LIG    1       26.591 -20.754   5.572  0.00  0.00    +0.119 C 
ATOM      2  N   LIG    1       27.702 -19.783   5.725  0.00  0.00    -0.330 N 
ATOM      3  H   LIG    1       28.113 -19.434   4.856  0.00  0.00    +0.147 HD
ATOM      4  C   LIG    1       28.738 -20.098   6.623  0.00  0.00    +0.133 A 
ATOM      5  C   LIG    1       28.637 -21.064   7.568  0.00  0.00    +0.126 A 
ATOM      6  N   LIG    1       29.694 -21.287   8.406  0.00  0.00    -0.315 N 
ATOM      7  H   LIG    1       29.723 -22.205   8.825  0.00  0.00    +0.170 HD
ATOM      8  C   LIG    1       30.867 -20.629   8.238  0.00  0.00    +0.195 A 
ATOM      9  N   LIG    1       31.092 -19.706   7.367  0.00  0.00    -0.176 NA
ATOM     10  N   LIG    1       27.478 -21.832   7.662  0.00  0.00    -0.327 N 
ATOM     11  H   LIG    1       27.310 -22.159   8.609  0.00  0.00    +0.147 HD
ATOM     12  C   LIG    1       30.070 -19.369   6.504  0.00  0.00    +0.297 A 
ATOM     13  O   LIG    1       30.197 -18.529   5.613  0.00  0.00    -0.264 OA
ATOM     14  C   LIG    1       26.259 -21.393   6.957  0.00  0.00    +0.128 C 
ENDROOT
BRANCH   8  15
ATOM     15  N   LIG    1       31.833 -21.022   9.105  0.00  0.00    -0.329 N 
ATOM     16  H   LIG    1       31.536 -21.854   9.610  0.00  0.00    +0.145 HD
ATOM     17  H   LIG    1       32.735 -21.176   8.669  0.00  0.00    +0.145 HD
ENDBRANCH   8  15
BRANCH   1  18
ATOM     18  C   LIG    1       25.364 -20.032   4.975  0.00  0.00    +0.164 C 
BRANCH  18  20
ATOM     19  C   LIG    1       22.981 -20.923   5.387  0.00  0.00    +0.040 C 
ATOM     20  C   LIG    1       24.228 -20.967   4.513  0.00  0.00    +0.142 C 
BRANCH  20  21
ATOM     21  O   LIG    1       24.722 -22.312   4.533  0.00  0.00    -0.389 OA
ATOM     22  H   LIG    1       24.801 -22.542   5.482  0.00  0.00    +0.210 HD
ENDBRANCH  20  21
ENDBRANCH  18  20
BRANCH  18  23
ATOM     23  O   LIG    1       25.761 -19.229   3.842  0.00  0.00    -0.387 OA
ATOM     24  H   LIG    1       24.948 -18.781   3.540  0.00  0.00    +0.210 HD
ENDBRANCH  18  23
ENDBRANCH   1  18
TORSDOF 5
ENDMDL
MODEL 6
REMARK VINA RESULT:      -6.8      2.057      2.714
REMARK  Name = *****
REMARK                            x       y       z     vdW  Elec       q    Type
REMARK                         _______ _______ _______ _____ _____    ______ ____
ROOT
ATOM      1  C   LIG    1       28.254 -19.904   6.858  0.00  0.00    +0.119 C 
ATOM      2  N   LIG    1       27.395 -20.075   5.661  0.00  0.00    -0.330 N 
ATOM      3  H   LIG    1       27.192 -19.224   5.132  0.00  0.00    +0.147 HD
ATOM      4  C   LIG    1       26.209 -20.819   5.799  0.00  0.00    +0.133 A 
ATOM      5  C   LIG    1       25.958 -21.634   6.852  0.00  0.00    +0.126 A 
ATOM      6  N   LIG    1       24.781 -22.327   6.889  0.00  0.00    -0.315 N 
ATOM      7  H   LIG    1       24.482 -22.617   7.809  0.00  0.00    +0.170 HD
ATOM      8  C   LIG    1       23.828 -22.135   5.945  0.00  0.00    +0.195 A 
ATOM      9  N   LIG    1       23.939 -21.375   4.909  0.00  0.00    -0.176 NA
ATOM     10  N   LIG    1       26.880 -21.738   7.891  0.00  0.00    -0.327 N 
ATOM     11  H   LIG    1       26.845 -22.644   8.346  0.00  0.00    +0.147 HD
ATOM     12  C   LIG    1       25.114 -20.667   4.751  0.00  0.00    +0.297 A 
ATOM     13  O   LIG    1       25.303 -19.887   3.818  0.00  0.00    -0.264 OA
ATOM     14  C   LIG    1       28.248 -21.218   7.700  0.00  0.00    +0.128 C 
ENDROOT
BRANCH   8  15
ATOM     15  N   LIG    1       22.694 -22.844   6.171  0.00  0.00    -0.329 N 
ATOM     16  H   LIG    1       22.835 -23.821   5.925  0.00  0.00    +0.145 HD
ATOM     17  H   LIG    1       22.346 -22.766   7.120  0.00  0.00    +0.145 HD
ENDBRANCH   8  15
BRANCH   1  18
ATOM     18  C   LIG    1       29.683 -19.529   6.408  0.00  0.00    +0.164 C 
BRANCH  18  20
ATOM     19  C   LIG    1       30.550 -18.122   8.385  0.00  0.00    +0.040 C 
ATOM     20  C   LIG    1       30.704 -19.390   7.555  0.00  0.00    +0.142 C 
BRANCH  20  21
ATOM     21  O   LIG    1       32.018 -19.374   6.983  0.00  0.00    -0.389 OA
ATOM     22  H   LIG    1       32.367 -20.279   7.117  0.00  0.00    +0.210 HD
ENDBRANCH  20  21
ENDBRANCH  18  20
BRANCH  18  23
ATOM     23  O   LIG    1       29.665 -18.282   5.681  0.00  0.00    -0.387 OA
ATOM     24  H   LIG    1       29.714 -18.528   4.737  0.00  0.00    +0.210 HD
ENDBRANCH  18  23
ENDBRANCH   1  18
TORSDOF 5
ENDMDL
MODEL 7
REMARK VINA RESULT:      -6.7      2.469      6.029
REMARK  Name = *****
REMARK                            x       y       z     vdW  Elec       q    Type
REMARK                         _______ _______ _______ _____ _____    ______ ____
ROOT
ATOM      1  C   LIG    1       26.112 -21.519   6.524  0.00  0.00    +0.119 C 
ATOM      2  N   LIG    1       26.731 -20.246   6.080  0.00  0.00    -0.330 N 
ATOM      3  H   LIG    1       26.638 -20.027   5.085  0.00  0.00    +0.147 HD
ATOM      4  C   LIG    1       28.052 -19.977   6.483  0.00  0.00    +0.133 A 
ATOM      5  C   LIG    1       28.677 -20.645   7.483  0.00  0.00    +0.126 A 
ATOM      6  N   LIG    1       29.958 -20.302   7.811  0.00  0.00    -0.315 N 
ATOM      7  H   LIG    1       30.489 -21.021   8.278  0.00  0.00    +0.170 HD
ATOM      8  C   LIG    1       30.640 -19.379   7.089  0.00  0.00    +0.195 A 
ATOM      9  N   LIG    1       30.164 -18.693   6.107  0.00  0.00    -0.176 NA
ATOM     10  N   LIG    1       28.024 -21.682   8.146  0.00  0.00    -0.327 N 
ATOM     11  H   LIG    1       28.343 -21.786   9.104  0.00  0.00    +0.147 HD
ATOM     12  C   LIG    1       28.858 -18.928   5.727  0.00  0.00    +0.297 A 
ATOM     13  O   LIG    1       28.323 -18.354   4.779  0.00  0.00    -0.264 OA
ATOM     14  C   LIG    1       26.567 -21.844   7.980  0.00  0.00    +0.128 C 
ENDROOT
BRANCH   8  15
ATOM     15  N   LIG    1       31.921 -19.212   7.502  0.00  0.00    -0.329 N 
ATOM     16  H   LIG    1       31.948 -19.040   8.504  0.00  0.00    +0.145 HD
ATOM     17  H   LIG    1       32.532 -19.982   7.258  0.00  0.00    +0.145 HD
ENDBRANCH   8  15
BRANCH   1  18
ATOM     18  C   LIG    1       24.575 -21.397   6.427  0.00  0.00    +0.164 C 
BRANCH  18  20
ATOM     19  C   LIG    1       22.757 -19.872   5.422  0.00  0.00    +0.040 C 
ATOM     20  C   LIG    1       24.067 -20.617   5.198  0.00  0.00    +0.142 C 
BRANCH  20  21
ATOM     21  O   LIG    1       23.853 -21.553   4.133  0.00  0.00    -0.389 OA
ATOM     22  H   LIG    1       24.313 -22.370   4.414  0.00  0.00    +0.210 HD
ENDBRANCH  20  21
ENDBRANCH  18  20
BRANCH  18  23
ATOM     23  O   LIG    1       24.052 -20.749   7.606  0.00  0.00    -0.387 OA
ATOM     24  H   LIG    1       23.666 -19.908   7.295  0.00  0.00    +0.210 HD
ENDBRANCH  18  23
ENDBRANCH   1  18
TORSDOF 5
ENDMDL
MODEL 8
REMARK VINA RESULT:      -6.6      4.845      5.982
REMARK  Name = *****
REMARK                            x       y       z     vdW  Elec       q    Type
REMARK                         _______ _______ _______ _____ _____    ______ ____
ROOT
ATOM      1  C   LIG    1       25.299 -22.872   6.443  0.00  0.00    +0.119 C 
ATOM      2  N   LIG    1       26.140 -24.093   6.493  0.00  0.00    -0.330 N 
ATOM      3  H   LIG    1       27.051 -24.027   6.034  0.00  0.00    +0.147 HD
ATOM      4  C   LIG    1       25.545 -25.320   6.149  0.00  0.00    +0.133 A 
ATOM      5  C   LIG    1       24.204 -25.504   6.074  0.00  0.00    +0.126 A 
ATOM      6  N   LIG    1       23.720 -26.739   5.744  0.00  0.00    -0.315 N 
ATOM      7  H   LIG    1       22.789 -26.746   5.357  0.00  0.00    +0.170 HD
ATOM      8  C   LIG    1       24.558 -27.746   5.397  0.00  0.00    +0.195 A 
ATOM      9  N   LIG    1       25.846 -27.690   5.409  0.00  0.00    -0.176 NA
ATOM     10  N   LIG    1       23.338 -24.438   6.306  0.00  0.00    -0.327 N 
ATOM     11  H   LIG    1       22.444 -24.743   6.677  0.00  0.00    +0.147 HD
ATOM     12  C   LIG    1       26.437 -26.498   5.778  0.00  0.00    +0.297 A 
ATOM     13  O   LIG    1       27.657 -26.331   5.785  0.00  0.00    -0.264 OA
ATOM     14  C   LIG    1       23.857 -23.207   6.934  0.00  0.00    +0.128 C 
ENDROOT
BRANCH   8  15
ATOM     15  N   LIG    1       23.913 -28.880   5.027  0.00  0.00    -0.329 N 
ATOM     16  H   LIG    1       24.274 -29.676   5.547  0.00  0.00    +0.145 HD
ATOM     17  H   LIG    1       22.905 -28.825   5.119  0.00  0.00    +0.145 HD
ENDBRANCH   8  15
BRANCH   1  18
ATOM     18  C   LIG    1       25.950 -21.772   7.311  0.00  0.00    +0.164 C 
BRANCH  18  20
ATOM     19  C   LIG    1       28.030 -20.313   7.742  0.00  0.00    +0.040 C 
ATOM     20  C   LIG    1       27.308 -21.261   6.792  0.00  0.00    +0.142 C 
BRANCH  20  21
ATOM     21  O   LIG    1       27.080 -20.552   5.567  0.00  0.00    -0.389 OA
ATOM     22  H   LIG    1       26.281 -20.009   5.730  0.00  0.00    +0.210 HD
ENDBRANCH  20  21
ENDBRANCH  18  20
BRANCH  18  23
ATOM     23  O   LIG    1       26.145 -22.252   8.659  0.00  0.00    -0.387 OA
ATOM     24  H   LIG    1       26.330 -23.207   8.573  0.00  0.00    +0.210 HD
ENDBRANCH  18  23
ENDBRANCH   1  18
TORSDOF 5
ENDMDL
MODEL 9
REMARK VINA RESULT:      -6.6      2.045      3.019
REMARK  Name = *****
REMARK                            x       y       z     vdW  Elec       q    Type
REMARK                         _______ _______ _______ _____ _____    ______ ____
ROOT
ATOM      1  C   LIG    1       27.153 -20.427   7.595  0.00  0.00    +0.119 C 
ATOM      2  N   LIG    1       26.772 -20.509   6.163  0.00  0.00    -0.330 N 
ATOM      3  H   LIG    1       27.100 -19.743   5.570  0.00  0.00    +0.147 HD
ATOM      4  C   LIG    1       25.428 -20.783   5.850  0.00  0.00    +0.133 A 
ATOM      5  C   LIG    1       24.539 -21.273   6.748  0.00  0.00    +0.126 A 
ATOM      6  N   LIG    1       23.257 -21.521   6.345  0.00  0.00    -0.315 N 
ATOM      7  H   LIG    1       22.569 -21.531   7.083  0.00  0.00    +0.170 HD
ATOM      8  C   LIG    1       22.842 -21.191   5.097  0.00  0.00    +0.195 A 
ATOM      9  N   LIG    1       23.585 -20.702   4.164  0.00  0.00    -0.176 NA
ATOM     10  N   LIG    1       24.927 -21.495   8.067  0.00  0.00    -0.327 N 
ATOM     11  H   LIG    1       24.399 -22.245   8.502  0.00  0.00    +0.147 HD
ATOM     12  C   LIG    1       24.912 -20.461   4.454  0.00  0.00    +0.297 A 
ATOM     13  O   LIG    1       25.694 -19.962   3.644  0.00  0.00    -0.264 OA
ATOM     14  C   LIG    1       26.362 -21.498   8.409  0.00  0.00    +0.128 C 
ENDROOT
BRANCH   8  15
ATOM     15  N   LIG    1       21.524 -21.434   4.886  0.00  0.00    -0.329 N 
ATOM     16  H   LIG    1       21.275 -21.211   3.925  0.00  0.00    +0.145 HD
ATOM     17  H   LIG    1       21.242 -22.381   5.114  0.00  0.00    +0.145 HD
ENDBRANCH   8  15
BRANCH   1  18
ATOM     18  C   LIG    1       28.678 -20.630   7.727  0.00  0.00    +0.164 C 
BRANCH  18  20
ATOM     19  C   LIG    1       30.422 -18.991   6.771  0.00  0.00    +0.040 C 
ATOM     20  C   LIG    1       29.486 -19.332   7.924  0.00  0.00    +0.142 C 
BRANCH  20  21
ATOM     21  O   LIG    1       30.290 -19.481   9.101  0.00  0.00    -0.389 OA
ATOM     22  H   LIG    1       30.163 -18.652   9.605  0.00  0.00    +0.210 HD
ENDBRANCH  20  21
ENDBRANCH  18  20
BRANCH  18  23
ATOM     23  O   LIG    1       29.195 -21.297   6.555  0.00  0.00    -0.387 OA
ATOM     24  H   LIG    1       28.627 -22.081   6.427  0.00  0.00    +0.210 HD
ENDBRANCH  18  23
ENDBRANCH   1  18
TORSDOF 5
ENDMDL
