MODEL 1
REMARK VINA RESULT:       1.3      0.000      0.000
REMARK  Name = *****
REMARK                            x       y       z     vdW  Elec       q    Type
REMARK                         _______ _______ _______ _____ _____    ______ ____
ROOT
ATOM      1  C   LIG    1       24.884 -18.605   3.274  0.00  0.00    +0.112 C 
ATOM      2  C   LIG    1       26.308 -18.639   2.659  0.00  0.00    +0.111 C 
ATOM      3  N   LIG    1       27.316 -17.775   3.318  0.00  0.00    -0.296 NA
ATOM      4  C   LIG    1       27.690 -18.302   4.629  0.00  0.00    +0.105 C 
ATOM      5  C   LIG    1       26.860 -16.350   3.345  0.00  0.00    +0.091 C 
ATOM      6  C   LIG    1       25.342 -16.167   3.669  0.00  0.00    -0.024 C 
ATOM      7  C   LIG    1       24.872 -14.814   4.056  0.00  0.00    -0.011 C 
ATOM      8  C   LIG    1       25.885 -13.938   4.469  0.00  0.00    +0.010 C 
ATOM      9  C   LIG    1       25.601 -12.662   4.934  0.00  0.00    +0.047 C 
ATOM     10  N   LIG    1       26.807 -12.102   5.295  0.00  0.00    -0.360 NA
ATOM     11  H   LIG    1       26.916 -11.181   5.695  0.00  0.00    +0.165 HD
ATOM     12  C   LIG    1       27.834 -12.984   5.050  0.00  0.00    +0.087 C 
ATOM     13  C   LIG    1       24.296 -12.172   4.984  0.00  0.00    +0.026 C 
ATOM     14  C   LIG    1       23.281 -13.027   4.534  0.00  0.00    +0.003 C 
ATOM     15  C   LIG    1       27.281 -14.129   4.525  0.00  0.00    -0.020 C 
ATOM     16  C   LIG    1       23.559 -14.324   4.080  0.00  0.00    +0.009 C 
ATOM     17  C   LIG    1       27.882 -15.425   4.118  0.00  0.00    +0.060 C 
ATOM     18  C   LIG    1       24.474 -17.198   3.613  0.00  0.00    +0.002 C 
ENDROOT
BRANCH   1  21
ATOM     19  N   LIG    1       23.888 -20.743   6.143  0.00  0.00    -0.286 N 
ATOM     20  C   LIG    1       23.778 -20.201   4.855  0.00  0.00    +0.303 C 
ATOM     21  N   LIG    1       24.775 -19.318   4.533  0.00  0.00    -0.292 N 
ATOM     22  H   LIG    1       25.510 -19.139   5.188  0.00  0.00    +0.151 HD
ATOM     23  O   LIG    1       22.866 -20.462   4.082  0.00  0.00    -0.253 OA
BRANCH  19  25
ATOM     24  C   LIG    1       26.132 -21.494   6.952  0.00  0.00    +0.024 C 
ATOM     25  C   LIG    1       24.998 -20.486   7.057  0.00  0.00    +0.106 C 
ENDBRANCH  19  25
BRANCH  19  26
ATOM     26  C   LIG    1       22.784 -21.561   6.666  0.00  0.00    +0.106 C 
ATOM     27  C   LIG    1       21.577 -21.572   5.738  0.00  0.00    +0.024 C 
ENDBRANCH  19  26
ENDBRANCH   1  21
TORSDOF 3
ENDMDL
MODEL 2
REMARK VINA RESULT:       3.7      0.945      1.758
REMARK  Name = *****
REMARK                            x       y       z     vdW  Elec       q    Type
REMARK                         _______ _______ _______ _____ _____    ______ ____
ROOT
ATOM      1  C   LIG    1       24.261 -18.640   3.329  0.00  0.00    +0.112 C 
ATOM      2  C   LIG    1       25.626 -18.818   2.614  0.00  0.00    +0.111 C 
ATOM      3  N   LIG    1       26.761 -18.061   3.195  0.00  0.00    -0.296 NA
ATOM      4  C   LIG    1       27.173 -18.625   4.479  0.00  0.00    +0.105 C 
ATOM      5  C   LIG    1       26.455 -16.597   3.246  0.00  0.00    +0.091 C 
ATOM      6  C   LIG    1       24.990 -16.261   3.676  0.00  0.00    -0.024 C 
ATOM      7  C   LIG    1       24.689 -14.868   4.087  0.00  0.00    -0.011 C 
ATOM      8  C   LIG    1       25.812 -14.099   4.422  0.00  0.00    +0.010 C 
ATOM      9  C   LIG    1       25.693 -12.803   4.898  0.00  0.00    +0.047 C 
ATOM     10  N   LIG    1       26.972 -12.368   5.169  0.00  0.00    -0.360 NA
ATOM     11  H   LIG    1       27.202 -11.463   5.555  0.00  0.00    +0.165 HD
ATOM     12  C   LIG    1       27.884 -13.350   4.857  0.00  0.00    +0.087 C 
ATOM     13  C   LIG    1       24.451 -12.182   5.039  0.00  0.00    +0.026 C 
ATOM     14  C   LIG    1       23.325 -12.929   4.667  0.00  0.00    +0.003 C 
ATOM     15  C   LIG    1       27.182 -14.432   4.380  0.00  0.00    -0.020 C 
ATOM     16  C   LIG    1       23.437 -14.247   4.202  0.00  0.00    +0.009 C 
ATOM     17  C   LIG    1       27.618 -15.781   3.938  0.00  0.00    +0.060 C 
ATOM     18  C   LIG    1       24.020 -17.198   3.688  0.00  0.00    +0.002 C 
ENDROOT
BRANCH   1  21
ATOM     19  N   LIG    1       24.840 -20.645   6.401  0.00  0.00    -0.286 N 
ATOM     20  C   LIG    1       25.189 -20.043   5.184  0.00  0.00    +0.303 C 
ATOM     21  N   LIG    1       24.170 -19.339   4.597  0.00  0.00    -0.292 N 
ATOM     22  H   LIG    1       23.285 -19.269   5.059  0.00  0.00    +0.151 HD
ATOM     23  O   LIG    1       26.292 -20.145   4.665  0.00  0.00    -0.253 OA
BRANCH  19  25
ATOM     24  C   LIG    1       22.483 -21.460   6.577  0.00  0.00    +0.024 C 
ATOM     25  C   LIG    1       23.548 -20.488   7.062  0.00  0.00    +0.106 C 
ENDBRANCH  19  25
BRANCH  19  26
ATOM     26  C   LIG    1       25.792 -21.571   7.033  0.00  0.00    +0.106 C 
ATOM     27  C   LIG    1       27.210 -21.019   7.062  0.00  0.00    +0.024 C 
ENDBRANCH  19  26
ENDBRANCH   1  21
TORSDOF 3
ENDMDL
