MODEL 1
REMARK VINA RESULT:      -8.8      0.000      0.000
REMARK  Name = *****
REMARK                            x       y       z     vdW  Elec       q    Type
REMARK                         _______ _______ _______ _____ _____    ______ ____
ROOT
ATOM      1  C   LIG    1       23.984 -19.361   3.878  0.00  0.00    +0.155 C 
ATOM      2  N   LIG    1       24.381 -20.338   4.876  0.00  0.00    -0.280 N 
ATOM      3  C   LIG    1       23.439 -21.212   5.419  0.00  0.00    +0.333 C 
ATOM      4  O   LIG    1       22.256 -21.197   5.065  0.00  0.00    -0.246 OA
ATOM      5  N   LIG    1       23.888 -22.112   6.402  0.00  0.00    -0.262 N 
ATOM      6  C   LIG    1       22.914 -23.051   6.920  0.00  0.00    +0.157 C 
ATOM      7  C   LIG    1       25.152 -22.091   6.997  0.00  0.00    +0.282 C 
ATOM      8  O   LIG    1       25.461 -22.772   7.971  0.00  0.00    -0.265 OA
ATOM      9  C   LIG    1       26.048 -21.186   6.369  0.00  0.00    +0.151 A 
ATOM     10  N   LIG    1       27.366 -20.907   6.581  0.00  0.00    -0.321 N 
ATOM     11  C   LIG    1       27.717 -19.928   5.682  0.00  0.00    +0.202 A 
ATOM     12  N   LIG    1       26.697 -19.573   4.928  0.00  0.00    -0.218 NA
ATOM     13  C   LIG    1       25.670 -20.356   5.355  0.00  0.00    +0.168 A 
ENDROOT
BRANCH  10  14
ATOM     14  C   LIG    1       28.234 -21.440   7.614  0.00  0.00    +0.164 C 
BRANCH  14  15
ATOM     15  C   LIG    1       29.623 -20.801   7.678  0.00  0.00    +0.254 C 
BRANCH  15  16
ATOM     16  O   LIG    1       29.696 -19.633   8.512  0.00  0.00    -0.459 OA
BRANCH  16  17
ATOM     17  C   LIG    1       30.376 -18.581   8.003  0.00  0.00    +0.341 C 
ATOM     18  O   LIG    1       30.564 -18.351   6.822  0.00  0.00    -0.245 OA
BRANCH  17  19
ATOM     19  C   LIG    1       30.886 -17.741   9.098  0.00  0.00    +0.077 A 
ATOM     20  C   LIG    1       30.033 -17.437  10.149  0.00  0.00    +0.125 A 
ATOM     21  N   LIG    1       30.404 -16.709  11.230  0.00  0.00    -0.262 NA
ATOM     22  C   LIG    1       31.685 -16.280  11.264  0.00  0.00    +0.111 A 
ATOM     23  C   LIG    1       32.610 -16.534  10.263  0.00  0.00    +0.020 A 
ATOM     24  C   LIG    1       32.202 -17.274   9.155  0.00  0.00    +0.018 A 
ENDBRANCH  17  19
ENDBRANCH  16  17
ENDBRANCH  15  16
ENDBRANCH  14  15
ENDBRANCH  10  14
TORSDOF 5
ENDMDL
MODEL 2
REMARK VINA RESULT:      -8.6      1.291      2.368
REMARK  Name = *****
REMARK                            x       y       z     vdW  Elec       q    Type
REMARK                         _______ _______ _______ _____ _____    ______ ____
ROOT
ATOM      1  C   LIG    1       22.838 -23.074   6.864  0.00  0.00    +0.155 C 
ATOM      2  N   LIG    1       23.594 -21.992   6.260  0.00  0.00    -0.280 N 
ATOM      3  C   LIG    1       22.999 -21.161   5.310  0.00  0.00    +0.333 C 
ATOM      4  O   LIG    1       21.822 -21.305   4.965  0.00  0.00    -0.246 OA
ATOM      5  N   LIG    1       23.800 -20.153   4.746  0.00  0.00    -0.262 N 
ATOM      6  C   LIG    1       23.157 -19.262   3.801  0.00  0.00    +0.157 C 
ATOM      7  C   LIG    1       25.178 -20.018   4.933  0.00  0.00    +0.282 C 
ATOM      8  O   LIG    1       25.882 -19.239   4.297  0.00  0.00    -0.265 OA
ATOM      9  C   LIG    1       25.692 -20.889   5.929  0.00  0.00    +0.151 A 
ATOM     10  N   LIG    1       26.940 -21.037   6.461  0.00  0.00    -0.321 N 
ATOM     11  C   LIG    1       26.862 -22.049   7.388  0.00  0.00    +0.202 A 
ATOM     12  N   LIG    1       25.645 -22.549   7.460  0.00  0.00    -0.218 NA
ATOM     13  C   LIG    1       24.926 -21.825   6.559  0.00  0.00    +0.168 A 
ENDROOT
BRANCH  10  14
ATOM     14  C   LIG    1       28.159 -20.353   6.076  0.00  0.00    +0.164 C 
BRANCH  14  15
ATOM     15  C   LIG    1       29.262 -20.361   7.136  0.00  0.00    +0.254 C 
BRANCH  15  16
ATOM     16  O   LIG    1       29.669 -19.053   7.573  0.00  0.00    -0.459 OA
BRANCH  16  17
ATOM     17  C   LIG    1       30.977 -18.911   7.882  0.00  0.00    +0.341 C 
ATOM     18  O   LIG    1       31.908 -19.493   7.353  0.00  0.00    -0.245 OA
BRANCH  17  19
ATOM     19  C   LIG    1       31.127 -17.950   8.985  0.00  0.00    +0.077 A 
ATOM     20  C   LIG    1       30.123 -17.880   9.941  0.00  0.00    +0.125 A 
ATOM     21  N   LIG    1       30.171 -17.065  11.021  0.00  0.00    -0.262 NA
ATOM     22  C   LIG    1       31.275 -16.297  11.156  0.00  0.00    +0.111 A 
ATOM     23  C   LIG    1       32.329 -16.297  10.254  0.00  0.00    +0.020 A 
ATOM     24  C   LIG    1       32.251 -17.135   9.144  0.00  0.00    +0.018 A 
ENDBRANCH  17  19
ENDBRANCH  16  17
ENDBRANCH  15  16
ENDBRANCH  14  15
ENDBRANCH  10  14
TORSDOF 5
ENDMDL
MODEL 3
REMARK VINA RESULT:      -7.7      6.180      9.158
REMARK  Name = *****
REMARK                            x       y       z     vdW  Elec       q    Type
REMARK                         _______ _______ _______ _____ _____    ______ ____
ROOT
ATOM      1  C   LIG    1       23.345 -32.468   7.875  0.00  0.00    +0.155 C 
ATOM      2  N   LIG    1       24.261 -31.386   8.183  0.00  0.00    -0.280 N 
ATOM      3  C   LIG    1       24.995 -31.401   9.371  0.00  0.00    +0.333 C 
ATOM      4  O   LIG    1       24.902 -32.328  10.181  0.00  0.00    -0.246 OA
ATOM      5  N   LIG    1       25.841 -30.305   9.617  0.00  0.00    -0.262 N 
ATOM      6  C   LIG    1       26.637 -30.357  10.827  0.00  0.00    +0.157 C 
ATOM      7  C   LIG    1       25.884 -29.133   8.860  0.00  0.00    +0.282 C 
ATOM      8  O   LIG    1       26.501 -28.125   9.192  0.00  0.00    -0.265 OA
ATOM      9  C   LIG    1       25.124 -29.215   7.663  0.00  0.00    +0.151 A 
ATOM     10  N   LIG    1       24.950 -28.344   6.627  0.00  0.00    -0.321 N 
ATOM     11  C   LIG    1       24.090 -28.947   5.739  0.00  0.00    +0.202 A 
ATOM     12  N   LIG    1       23.711 -30.136   6.161  0.00  0.00    -0.218 NA
ATOM     13  C   LIG    1       24.356 -30.297   7.349  0.00  0.00    +0.168 A 
ENDROOT
BRANCH  10  14
ATOM     14  C   LIG    1       25.466 -26.996   6.501  0.00  0.00    +0.164 C 
BRANCH  14  15
ATOM     15  C   LIG    1       24.767 -26.136   5.446  0.00  0.00    +0.254 C 
BRANCH  15  16
ATOM     16  O   LIG    1       24.956 -24.722   5.620  0.00  0.00    -0.459 OA
BRANCH  16  17
ATOM     17  C   LIG    1       24.120 -24.114   6.492  0.00  0.00    +0.341 C 
ATOM     18  O   LIG    1       22.978 -24.451   6.747  0.00  0.00    -0.245 OA
BRANCH  17  19
ATOM     19  C   LIG    1       24.788 -22.948   7.091  0.00  0.00    +0.077 A 
ATOM     20  C   LIG    1       24.016 -21.846   7.427  0.00  0.00    +0.125 A 
ATOM     21  N   LIG    1       24.513 -20.735   8.022  0.00  0.00    -0.262 NA
ATOM     22  C   LIG    1       25.835 -20.734   8.302  0.00  0.00    +0.111 A 
ATOM     23  C   LIG    1       26.687 -21.788   8.005  0.00  0.00    +0.020 A 
ATOM     24  C   LIG    1       26.155 -22.915   7.382  0.00  0.00    +0.018 A 
ENDBRANCH  17  19
ENDBRANCH  16  17
ENDBRANCH  15  16
ENDBRANCH  14  15
ENDBRANCH  10  14
TORSDOF 5
ENDMDL
MODEL 4
REMARK VINA RESULT:      -7.4      3.508      8.485
REMARK  Name = *****
REMARK                            x       y       z     vdW  Elec       q    Type
REMARK                         _______ _______ _______ _____ _____    ______ ____
ROOT
ATOM      1  C   LIG    1       28.891 -18.167   4.901  0.00  0.00    +0.155 C 
ATOM      2  N   LIG    1       28.909 -19.097   6.015  0.00  0.00    -0.280 N 
ATOM      3  C   LIG    1       30.019 -19.164   6.858  0.00  0.00    +0.333 C 
ATOM      4  O   LIG    1       31.004 -18.436   6.697  0.00  0.00    -0.246 OA
ATOM      5  N   LIG    1       29.979 -20.109   7.899  0.00  0.00    -0.262 N 
ATOM      6  C   LIG    1       31.114 -20.133   8.800  0.00  0.00    +0.157 C 
ATOM      7  C   LIG    1       29.001 -21.092   8.059  0.00  0.00    +0.282 C 
ATOM      8  O   LIG    1       29.080 -22.011   8.870  0.00  0.00    -0.265 OA
ATOM      9  C   LIG    1       27.904 -20.935   7.172  0.00  0.00    +0.151 A 
ATOM     10  N   LIG    1       26.729 -21.617   7.038  0.00  0.00    -0.321 N 
ATOM     11  C   LIG    1       26.045 -21.032   5.999  0.00  0.00    +0.202 A 
ATOM     12  N   LIG    1       26.723 -20.034   5.471  0.00  0.00    -0.218 NA
ATOM     13  C   LIG    1       27.869 -19.977   6.203  0.00  0.00    +0.168 A 
ENDROOT
BRANCH  10  14
ATOM     14  C   LIG    1       26.299 -22.798   7.759  0.00  0.00    +0.164 C 
BRANCH  14  15
ATOM     15  C   LIG    1       25.415 -23.754   6.955  0.00  0.00    +0.254 C 
BRANCH  15  16
ATOM     16  O   LIG    1       26.045 -25.004   6.629  0.00  0.00    -0.459 OA
BRANCH  16  17
ATOM     17  C   LIG    1       25.430 -25.750   5.684  0.00  0.00    +0.341 C 
ATOM     18  O   LIG    1       25.149 -25.390   4.554  0.00  0.00    -0.245 OA
BRANCH  17  19
ATOM     19  C   LIG    1       25.122 -27.083   6.224  0.00  0.00    +0.077 A 
ATOM     20  C   LIG    1       24.208 -27.876   5.544  0.00  0.00    +0.125 A 
ATOM     21  N   LIG    1       23.878 -29.134   5.923  0.00  0.00    -0.262 NA
ATOM     22  C   LIG    1       24.499 -29.622   7.020  0.00  0.00    +0.111 A 
ATOM     23  C   LIG    1       25.425 -28.907   7.764  0.00  0.00    +0.020 A 
ATOM     24  C   LIG    1       25.739 -27.610   7.363  0.00  0.00    +0.018 A 
ENDBRANCH  17  19
ENDBRANCH  16  17
ENDBRANCH  15  16
ENDBRANCH  14  15
ENDBRANCH  10  14
TORSDOF 5
ENDMDL
MODEL 5
REMARK VINA RESULT:      -7.4      2.881      8.175
REMARK  Name = *****
REMARK                            x       y       z     vdW  Elec       q    Type
REMARK                         _______ _______ _______ _____ _____    ______ ____
ROOT
ATOM      1  C   LIG    1       30.473 -21.433   9.149  0.00  0.00    +0.155 C 
ATOM      2  N   LIG    1       29.712 -20.895   8.036  0.00  0.00    -0.280 N 
ATOM      3  C   LIG    1       30.319 -20.035   7.119  0.00  0.00    +0.333 C 
ATOM      4  O   LIG    1       31.509 -19.719   7.212  0.00  0.00    -0.246 OA
ATOM      5  N   LIG    1       29.514 -19.528   6.084  0.00  0.00    -0.262 N 
ATOM      6  C   LIG    1       30.167 -18.680   5.107  0.00  0.00    +0.157 C 
ATOM      7  C   LIG    1       28.128 -19.679   5.992  0.00  0.00    +0.282 C 
ATOM      8  O   LIG    1       27.427 -19.085   5.178  0.00  0.00    -0.265 OA
ATOM      9  C   LIG    1       27.602 -20.583   6.952  0.00  0.00    +0.151 A 
ATOM     10  N   LIG    1       26.341 -21.060   7.167  0.00  0.00    -0.321 N 
ATOM     11  C   LIG    1       26.413 -21.903   8.250  0.00  0.00    +0.202 A 
ATOM     12  N   LIG    1       27.638 -21.975   8.730  0.00  0.00    -0.218 NA
ATOM     13  C   LIG    1       28.368 -21.160   7.921  0.00  0.00    +0.168 A 
ENDROOT
BRANCH  10  14
ATOM     14  C   LIG    1       25.121 -20.691   6.477  0.00  0.00    +0.164 C 
BRANCH  14  15
ATOM     15  C   LIG    1       23.983 -21.706   6.599  0.00  0.00    +0.254 C 
BRANCH  15  16
ATOM     16  O   LIG    1       24.162 -22.890   5.804  0.00  0.00    -0.459 OA
BRANCH  16  17
ATOM     17  C   LIG    1       23.596 -24.019   6.285  0.00  0.00    +0.341 C 
ATOM     18  O   LIG    1       22.531 -24.097   6.870  0.00  0.00    -0.245 OA
BRANCH  17  19
ATOM     19  C   LIG    1       24.473 -25.170   6.015  0.00  0.00    +0.077 A 
ATOM     20  C   LIG    1       25.846 -24.983   6.080  0.00  0.00    +0.125 A 
ATOM     21  N   LIG    1       26.748 -25.976   5.892  0.00  0.00    -0.262 NA
ATOM     22  C   LIG    1       26.253 -27.208   5.641  0.00  0.00    +0.111 A 
ATOM     23  C   LIG    1       24.898 -27.493   5.557  0.00  0.00    +0.020 A 
ATOM     24  C   LIG    1       23.990 -26.453   5.741  0.00  0.00    +0.018 A 
ENDBRANCH  17  19
ENDBRANCH  16  17
ENDBRANCH  15  16
ENDBRANCH  14  15
ENDBRANCH  10  14
TORSDOF 5
ENDMDL
MODEL 6
REMARK VINA RESULT:      -7.4      5.977      9.211
REMARK  Name = *****
REMARK                            x       y       z     vdW  Elec       q    Type
REMARK                         _______ _______ _______ _____ _____    ______ ____
ROOT
ATOM      1  C   LIG    1       23.785 -31.908   6.125  0.00  0.00    +0.155 C 
ATOM      2  N   LIG    1       24.573 -30.972   6.905  0.00  0.00    -0.280 N 
ATOM      3  C   LIG    1       25.096 -31.351   8.142  0.00  0.00    +0.333 C 
ATOM      4  O   LIG    1       24.922 -32.484   8.603  0.00  0.00    -0.246 OA
ATOM      5  N   LIG    1       25.825 -30.383   8.855  0.00  0.00    -0.262 N 
ATOM      6  C   LIG    1       26.409 -30.804  10.113  0.00  0.00    +0.157 C 
ATOM      7  C   LIG    1       25.928 -29.034   8.510  0.00  0.00    +0.282 C 
ATOM      8  O   LIG    1       26.422 -28.177   9.236  0.00  0.00    -0.265 OA
ATOM      9  C   LIG    1       25.385 -28.745   7.230  0.00  0.00    +0.151 A 
ATOM     10  N   LIG    1       25.338 -27.597   6.494  0.00  0.00    -0.321 N 
ATOM     11  C   LIG    1       24.676 -27.898   5.327  0.00  0.00    +0.202 A 
ATOM     12  N   LIG    1       24.299 -29.160   5.294  0.00  0.00    -0.218 NA
ATOM     13  C   LIG    1       24.744 -29.678   6.471  0.00  0.00    +0.168 A 
ENDROOT
BRANCH  10  14
ATOM     14  C   LIG    1       25.791 -26.274   6.877  0.00  0.00    +0.164 C 
BRANCH  14  15
ATOM     15  C   LIG    1       25.512 -25.177   5.847  0.00  0.00    +0.254 C 
BRANCH  15  16
ATOM     16  O   LIG    1       25.242 -23.887   6.421  0.00  0.00    -0.459 OA
BRANCH  16  17
ATOM     17  C   LIG    1       23.948 -23.495   6.418  0.00  0.00    +0.341 C 
ATOM     18  O   LIG    1       22.999 -24.145   6.821  0.00  0.00    -0.245 OA
BRANCH  17  19
ATOM     19  C   LIG    1       23.835 -22.151   5.831  0.00  0.00    +0.077 A 
ATOM     20  C   LIG    1       24.725 -21.793   4.829  0.00  0.00    +0.125 A 
ATOM     21  N   LIG    1       24.691 -20.600   4.186  0.00  0.00    -0.262 NA
ATOM     22  C   LIG    1       23.718 -19.738   4.555  0.00  0.00    +0.111 A 
ATOM     23  C   LIG    1       22.784 -20.006   5.545  0.00  0.00    +0.020 A 
ATOM     24  C   LIG    1       22.847 -21.234   6.200  0.00  0.00    +0.018 A 
ENDBRANCH  17  19
ENDBRANCH  16  17
ENDBRANCH  15  16
ENDBRANCH  14  15
ENDBRANCH  10  14
TORSDOF 5
ENDMDL
MODEL 7
REMARK VINA RESULT:      -7.2      2.286      7.433
REMARK  Name = *****
REMARK                            x       y       z     vdW  Elec       q    Type
REMARK                         _______ _______ _______ _____ _____    ______ ____
ROOT
ATOM      1  C   LIG    1       29.653 -18.080   5.160  0.00  0.00    +0.155 C 
ATOM      2  N   LIG    1       29.578 -19.022   6.262  0.00  0.00    -0.280 N 
ATOM      3  C   LIG    1       30.669 -19.198   7.114  0.00  0.00    +0.333 C 
ATOM      4  O   LIG    1       31.715 -18.557   6.973  0.00  0.00    -0.246 OA
ATOM      5  N   LIG    1       30.535 -20.148   8.141  0.00  0.00    -0.262 N 
ATOM      6  C   LIG    1       31.653 -20.284   9.053  0.00  0.00    +0.157 C 
ATOM      7  C   LIG    1       29.472 -21.044   8.278  0.00  0.00    +0.282 C 
ATOM      8  O   LIG    1       29.461 -21.976   9.077  0.00  0.00    -0.265 OA
ATOM      9  C   LIG    1       28.402 -20.779   7.383  0.00  0.00    +0.151 A 
ATOM     10  N   LIG    1       27.174 -21.353   7.229  0.00  0.00    -0.321 N 
ATOM     11  C   LIG    1       26.554 -20.697   6.192  0.00  0.00    +0.202 A 
ATOM     12  N   LIG    1       27.323 -19.755   5.684  0.00  0.00    -0.218 NA
ATOM     13  C   LIG    1       28.462 -19.809   6.427  0.00  0.00    +0.168 A 
ENDROOT
BRANCH  10  14
ATOM     14  C   LIG    1       26.633 -22.501   7.929  0.00  0.00    +0.164 C 
BRANCH  14  15
ATOM     15  C   LIG    1       25.105 -22.579   7.951  0.00  0.00    +0.254 C 
BRANCH  15  16
ATOM     16  O   LIG    1       24.544 -23.405   6.917  0.00  0.00    -0.459 OA
BRANCH  16  17
ATOM     17  C   LIG    1       23.301 -23.074   6.502  0.00  0.00    +0.341 C 
ATOM     18  O   LIG    1       22.276 -23.689   6.737  0.00  0.00    -0.245 OA
BRANCH  17  19
ATOM     19  C   LIG    1       23.357 -21.847   5.691  0.00  0.00    +0.077 A 
ATOM     20  C   LIG    1       24.034 -21.887   4.481  0.00  0.00    +0.125 A 
ATOM     21  N   LIG    1       24.116 -20.834   3.632  0.00  0.00    -0.262 NA
ATOM     22  C   LIG    1       23.483 -19.700   4.007  0.00  0.00    +0.111 A 
ATOM     23  C   LIG    1       22.782 -19.564   5.196  0.00  0.00    +0.020 A 
ATOM     24  C   LIG    1       22.723 -20.657   6.058  0.00  0.00    +0.018 A 
ENDBRANCH  17  19
ENDBRANCH  16  17
ENDBRANCH  15  16
ENDBRANCH  14  15
ENDBRANCH  10  14
TORSDOF 5
ENDMDL
MODEL 8
REMARK VINA RESULT:      -7.2      3.725      8.547
REMARK  Name = *****
REMARK                            x       y       z     vdW  Elec       q    Type
REMARK                         _______ _______ _______ _____ _____    ______ ____
ROOT
ATOM      1  C   LIG    1       28.789 -20.347   7.101  0.00  0.00    +0.155 C 
ATOM      2  N   LIG    1       27.561 -20.570   6.360  0.00  0.00    -0.280 N 
ATOM      3  C   LIG    1       27.178 -19.687   5.349  0.00  0.00    +0.333 C 
ATOM      4  O   LIG    1       27.867 -18.708   5.045  0.00  0.00    -0.246 OA
ATOM      5  N   LIG    1       25.962 -19.949   4.694  0.00  0.00    -0.262 N 
ATOM      6  C   LIG    1       25.601 -19.056   3.611  0.00  0.00    +0.157 C 
ATOM      7  C   LIG    1       25.031 -20.915   5.077  0.00  0.00    +0.282 C 
ATOM      8  O   LIG    1       23.904 -21.010   4.598  0.00  0.00    -0.265 OA
ATOM      9  C   LIG    1       25.513 -21.778   6.097  0.00  0.00    +0.151 A 
ATOM     10  N   LIG    1       24.969 -22.874   6.702  0.00  0.00    -0.321 N 
ATOM     11  C   LIG    1       25.881 -23.309   7.634  0.00  0.00    +0.202 A 
ATOM     12  N   LIG    1       26.956 -22.548   7.654  0.00  0.00    -0.218 NA
ATOM     13  C   LIG    1       26.724 -21.606   6.699  0.00  0.00    +0.168 A 
ENDROOT
BRANCH  10  14
ATOM     14  C   LIG    1       23.647 -23.436   6.505  0.00  0.00    +0.164 C 
BRANCH  14  15
ATOM     15  C   LIG    1       23.579 -24.962   6.591  0.00  0.00    +0.254 C 
BRANCH  15  16
ATOM     16  O   LIG    1       24.081 -25.640   5.427  0.00  0.00    -0.459 OA
BRANCH  16  17
ATOM     17  C   LIG    1       25.228 -26.336   5.594  0.00  0.00    +0.341 C 
ATOM     18  O   LIG    1       26.342 -25.979   5.250  0.00  0.00    -0.245 OA
BRANCH  17  19
ATOM     19  C   LIG    1       24.940 -27.622   6.246  0.00  0.00    +0.077 A 
ATOM     20  C   LIG    1       24.111 -28.522   5.592  0.00  0.00    +0.125 A 
ATOM     21  N   LIG    1       23.809 -29.751   6.075  0.00  0.00    -0.262 NA
ATOM     22  C   LIG    1       24.371 -30.097   7.254  0.00  0.00    +0.111 A 
ATOM     23  C   LIG    1       25.212 -29.267   7.981  0.00  0.00    +0.020 A 
ATOM     24  C   LIG    1       25.497 -28.002   7.470  0.00  0.00    +0.018 A 
ENDBRANCH  17  19
ENDBRANCH  16  17
ENDBRANCH  15  16
ENDBRANCH  14  15
ENDBRANCH  10  14
TORSDOF 5
ENDMDL
MODEL 9
REMARK VINA RESULT:      -7.0      6.494     10.063
REMARK  Name = *****
REMARK                            x       y       z     vdW  Elec       q    Type
REMARK                         _______ _______ _______ _____ _____    ______ ____
ROOT
ATOM      1  C   LIG    1       23.411 -31.570  11.243  0.00  0.00    +0.155 C 
ATOM      2  N   LIG    1       24.330 -30.702  10.529  0.00  0.00    -0.280 N 
ATOM      3  C   LIG    1       25.163 -29.829  11.231  0.00  0.00    +0.333 C 
ATOM      4  O   LIG    1       25.159 -29.777  12.465  0.00  0.00    -0.246 OA
ATOM      5  N   LIG    1       26.006 -28.997  10.473  0.00  0.00    -0.262 N 
ATOM      6  C   LIG    1       26.904 -28.134  11.213  0.00  0.00    +0.157 C 
ATOM      7  C   LIG    1       25.960 -28.852   9.086  0.00  0.00    +0.282 C 
ATOM      8  O   LIG    1       26.584 -27.995   8.466  0.00  0.00    -0.265 OA
ATOM      9  C   LIG    1       25.101 -29.791   8.456  0.00  0.00    +0.151 A 
ATOM     10  N   LIG    1       24.821 -30.039   7.143  0.00  0.00    -0.321 N 
ATOM     11  C   LIG    1       23.900 -31.059   7.118  0.00  0.00    +0.202 A 
ATOM     12  N   LIG    1       23.582 -31.457   8.333  0.00  0.00    -0.218 NA
ATOM     13  C   LIG    1       24.330 -30.671   9.155  0.00  0.00    +0.168 A 
ENDROOT
BRANCH  10  14
ATOM     14  C   LIG    1       25.298 -29.319   5.979  0.00  0.00    +0.164 C 
BRANCH  14  15
ATOM     15  C   LIG    1       24.387 -28.184   5.508  0.00  0.00    +0.254 C 
BRANCH  15  16
ATOM     16  O   LIG    1       24.433 -27.010   6.336  0.00  0.00    -0.459 OA
BRANCH  16  17
ATOM     17  C   LIG    1       25.283 -26.036   5.938  0.00  0.00    +0.341 C 
ATOM     18  O   LIG    1       26.292 -26.190   5.274  0.00  0.00    -0.245 OA
BRANCH  17  19
ATOM     19  C   LIG    1       24.820 -24.734   6.445  0.00  0.00    +0.077 A 
ATOM     20  C   LIG    1       25.770 -23.813   6.861  0.00  0.00    +0.125 A 
ATOM     21  N   LIG    1       25.466 -22.570   7.305  0.00  0.00    -0.262 NA
ATOM     22  C   LIG    1       24.157 -22.233   7.321  0.00  0.00    +0.111 A 
ATOM     23  C   LIG    1       23.136 -23.084   6.925  0.00  0.00    +0.020 A 
ATOM     24  C   LIG    1       23.473 -24.363   6.484  0.00  0.00    +0.018 A 
ENDBRANCH  17  19
ENDBRANCH  16  17
ENDBRANCH  15  16
ENDBRANCH  14  15
ENDBRANCH  10  14
TORSDOF 5
ENDMDL
