MODEL 1
REMARK VINA RESULT:      -4.9      0.000      0.000
REMARK  Name = *****
REMARK                            x       y       z     vdW  Elec       q    Type
REMARK                         _______ _______ _______ _____ _____    ______ ____
ROOT
ATOM      1  C   LIG    1       21.590 -32.335   9.864  0.00  0.00    +0.127 C 
ATOM      2  C   LIG    1       22.470 -33.223  10.760  0.00  0.00    +0.067 C 
ATOM      3  C   LIG    1       23.464 -32.469  11.644  0.00  0.00    +0.079 C 
ATOM      4  C   LIG    1       24.141 -31.274  10.913  0.00  0.00    +0.054 C 
ATOM      5  C   LIG    1       25.431 -30.752  11.731  0.00  0.00    +0.037 C 
ATOM      6  C   LIG    1       25.905 -31.511  13.019  0.00  0.00    +0.028 C 
ATOM      7  C   LIG    1       25.154 -32.779  13.435  0.00  0.00    +0.009 C 
ATOM      8  C   LIG    1       26.202 -30.593  14.231  0.00  0.00    +0.075 C 
ATOM      9  C   LIG    1       27.222 -29.462  13.898  0.00  0.00    +0.006 C 
ATOM     10  C   LIG    1       28.688 -29.942  13.992  0.00  0.00    +0.014 C 
ATOM     11  C   LIG    1       26.918 -28.450  15.049  0.00  0.00    +0.027 C 
ATOM     12  C   LIG    1       25.388 -28.439  15.120  0.00  0.00    +0.011 C 
ATOM     13  C   LIG    1       27.001 -28.899  12.462  0.00  0.00    +0.041 C 
ATOM     14  C   LIG    1       24.961 -29.879  14.817  0.00  0.00    +0.036 C 
ATOM     15  C   LIG    1       25.649 -29.225  11.810  0.00  0.00    +0.119 C 
ATOM     16  C   LIG    1       22.982 -30.237  10.669  0.00  0.00    +0.128 C 
ATOM     17  C   LIG    1       24.446 -33.449  12.276  0.00  0.00    +0.036 C 
ATOM     18  C   LIG    1       21.605 -30.854  10.274  0.00  0.00    +0.063 C 
ENDROOT
BRANCH  11  19
ATOM     19  C   LIG    1       27.579 -27.105  14.984  0.00  0.00    -0.022 C 
ATOM     20  C   LIG    1       28.957 -26.908  15.500  0.00  0.00    +0.264 C 
ATOM     21  O   LIG    1       29.229 -25.525  15.281  0.00  0.00    -0.457 OA
ATOM     22  C   LIG    1       28.138 -24.943  14.720  0.00  0.00    +0.332 C 
ATOM     23  O   LIG    1       28.041 -23.772  14.387  0.00  0.00    -0.246 OA
ATOM     24  C   LIG    1       27.086 -25.942  14.559  0.00  0.00    +0.094 C 
ENDBRANCH  11  19
BRANCH   3  25
ATOM     25  O   LIG    1       22.672 -31.925  12.740  0.00  0.00    -0.388 OA
ATOM     26  H   LIG    1       21.736 -31.937  12.466  0.00  0.00    +0.210 HD
ENDBRANCH   3  25
BRANCH   8  27
ATOM     27  O   LIG    1       26.720 -31.389  15.313  0.00  0.00    -0.388 OA
ATOM     28  H   LIG    1       26.432 -30.994  16.153  0.00  0.00    +0.210 HD
ENDBRANCH   8  27
BRANCH  15  29
ATOM     29  O   LIG    1       25.669 -28.695  10.484  0.00  0.00    -0.392 OA
ATOM     30  H   LIG    1       26.327 -27.976  10.475  0.00  0.00    +0.210 HD
ENDBRANCH  15  29
BRANCH  16  31
ATOM     31  O   LIG    1       22.733 -29.468  11.854  0.00  0.00    -0.391 OA
ATOM     32  H   LIG    1       23.396 -28.743  11.822  0.00  0.00    +0.210 HD
ENDBRANCH  16  31
BRANCH   1  33
ATOM     33  O   LIG    1       20.221 -32.796   9.842  0.00  0.00    -0.345 OA
BRANCH  33  39
ATOM     34  C   LIG    1       19.565 -32.478  14.055  0.00  0.00    +0.040 C 
ATOM     35  C   LIG    1       18.683 -33.314  13.130  0.00  0.00    +0.149 C 
ATOM     36  C   LIG    1       17.278 -32.733  12.867  0.00  0.00    +0.174 C 
ATOM     37  C   LIG    1       17.288 -31.576  11.855  0.00  0.00    +0.179 C 
ATOM     38  C   LIG    1       18.103 -31.938  10.609  0.00  0.00    +0.201 C 
ATOM     39  C   LIG    1       19.479 -32.478  11.034  0.00  0.00    +0.282 C 
ATOM     40  O   LIG    1       19.341 -33.614  11.885  0.00  0.00    -0.343 OA
BRANCH  36  41
ATOM     41  O   LIG    1       16.444 -33.780  12.340  0.00  0.00    -0.387 OA
ATOM     42  H   LIG    1       15.763 -33.983  13.009  0.00  0.00    +0.210 HD
ENDBRANCH  36  41
BRANCH  37  43
ATOM     43  O   LIG    1       17.832 -30.389  12.451  0.00  0.00    -0.386 OA
ATOM     44  H   LIG    1       17.644 -30.484  13.408  0.00  0.00    +0.210 HD
ENDBRANCH  37  43
BRANCH  38  45
ATOM     45  O   LIG    1       18.255 -30.759   9.793  0.00  0.00    -0.384 OA
ATOM     46  H   LIG    1       18.994 -30.264  10.202  0.00  0.00    +0.210 HD
ENDBRANCH  38  45
ENDBRANCH  33  39
ENDBRANCH   1  33
BRANCH   4  47
ATOM     47  C   LIG    1       24.681 -31.643   9.481  0.00  0.00    +0.168 C 
BRANCH  47  48
ATOM     48  O   LIG    1       24.690 -30.530   8.595  0.00  0.00    -0.394 OA
ATOM     49  H   LIG    1       23.787 -30.458   8.233  0.00  0.00    +0.209 HD
ENDBRANCH  47  48
ENDBRANCH   4  47
TORSDOF 12
ENDMDL
