MODEL 1
REMARK VINA RESULT:      -5.1      0.000      0.000
REMARK  Name = *****
REMARK                            x       y       z     vdW  Elec       q    Type
REMARK                         _______ _______ _______ _____ _____    ______ ____
ROOT
ATOM      1  C   LIG    1       25.692 -20.858   6.319  0.00  0.00    -0.043 A 
ATOM      2  C   LIG    1       25.585 -20.269   5.051  0.00  0.00    +0.052 A 
ATOM      3  C   LIG    1       24.333 -19.953   4.544  0.00  0.00    +0.159 A 
ATOM      4  C   LIG    1       23.179 -20.207   5.281  0.00  0.00    +0.158 A 
ATOM      5  C   LIG    1       23.265 -20.780   6.543  0.00  0.00    +0.049 A 
ATOM      6  C   LIG    1       24.523 -21.101   7.062  0.00  0.00    +0.007 A 
ENDROOT
BRANCH   3   7
ATOM      7  O   LIG    1       24.239 -19.385   3.306  0.00  0.00    -0.503 OA
ATOM      8  H   LIG    1       25.068 -18.875   3.209  0.00  0.00    +0.292 HD
ENDBRANCH   3   7
BRANCH   4   9
ATOM      9  O   LIG    1       21.978 -19.874   4.717  0.00  0.00    -0.503 OA
ATOM     10  H   LIG    1       21.844 -18.918   4.840  0.00  0.00    +0.292 HD
ENDBRANCH   4   9
BRANCH   1  11
ATOM     11  C   LIG    1       27.047 -21.202   6.888  0.00  0.00    +0.050 C 
BRANCH  11  12
ATOM     12  C   LIG    1       28.147 -20.294   6.330  0.00  0.00    +0.082 C 
BRANCH  12  13
ATOM     13  N   LIG    1       29.474 -20.794   6.691  0.00  0.00    -0.330 NA
ATOM     14  H   LIG    1       29.799 -21.443   5.974  0.00  0.00    +0.118 HD
ATOM     15  H   LIG    1       30.135 -20.017   6.687  0.00  0.00    +0.118 HD
ENDBRANCH  12  13
ENDBRANCH  11  12
ENDBRANCH   1  11
TORSDOF 5
ENDMDL
MODEL 2
REMARK VINA RESULT:      -4.9      3.148      4.371
REMARK  Name = *****
REMARK                            x       y       z     vdW  Elec       q    Type
REMARK                         _______ _______ _______ _____ _____    ______ ____
ROOT
ATOM      1  C   LIG    1       23.324 -20.253   5.349  0.00  0.00    -0.043 A 
ATOM      2  C   LIG    1       24.496 -19.972   4.633  0.00  0.00    +0.052 A 
ATOM      3  C   LIG    1       25.723 -20.379   5.137  0.00  0.00    +0.159 A 
ATOM      4  C   LIG    1       25.806 -21.070   6.344  0.00  0.00    +0.158 A 
ATOM      5  C   LIG    1       24.656 -21.366   7.062  0.00  0.00    +0.049 A 
ATOM      6  C   LIG    1       23.415 -20.959   6.562  0.00  0.00    +0.007 A 
ENDROOT
BRANCH   3   7
ATOM      7  O   LIG    1       26.859 -20.096   4.434  0.00  0.00    -0.503 OA
ATOM      8  H   LIG    1       27.213 -19.290   4.860  0.00  0.00    +0.292 HD
ENDBRANCH   3   7
BRANCH   4   9
ATOM      9  O   LIG    1       27.049 -21.435   6.783  0.00  0.00    -0.503 OA
ATOM     10  H   LIG    1       27.225 -22.338   6.465  0.00  0.00    +0.292 HD
ENDBRANCH   4   9
BRANCH   1  11
ATOM     11  C   LIG    1       21.980 -19.823   4.812  0.00  0.00    +0.050 C 
BRANCH  11  12
ATOM     12  C   LIG    1       22.085 -18.551   3.965  0.00  0.00    +0.082 C 
BRANCH  12  13
ATOM     13  N   LIG    1       22.204 -17.364   4.813  0.00  0.00    -0.330 NA
ATOM     14  H   LIG    1       21.848 -17.576   5.746  0.00  0.00    +0.118 HD
ATOM     15  H   LIG    1       23.191 -17.138   4.934  0.00  0.00    +0.118 HD
ENDBRANCH  12  13
ENDBRANCH  11  12
ENDBRANCH   1  11
TORSDOF 5
ENDMDL
MODEL 3
REMARK VINA RESULT:      -4.6      7.037      8.186
REMARK  Name = *****
REMARK                            x       y       z     vdW  Elec       q    Type
REMARK                         _______ _______ _______ _____ _____    ______ ____
ROOT
ATOM      1  C   LIG    1       25.298 -13.854   4.141  0.00  0.00    -0.043 A 
ATOM      2  C   LIG    1       26.150 -13.266   5.087  0.00  0.00    +0.052 A 
ATOM      3  C   LIG    1       27.497 -13.111   4.795  0.00  0.00    +0.159 A 
ATOM      4  C   LIG    1       28.016 -13.527   3.571  0.00  0.00    +0.158 A 
ATOM      5  C   LIG    1       27.186 -14.103   2.618  0.00  0.00    +0.049 A 
ATOM      6  C   LIG    1       25.827 -14.263   2.904  0.00  0.00    +0.007 A 
ENDROOT
BRANCH   3   7
ATOM      7  O   LIG    1       28.319 -12.541   5.724  0.00  0.00    -0.503 OA
ATOM      8  H   LIG    1       29.202 -12.915   5.529  0.00  0.00    +0.292 HD
ENDBRANCH   3   7
BRANCH   4   9
ATOM      9  O   LIG    1       29.354 -13.348   3.353  0.00  0.00    -0.503 OA
ATOM     10  H   LIG    1       29.773 -14.226   3.327  0.00  0.00    +0.292 HD
ENDBRANCH   4   9
BRANCH   1  11
ATOM     11  C   LIG    1       23.828 -14.024   4.440  0.00  0.00    +0.050 C 
BRANCH  11  12
ATOM     12  C   LIG    1       23.375 -15.477   4.263  0.00  0.00    +0.082 C 
BRANCH  12  13
ATOM     13  N   LIG    1       22.303 -15.811   5.201  0.00  0.00    -0.330 NA
ATOM     14  H   LIG    1       21.694 -16.515   4.783  0.00  0.00    +0.118 HD
ATOM     15  H   LIG    1       22.708 -16.245   6.030  0.00  0.00    +0.118 HD
ENDBRANCH  12  13
ENDBRANCH  11  12
ENDBRANCH   1  11
TORSDOF 5
ENDMDL
MODEL 4
REMARK VINA RESULT:      -4.5      3.355      4.541
REMARK  Name = *****
REMARK                            x       y       z     vdW  Elec       q    Type
REMARK                         _______ _______ _______ _____ _____    ______ ____
ROOT
ATOM      1  C   LIG    1       25.277 -20.808   5.456  0.00  0.00    -0.043 A 
ATOM      2  C   LIG    1       26.145 -19.875   4.872  0.00  0.00    +0.052 A 
ATOM      3  C   LIG    1       27.422 -19.709   5.388  0.00  0.00    +0.159 A 
ATOM      4  C   LIG    1       27.856 -20.462   6.477  0.00  0.00    +0.158 A 
ATOM      5  C   LIG    1       27.014 -21.398   7.062  0.00  0.00    +0.049 A 
ATOM      6  C   LIG    1       25.726 -21.572   6.548  0.00  0.00    +0.007 A 
ENDROOT
BRANCH   3   7
ATOM      7  O   LIG    1       28.258 -18.794   4.816  0.00  0.00    -0.503 OA
ATOM      8  H   LIG    1       28.696 -18.358   5.574  0.00  0.00    +0.292 HD
ENDBRANCH   3   7
BRANCH   4   9
ATOM      9  O   LIG    1       29.125 -20.241   6.936  0.00  0.00    -0.503 OA
ATOM     10  H   LIG    1       29.140 -19.371   7.371  0.00  0.00    +0.292 HD
ENDBRANCH   4   9
BRANCH   1  11
ATOM     11  C   LIG    1       23.885 -21.006   4.903  0.00  0.00    +0.050 C 
BRANCH  11  12
ATOM     12  C   LIG    1       22.890 -20.003   5.493  0.00  0.00    +0.082 C 
BRANCH  12  13
ATOM     13  N   LIG    1       22.410 -19.075   4.468  0.00  0.00    -0.330 NA
ATOM     14  H   LIG    1       21.499 -19.386   4.129  0.00  0.00    +0.118 HD
ATOM     15  H   LIG    1       22.254 -18.161   4.893  0.00  0.00    +0.118 HD
ENDBRANCH  12  13
ENDBRANCH  11  12
ENDBRANCH   1  11
TORSDOF 5
ENDMDL
MODEL 5
REMARK VINA RESULT:      -4.2      2.637      3.448
REMARK  Name = *****
REMARK                            x       y       z     vdW  Elec       q    Type
REMARK                         _______ _______ _______ _____ _____    ______ ____
ROOT
ATOM      1  C   LIG    1       24.919 -19.367   4.006  0.00  0.00    -0.043 A 
ATOM      2  C   LIG    1       25.665 -20.129   4.916  0.00  0.00    +0.052 A 
ATOM      3  C   LIG    1       25.013 -20.828   5.922  0.00  0.00    +0.159 A 
ATOM      4  C   LIG    1       23.626 -20.787   6.038  0.00  0.00    +0.158 A 
ATOM      5  C   LIG    1       22.870 -20.046   5.140  0.00  0.00    +0.049 A 
ATOM      6  C   LIG    1       23.518 -19.339   4.122  0.00  0.00    +0.007 A 
ENDROOT
BRANCH   3   7
ATOM      7  O   LIG    1       25.749 -21.563   6.807  0.00  0.00    -0.503 OA
ATOM      8  H   LIG    1       26.021 -20.919   7.491  0.00  0.00    +0.292 HD
ENDBRANCH   3   7
BRANCH   4   9
ATOM      9  O   LIG    1       23.052 -21.496   7.057  0.00  0.00    -0.503 OA
ATOM     10  H   LIG    1       23.306 -21.074   7.896  0.00  0.00    +0.292 HD
ENDBRANCH   4   9
BRANCH   1  11
ATOM     11  C   LIG    1       25.611 -18.606   2.901  0.00  0.00    +0.050 C 
BRANCH  11  12
ATOM     12  C   LIG    1       26.006 -17.194   3.343  0.00  0.00    +0.082 C 
BRANCH  12  13
ATOM     13  N   LIG    1       27.423 -17.133   3.704  0.00  0.00    -0.330 NA
ATOM     14  H   LIG    1       27.966 -16.825   2.896  0.00  0.00    +0.118 HD
ATOM     15  H   LIG    1       27.554 -16.418   4.419  0.00  0.00    +0.118 HD
ENDBRANCH  12  13
ENDBRANCH  11  12
ENDBRANCH   1  11
TORSDOF 5
ENDMDL
MODEL 6
REMARK VINA RESULT:      -4.2      7.541      8.510
REMARK  Name = *****
REMARK                            x       y       z     vdW  Elec       q    Type
REMARK                         _______ _______ _______ _____ _____    ______ ____
ROOT
ATOM      1  C   LIG    1       26.136 -14.152   4.135  0.00  0.00    -0.043 A 
ATOM      2  C   LIG    1       27.293 -14.084   3.346  0.00  0.00    +0.052 A 
ATOM      3  C   LIG    1       28.354 -13.287   3.752  0.00  0.00    +0.159 A 
ATOM      4  C   LIG    1       28.288 -12.558   4.937  0.00  0.00    +0.158 A 
ATOM      5  C   LIG    1       27.154 -12.621   5.736  0.00  0.00    +0.049 A 
ATOM      6  C   LIG    1       26.080 -13.421   5.335  0.00  0.00    +0.007 A 
ENDROOT
BRANCH   3   7
ATOM      7  O   LIG    1       29.475 -13.223   2.975  0.00  0.00    -0.503 OA
ATOM      8  H   LIG    1       29.549 -12.278   2.734  0.00  0.00    +0.292 HD
ENDBRANCH   3   7
BRANCH   4   9
ATOM      9  O   LIG    1       29.369 -11.790   5.272  0.00  0.00    -0.503 OA
ATOM     10  H   LIG    1       29.202 -11.405   6.150  0.00  0.00    +0.292 HD
ENDBRANCH   4   9
BRANCH   1  11
ATOM     11  C   LIG    1       24.975 -15.019   3.711  0.00  0.00    +0.050 C 
BRANCH  11  12
ATOM     12  C   LIG    1       23.663 -14.229   3.660  0.00  0.00    +0.082 C 
BRANCH  12  13
ATOM     13  N   LIG    1       23.770 -13.092   2.747  0.00  0.00    -0.330 NA
ATOM     14  H   LIG    1       24.544 -13.246   2.101  0.00  0.00    +0.118 HD
ATOM     15  H   LIG    1       22.929 -13.046   2.172  0.00  0.00    +0.118 HD
ENDBRANCH  12  13
ENDBRANCH  11  12
ENDBRANCH   1  11
TORSDOF 5
ENDMDL
MODEL 7
REMARK VINA RESULT:      -4.2      2.915      3.684
REMARK  Name = *****
REMARK                            x       y       z     vdW  Elec       q    Type
REMARK                         _______ _______ _______ _____ _____    ______ ____
ROOT
ATOM      1  C   LIG    1       25.113 -18.882   3.770  0.00  0.00    -0.043 A 
ATOM      2  C   LIG    1       23.762 -18.509   3.800  0.00  0.00    +0.052 A 
ATOM      3  C   LIG    1       22.815 -19.400   4.283  0.00  0.00    +0.159 A 
ATOM      4  C   LIG    1       23.188 -20.660   4.745  0.00  0.00    +0.158 A 
ATOM      5  C   LIG    1       24.523 -21.043   4.733  0.00  0.00    +0.049 A 
ATOM      6  C   LIG    1       25.484 -20.152   4.248  0.00  0.00    +0.007 A 
ENDROOT
BRANCH   3   7
ATOM      7  O   LIG    1       21.501 -19.030   4.303  0.00  0.00    -0.503 OA
ATOM      8  H   LIG    1       21.490 -18.203   4.826  0.00  0.00    +0.292 HD
ENDBRANCH   3   7
BRANCH   4   9
ATOM      9  O   LIG    1       22.201 -21.489   5.202  0.00  0.00    -0.503 OA
ATOM     10  H   LIG    1       22.588 -22.073   5.877  0.00  0.00    +0.292 HD
ENDBRANCH   4   9
BRANCH   1  11
ATOM     11  C   LIG    1       26.158 -17.922   3.254  0.00  0.00    +0.050 C 
BRANCH  11  12
ATOM     12  C   LIG    1       25.680 -16.469   3.323  0.00  0.00    +0.082 C 
BRANCH  12  13
ATOM     13  N   LIG    1       26.807 -15.540   3.224  0.00  0.00    -0.330 NA
ATOM     14  H   LIG    1       26.884 -15.007   4.091  0.00  0.00    +0.118 HD
ATOM     15  H   LIG    1       27.672 -16.073   3.145  0.00  0.00    +0.118 HD
ENDBRANCH  12  13
ENDBRANCH  11  12
ENDBRANCH   1  11
TORSDOF 5
ENDMDL
MODEL 8
REMARK VINA RESULT:      -4.2      3.932      5.464
REMARK  Name = *****
REMARK                            x       y       z     vdW  Elec       q    Type
REMARK                         _______ _______ _______ _____ _____    ______ ____
ROOT
ATOM      1  C   LIG    1       22.831 -19.101   4.441  0.00  0.00    -0.043 A 
ATOM      2  C   LIG    1       22.705 -19.924   5.569  0.00  0.00    +0.052 A 
ATOM      3  C   LIG    1       23.764 -20.736   5.947  0.00  0.00    +0.159 A 
ATOM      4  C   LIG    1       24.955 -20.742   5.224  0.00  0.00    +0.158 A 
ATOM      5  C   LIG    1       25.101 -19.926   4.110  0.00  0.00    +0.049 A 
ATOM      6  C   LIG    1       24.040 -19.104   3.721  0.00  0.00    +0.007 A 
ENDROOT
BRANCH   3   7
ATOM      7  O   LIG    1       23.630 -21.538   7.044  0.00  0.00    -0.503 OA
ATOM      8  H   LIG    1       23.320 -20.935   7.749  0.00  0.00    +0.292 HD
ENDBRANCH   3   7
BRANCH   4   9
ATOM      9  O   LIG    1       25.954 -21.572   5.651  0.00  0.00    -0.503 OA
ATOM     10  H   LIG    1       26.532 -21.063   6.246  0.00  0.00    +0.292 HD
ENDBRANCH   4   9
BRANCH   1  11
ATOM     11  C   LIG    1       21.691 -18.206   4.019  0.00  0.00    +0.050 C 
BRANCH  11  12
ATOM     12  C   LIG    1       20.460 -19.012   3.594  0.00  0.00    +0.082 C 
BRANCH  12  13
ATOM     13  N   LIG    1       19.548 -18.196   2.792  0.00  0.00    -0.330 NA
ATOM     14  H   LIG    1       18.648 -18.124   3.269  0.00  0.00    +0.118 HD
ATOM     15  H   LIG    1       19.913 -17.246   2.736  0.00  0.00    +0.118 HD
ENDBRANCH  12  13
ENDBRANCH  11  12
ENDBRANCH   1  11
TORSDOF 5
ENDMDL
MODEL 9
REMARK VINA RESULT:      -4.1      7.356      8.439
REMARK  Name = *****
REMARK                            x       y       z     vdW  Elec       q    Type
REMARK                         _______ _______ _______ _____ _____    ______ ____
ROOT
ATOM      1  C   LIG    1       25.384 -12.957   2.881  0.00  0.00    -0.043 A 
ATOM      2  C   LIG    1       26.771 -12.755   2.897  0.00  0.00    +0.052 A 
ATOM      3  C   LIG    1       27.609 -13.786   3.297  0.00  0.00    +0.159 A 
ATOM      4  C   LIG    1       27.091 -15.022   3.678  0.00  0.00    +0.158 A 
ATOM      5  C   LIG    1       25.721 -15.243   3.657  0.00  0.00    +0.049 A 
ATOM      6  C   LIG    1       24.869 -14.210   3.256  0.00  0.00    +0.007 A 
ENDROOT
BRANCH   3   7
ATOM      7  O   LIG    1       28.959 -13.579   3.315  0.00  0.00    -0.503 OA
ATOM      8  H   LIG    1       29.178 -13.487   4.264  0.00  0.00    +0.292 HD
ENDBRANCH   3   7
BRANCH   4   9
ATOM      9  O   LIG    1       27.976 -15.990   4.065  0.00  0.00    -0.503 OA
ATOM     10  H   LIG    1       27.731 -16.818   3.616  0.00  0.00    +0.292 HD
ENDBRANCH   4   9
BRANCH   1  11
ATOM     11  C   LIG    1       24.458 -11.848   2.442  0.00  0.00    +0.050 C 
BRANCH  11  12
ATOM     12  C   LIG    1       23.476 -11.454   3.550  0.00  0.00    +0.082 C 
BRANCH  12  13
ATOM     13  N   LIG    1       24.040 -11.724   4.872  0.00  0.00    -0.330 NA
ATOM     14  H   LIG    1       23.471 -11.266   5.585  0.00  0.00    +0.118 HD
ATOM     15  H   LIG    1       23.978 -12.724   5.063  0.00  0.00    +0.118 HD
ENDBRANCH  12  13
ENDBRANCH  11  12
ENDBRANCH   1  11
TORSDOF 5
ENDMDL
