MODEL 1
REMARK VINA RESULT:      -3.8      0.000      0.000
REMARK  Name = *****
REMARK                            x       y       z     vdW  Elec       q    Type
REMARK                         _______ _______ _______ _____ _____    ______ ____
ROOT
ATOM      1  C5M   T A  1       23.629 -19.351   3.401  0.00  0.00    +0.051 C 
ATOM      2  C5    T A  1       24.991 -18.830   3.725  0.00  0.00    +0.030 C 
ATOM      3  C4    T A  1       25.941 -19.744   4.396  0.00  0.00    +0.257 C 
ATOM      4  O4    T A  1       25.653 -20.908   4.651  0.00  0.00    -0.267 OA
ATOM      5  N3    T A  1       27.156 -19.208   4.714  0.00  0.00    -0.275 N 
ATOM      6  H3    T A  1       27.815 -19.815   5.174  0.00  0.00    +0.173 HD
ATOM      7  C2    T A  1       27.591 -17.946   4.407  0.00  0.00    +0.331 C 
ATOM      8  O2    T A  1       28.719 -17.582   4.734  0.00  0.00    -0.246 OA
ATOM      9  N1    T A  1       26.685 -17.147   3.719  0.00  0.00    -0.274 N 
ATOM     10  C6    T A  1       25.412 -17.596   3.428  0.00  0.00    +0.102 C 
ENDROOT
BRANCH   9  11
ATOM     11  C1*   T A  1       27.139 -15.812   3.330  0.00  0.00    +0.226 C 
ATOM     12  O4*   T A  1       26.098 -15.132   2.595  0.00  0.00    -0.348 OA
ATOM     13  C4*   T A  1       25.792 -13.902   3.284  0.00  0.00    +0.175 C 
ATOM     14  C3*   T A  1       26.279 -14.085   4.713  0.00  0.00    +0.150 C 
ATOM     15  C2*   T A  1       27.520 -14.922   4.510  0.00  0.00    +0.088 C 
BRANCH  14  16
ATOM     16  O3*   T A  1       26.546 -12.863   5.376  0.00  0.00    -0.389 OA
ATOM     17  H3*   T A  1       27.105 -13.036   6.155  0.00  0.00    +0.210 HD
ENDBRANCH  14  16
BRANCH  13  18
ATOM     18  C5*   T A  1       24.293 -13.631   3.182  0.00  0.00    +0.190 C 
BRANCH  18  19
ATOM     19  O5*   T A  1       23.942 -12.555   4.054  0.00  0.00    -0.392 OA
ATOM     20  H5*   T A  1       24.634 -12.527   4.742  0.00  0.00    +0.209 HD
ENDBRANCH  18  19
ENDBRANCH  13  18
ENDBRANCH   9  11
TORSDOF 4
ENDMDL
MODEL 2
REMARK VINA RESULT:      -3.6      2.315      6.032
REMARK  Name = *****
REMARK                            x       y       z     vdW  Elec       q    Type
REMARK                         _______ _______ _______ _____ _____    ______ ____
ROOT
ATOM      1  C5M   T A  1       26.662 -14.810   3.245  0.00  0.00    +0.051 C 
ATOM      2  C5    T A  1       25.416 -15.560   3.581  0.00  0.00    +0.030 C 
ATOM      3  C4    T A  1       24.235 -14.783   4.017  0.00  0.00    +0.257 C 
ATOM      4  O4    T A  1       24.246 -13.559   4.068  0.00  0.00    -0.267 OA
ATOM      5  N3    T A  1       23.136 -15.517   4.360  0.00  0.00    -0.275 N 
ATOM      6  H3    T A  1       22.323 -15.004   4.662  0.00  0.00    +0.173 HD
ATOM      7  C2    T A  1       23.007 -16.877   4.269  0.00  0.00    +0.331 C 
ATOM      8  O2    T A  1       21.956 -17.425   4.593  0.00  0.00    -0.246 OA
ATOM      9  N1    T A  1       24.123 -17.557   3.793  0.00  0.00    -0.274 N 
ATOM     10  C6    T A  1       25.295 -16.890   3.496  0.00  0.00    +0.102 C 
ENDROOT
BRANCH   9  11
ATOM     11  C1*   T A  1       24.000 -19.006   3.633  0.00  0.00    +0.226 C 
ATOM     12  O4*   T A  1       25.282 -19.636   3.848  0.00  0.00    -0.348 OA
ATOM     13  C4*   T A  1       25.137 -20.595   4.917  0.00  0.00    +0.175 C 
ATOM     14  C3*   T A  1       23.899 -20.176   5.696  0.00  0.00    +0.150 C 
ATOM     15  C2*   T A  1       23.007 -19.650   4.596  0.00  0.00    +0.088 C 
BRANCH  14  16
ATOM     16  O3*   T A  1       23.306 -21.238   6.421  0.00  0.00    -0.389 OA
ATOM     17  H3*   T A  1       22.561 -20.892   6.945  0.00  0.00    +0.210 HD
ENDBRANCH  14  16
BRANCH  13  18
ATOM     18  C5*   T A  1       26.410 -20.604   5.758  0.00  0.00    +0.190 C 
BRANCH  18  19
ATOM     19  O5*   T A  1       27.495 -20.087   4.987  0.00  0.00    -0.392 OA
ATOM     20  H5*   T A  1       27.815 -20.827   4.437  0.00  0.00    +0.209 HD
ENDBRANCH  18  19
ENDBRANCH  13  18
ENDBRANCH   9  11
TORSDOF 4
ENDMDL
MODEL 3
REMARK VINA RESULT:      -3.1      1.729      5.400
REMARK  Name = *****
REMARK                            x       y       z     vdW  Elec       q    Type
REMARK                         _______ _______ _______ _____ _____    ______ ____
ROOT
ATOM      1  C5M   T A  1       25.506 -14.439   2.870  0.00  0.00    +0.051 C 
ATOM      2  C5    T A  1       26.151 -15.696   3.354  0.00  0.00    +0.030 C 
ATOM      3  C4    T A  1       27.455 -15.586   4.044  0.00  0.00    +0.257 C 
ATOM      4  O4    T A  1       27.988 -14.503   4.256  0.00  0.00    -0.267 OA
ATOM      5  N3    T A  1       28.027 -16.766   4.424  0.00  0.00    -0.275 N 
ATOM      6  H3    T A  1       28.918 -16.709   4.892  0.00  0.00    +0.173 HD
ATOM      7  C2    T A  1       27.478 -18.013   4.293  0.00  0.00    +0.331 C 
ATOM      8  O2    T A  1       28.086 -19.004   4.692  0.00  0.00    -0.246 OA
ATOM      9  N1    T A  1       26.222 -18.059   3.698  0.00  0.00    -0.274 N 
ATOM     10  C6    T A  1       25.614 -16.915   3.221  0.00  0.00    +0.102 C 
ENDROOT
BRANCH   9  11
ATOM     11  C1*   T A  1       25.585 -19.371   3.591  0.00  0.00    +0.226 C 
ATOM     12  O4*   T A  1       26.043 -20.230   4.658  0.00  0.00    -0.348 OA
ATOM     13  C4*   T A  1       24.890 -20.673   5.404  0.00  0.00    +0.175 C 
ATOM     14  C3*   T A  1       23.785 -19.670   5.110  0.00  0.00    +0.150 C 
ATOM     15  C2*   T A  1       24.061 -19.323   3.665  0.00  0.00    +0.088 C 
BRANCH  14  16
ATOM     16  O3*   T A  1       22.484 -20.193   5.307  0.00  0.00    -0.389 OA
ATOM     17  H3*   T A  1       22.513 -20.869   6.008  0.00  0.00    +0.210 HD
ENDBRANCH  14  16
BRANCH  13  18
ATOM     18  C5*   T A  1       25.255 -20.759   6.883  0.00  0.00    +0.190 C 
BRANCH  18  19
ATOM     19  O5*   T A  1       26.620 -20.380   7.062  0.00  0.00    -0.392 OA
ATOM     20  H5*   T A  1       27.034 -20.433   6.179  0.00  0.00    +0.209 HD
ENDBRANCH  18  19
ENDBRANCH  13  18
ENDBRANCH   9  11
TORSDOF 4
ENDMDL
MODEL 4
REMARK VINA RESULT:      -2.9      1.987      5.718
REMARK  Name = *****
REMARK                            x       y       z     vdW  Elec       q    Type
REMARK                         _______ _______ _______ _____ _____    ______ ____
ROOT
ATOM      1  C5M   T A  1       23.839 -14.050   4.425  0.00  0.00    +0.051 C 
ATOM      2  C5    T A  1       24.374 -15.390   4.043  0.00  0.00    +0.030 C 
ATOM      3  C4    T A  1       25.798 -15.482   3.650  0.00  0.00    +0.257 C 
ATOM      4  O4    T A  1       26.541 -14.508   3.669  0.00  0.00    -0.267 OA
ATOM      5  N3    T A  1       26.227 -16.719   3.262  0.00  0.00    -0.275 N 
ATOM      6  H3    T A  1       27.193 -16.800   2.988  0.00  0.00    +0.173 HD
ATOM      7  C2    T A  1       25.492 -17.874   3.275  0.00  0.00    +0.331 C 
ATOM      8  O2    T A  1       25.998 -18.936   2.917  0.00  0.00    -0.246 OA
ATOM      9  N1    T A  1       24.179 -17.748   3.714  0.00  0.00    -0.274 N 
ATOM     10  C6    T A  1       23.653 -16.517   4.052  0.00  0.00    +0.102 C 
ENDROOT
BRANCH   9  11
ATOM     11  C1*   T A  1       23.383 -18.973   3.790  0.00  0.00    +0.226 C 
ATOM     12  O4*   T A  1       24.240 -20.127   3.661  0.00  0.00    -0.348 OA
ATOM     13  C4*   T A  1       24.065 -20.950   4.833  0.00  0.00    +0.175 C 
ATOM     14  C3*   T A  1       23.494 -20.038   5.908  0.00  0.00    +0.150 C 
ATOM     15  C2*   T A  1       22.607 -19.123   5.096  0.00  0.00    +0.088 C 
BRANCH  14  16
ATOM     16  O3*   T A  1       22.783 -20.734   6.916  0.00  0.00    -0.389 OA
ATOM     17  H3*   T A  1       22.851 -20.243   7.754  0.00  0.00    +0.210 HD
ENDBRANCH  14  16
BRANCH  13  18
ATOM     18  C5*   T A  1       25.406 -21.572   5.213  0.00  0.00    +0.190 C 
BRANCH  18  19
ATOM     19  O5*   T A  1       26.423 -20.570   5.180  0.00  0.00    -0.392 OA
ATOM     20  H5*   T A  1       26.390 -20.120   6.045  0.00  0.00    +0.209 HD
ENDBRANCH  18  19
ENDBRANCH  13  18
ENDBRANCH   9  11
TORSDOF 4
ENDMDL
MODEL 5
REMARK VINA RESULT:      -2.7      1.486      2.384
REMARK  Name = *****
REMARK                            x       y       z     vdW  Elec       q    Type
REMARK                         _______ _______ _______ _____ _____    ______ ____
ROOT
ATOM      1  C5M   T A  1       29.475 -19.131   6.391  0.00  0.00    +0.051 C 
ATOM      2  C5    T A  1       28.380 -18.745   5.452  0.00  0.00    +0.030 C 
ATOM      3  C4    T A  1       27.273 -19.704   5.246  0.00  0.00    +0.257 C 
ATOM      4  O4    T A  1       27.216 -20.770   5.848  0.00  0.00    -0.267 OA
ATOM      5  N3    T A  1       26.321 -19.327   4.342  0.00  0.00    -0.275 N 
ATOM      6  H3    T A  1       25.561 -19.970   4.187  0.00  0.00    +0.173 HD
ATOM      7  C2    T A  1       26.263 -18.132   3.676  0.00  0.00    +0.331 C 
ATOM      8  O2    T A  1       25.342 -17.900   2.896  0.00  0.00    -0.246 OA
ATOM      9  N1    T A  1       27.291 -17.238   3.953  0.00  0.00    -0.274 N 
ATOM     10  C6    T A  1       28.328 -17.578   4.799  0.00  0.00    +0.102 C 
ENDROOT
BRANCH   9  11
ATOM     11  C1*   T A  1       27.230 -15.931   3.298  0.00  0.00    +0.226 C 
ATOM     12  O4*   T A  1       25.854 -15.560   3.067  0.00  0.00    -0.348 OA
ATOM     13  C4*   T A  1       25.613 -14.297   3.722  0.00  0.00    +0.175 C 
ATOM     14  C3*   T A  1       26.693 -14.159   4.783  0.00  0.00    +0.150 C 
ATOM     15  C2*   T A  1       27.876 -14.807   4.104  0.00  0.00    +0.088 C 
BRANCH  14  16
ATOM     16  O3*   T A  1       26.946 -12.816   5.156  0.00  0.00    -0.389 OA
ATOM     17  H3*   T A  1       26.337 -12.229   4.674  0.00  0.00    +0.210 HD
ENDBRANCH  14  16
BRANCH  13  18
ATOM     18  C5*   T A  1       24.197 -14.291   4.292  0.00  0.00    +0.190 C 
BRANCH  18  19
ATOM     19  O5*   T A  1       23.806 -12.950   4.586  0.00  0.00    -0.392 OA
ATOM     20  H5*   T A  1       22.966 -13.013   5.080  0.00  0.00    +0.209 HD
ENDBRANCH  18  19
ENDBRANCH  13  18
ENDBRANCH   9  11
TORSDOF 4
ENDMDL
MODEL 6
REMARK VINA RESULT:      -2.5      2.352      3.592
REMARK  Name = *****
REMARK                            x       y       z     vdW  Elec       q    Type
REMARK                         _______ _______ _______ _____ _____    ______ ____
ROOT
ATOM      1  C5M   T A  1       25.724 -19.004   2.921  0.00  0.00    +0.051 C 
ATOM      2  C5    T A  1       24.687 -18.128   3.542  0.00  0.00    +0.030 C 
ATOM      3  C4    T A  1       23.443 -18.764   4.028  0.00  0.00    +0.257 C 
ATOM      4  O4    T A  1       23.266 -19.975   3.967  0.00  0.00    -0.267 OA
ATOM      5  N3    T A  1       22.505 -17.916   4.544  0.00  0.00    -0.275 N 
ATOM      6  H3    T A  1       21.650 -18.332   4.876  0.00  0.00    +0.173 HD
ATOM      7  C2    T A  1       22.640 -16.565   4.716  0.00  0.00    +0.331 C 
ATOM      8  O2    T A  1       21.727 -15.907   5.210  0.00  0.00    -0.246 OA
ATOM      9  N1    T A  1       23.853 -16.023   4.304  0.00  0.00    -0.274 N 
ATOM     10  C6    T A  1       24.820 -16.807   3.706  0.00  0.00    +0.102 C 
ENDROOT
BRANCH   9  11
ATOM     11  C1*   T A  1       24.050 -14.590   4.523  0.00  0.00    +0.226 C 
ATOM     12  O4*   T A  1       25.454 -14.310   4.713  0.00  0.00    -0.348 OA
ATOM     13  C4*   T A  1       25.859 -13.350   3.715  0.00  0.00    +0.175 C 
ATOM     14  C3*   T A  1       24.831 -13.442   2.598  0.00  0.00    +0.150 C 
ATOM     15  C2*   T A  1       23.562 -13.718   3.370  0.00  0.00    +0.088 C 
BRANCH  14  16
ATOM     16  O3*   T A  1       24.748 -12.267   1.812  0.00  0.00    -0.389 OA
ATOM     17  H3*   T A  1       23.997 -11.729   2.118  0.00  0.00    +0.210 HD
ENDBRANCH  14  16
BRANCH  13  18
ATOM     18  C5*   T A  1       27.280 -13.670   3.261  0.00  0.00    +0.190 C 
BRANCH  18  19
ATOM     19  O5*   T A  1       27.264 -14.083   1.894  0.00  0.00    -0.392 OA
ATOM     20  H5*   T A  1       27.607 -13.328   1.378  0.00  0.00    +0.209 HD
ENDBRANCH  18  19
ENDBRANCH  13  18
ENDBRANCH   9  11
TORSDOF 4
ENDMDL
MODEL 7
REMARK VINA RESULT:      -2.2      1.684      2.659
REMARK  Name = *****
REMARK                            x       y       z     vdW  Elec       q    Type
REMARK                         _______ _______ _______ _____ _____    ______ ____
ROOT
ATOM      1  C5M   T A  1       22.063 -18.642   4.487  0.00  0.00    +0.051 C 
ATOM      2  C5    T A  1       23.321 -17.933   4.108  0.00  0.00    +0.030 C 
ATOM      3  C4    T A  1       24.489 -18.754   3.718  0.00  0.00    +0.257 C 
ATOM      4  O4    T A  1       24.433 -19.977   3.662  0.00  0.00    -0.267 OA
ATOM      5  N3    T A  1       25.629 -18.062   3.427  0.00  0.00    -0.275 N 
ATOM      6  H3    T A  1       26.435 -18.605   3.162  0.00  0.00    +0.173 HD
ATOM      7  C2    T A  1       25.766 -16.700   3.393  0.00  0.00    +0.331 C 
ATOM      8  O2    T A  1       26.846 -16.191   3.099  0.00  0.00    -0.246 OA
ATOM      9  N1    T A  1       24.623 -15.972   3.704  0.00  0.00    -0.274 N 
ATOM     10  C6    T A  1       23.454 -16.602   4.080  0.00  0.00    +0.102 C 
ENDROOT
BRANCH   9  11
ATOM     11  C1*   T A  1       24.722 -14.514   3.625  0.00  0.00    +0.226 C 
ATOM     12  O4*   T A  1       25.122 -13.978   4.905  0.00  0.00    -0.348 OA
ATOM     13  C4*   T A  1       26.336 -13.222   4.715  0.00  0.00    +0.175 C 
ATOM     14  C3*   T A  1       26.953 -13.731   3.421  0.00  0.00    +0.150 C 
ATOM     15  C2*   T A  1       25.726 -14.020   2.588  0.00  0.00    +0.088 C 
BRANCH  14  16
ATOM     16  O3*   T A  1       27.823 -12.797   2.808  0.00  0.00    -0.389 OA
ATOM     17  H3*   T A  1       27.823 -12.943   1.845  0.00  0.00    +0.210 HD
ENDBRANCH  14  16
BRANCH  13  18
ATOM     18  C5*   T A  1       27.237 -13.407   5.933  0.00  0.00    +0.190 C 
BRANCH  18  19
ATOM     19  O5*   T A  1       28.372 -12.548   5.822  0.00  0.00    -0.392 OA
ATOM     20  H5*   T A  1       28.934 -12.738   6.598  0.00  0.00    +0.209 HD
ENDBRANCH  18  19
ENDBRANCH  13  18
ENDBRANCH   9  11
TORSDOF 4
ENDMDL
MODEL 8
REMARK VINA RESULT:      -2.2      1.730      2.185
REMARK  Name = *****
REMARK                            x       y       z     vdW  Elec       q    Type
REMARK                         _______ _______ _______ _____ _____    ______ ____
ROOT
ATOM      1  C5M   T A  1       21.963 -19.744   4.761  0.00  0.00    +0.051 C 
ATOM      2  C5    T A  1       23.455 -19.683   4.772  0.00  0.00    +0.030 C 
ATOM      3  C4    T A  1       24.182 -20.644   5.630  0.00  0.00    +0.257 C 
ATOM      4  O4    T A  1       23.598 -21.498   6.288  0.00  0.00    -0.267 OA
ATOM      5  N3    T A  1       25.541 -20.517   5.644  0.00  0.00    -0.275 N 
ATOM      6  H3    T A  1       26.052 -21.162   6.225  0.00  0.00    +0.173 HD
ATOM      7  C2    T A  1       26.283 -19.644   4.893  0.00  0.00    +0.331 C 
ATOM      8  O2    T A  1       27.509 -19.636   4.980  0.00  0.00    -0.246 OA
ATOM      9  N1    T A  1       25.558 -18.806   4.054  0.00  0.00    -0.274 N 
ATOM     10  C6    T A  1       24.177 -18.826   4.041  0.00  0.00    +0.102 C 
ENDROOT
BRANCH   9  11
ATOM     11  C1*   T A  1       26.322 -17.898   3.199  0.00  0.00    +0.226 C 
ATOM     12  O4*   T A  1       25.496 -16.783   2.801  0.00  0.00    -0.348 OA
ATOM     13  C4*   T A  1       26.147 -15.567   3.227  0.00  0.00    +0.175 C 
ATOM     14  C3*   T A  1       27.106 -15.969   4.338  0.00  0.00    +0.150 C 
ATOM     15  C2*   T A  1       27.570 -17.327   3.867  0.00  0.00    +0.088 C 
BRANCH  14  16
ATOM     16  O3*   T A  1       28.175 -15.056   4.513  0.00  0.00    -0.389 OA
ATOM     17  H3*   T A  1       27.854 -14.151   4.356  0.00  0.00    +0.210 HD
ENDBRANCH  14  16
BRANCH  13  18
ATOM     18  C5*   T A  1       25.088 -14.562   3.672  0.00  0.00    +0.190 C 
BRANCH  18  19
ATOM     19  O5*   T A  1       25.622 -13.731   4.703  0.00  0.00    -0.392 OA
ATOM     20  H5*   T A  1       25.983 -14.335   5.380  0.00  0.00    +0.209 HD
ENDBRANCH  18  19
ENDBRANCH  13  18
ENDBRANCH   9  11
TORSDOF 4
ENDMDL
MODEL 9
REMARK VINA RESULT:      -2.1      2.095      2.653
REMARK  Name = *****
REMARK                            x       y       z     vdW  Elec       q    Type
REMARK                         _______ _______ _______ _____ _____    ______ ____
ROOT
ATOM      1  C5M   T A  1       25.070 -20.047   3.547  0.00  0.00    +0.051 C 
ATOM      2  C5    T A  1       24.645 -18.623   3.695  0.00  0.00    +0.030 C 
ATOM      3  C4    T A  1       23.311 -18.354   4.275  0.00  0.00    +0.257 C 
ATOM      4  O4    T A  1       22.578 -19.256   4.663  0.00  0.00    -0.267 OA
ATOM      5  N3    T A  1       22.949 -17.040   4.345  0.00  0.00    -0.275 N 
ATOM      6  H3    T A  1       22.042 -16.838   4.734  0.00  0.00    +0.173 HD
ATOM      7  C2    T A  1       23.725 -15.965   4.003  0.00  0.00    +0.331 C 
ATOM      8  O2    T A  1       23.292 -14.821   4.128  0.00  0.00    -0.246 OA
ATOM      9  N1    T A  1       24.995 -16.266   3.524  0.00  0.00    -0.274 N 
ATOM     10  C6    T A  1       25.404 -17.574   3.356  0.00  0.00    +0.102 C 
ENDROOT
BRANCH   9  11
ATOM     11  C1*   T A  1       25.869 -15.139   3.200  0.00  0.00    +0.226 C 
ATOM     12  O4*   T A  1       25.093 -13.924   3.112  0.00  0.00    -0.348 OA
ATOM     13  C4*   T A  1       25.636 -12.976   4.055  0.00  0.00    +0.175 C 
ATOM     14  C3*   T A  1       26.408 -13.794   5.079  0.00  0.00    +0.150 C 
ATOM     15  C2*   T A  1       26.975 -14.902   4.224  0.00  0.00    +0.088 C 
BRANCH  14  16
ATOM     16  O3*   T A  1       27.411 -13.052   5.749  0.00  0.00    -0.389 OA
ATOM     17  H3*   T A  1       27.413 -13.294   6.692  0.00  0.00    +0.210 HD
ENDBRANCH  14  16
BRANCH  13  18
ATOM     18  C5*   T A  1       24.495 -12.164   4.661  0.00  0.00    +0.190 C 
BRANCH  18  19
ATOM     19  O5*   T A  1       23.603 -11.747   3.626  0.00  0.00    -0.392 OA
ATOM     20  H5*   T A  1       23.946 -10.894   3.299  0.00  0.00    +0.209 HD
ENDBRANCH  18  19
ENDBRANCH  13  18
ENDBRANCH   9  11
TORSDOF 4
ENDMDL
