MODEL 1
REMARK VINA RESULT:      -5.6      0.000      0.000
REMARK  Name = *****
REMARK                            x       y       z     vdW  Elec       q    Type
REMARK                         _______ _______ _______ _____ _____    ______ ____
ROOT
ATOM      1  N   LIG    1       23.515 -20.063   5.081  0.00  0.00    -0.298 N 
ATOM      2  C   LIG    1       24.819 -20.188   4.551  0.00  0.00    +0.247 C 
ATOM      3  O   LIG    1       24.998 -20.203   3.333  0.00  0.00    -0.270 OA
ENDROOT
BRANCH   2   4
ATOM      4  C   LIG    1       26.074 -20.338   5.468  0.00  0.00    +0.037 A 
ATOM      5  C   LIG    1       27.124 -19.406   5.244  0.00  0.00    +0.016 A 
ATOM      6  C   LIG    1       28.365 -19.530   5.924  0.00  0.00    -0.050 A 
ATOM      7  C   LIG    1       29.475 -18.546   5.712  0.00  0.00    +0.044 C 
ATOM      8  C   LIG    1       28.601 -20.618   6.764  0.00  0.00    +0.003 A 
ATOM      9  C   LIG    1       27.575 -21.497   7.023  0.00  0.00    +0.001 A 
ATOM     10  C   LIG    1       26.324 -21.283   6.445  0.00  0.00    +0.013 A 
ENDBRANCH   2   4
BRANCH   1  12
ATOM     11  C   LIG    1       21.872 -18.472   3.947  0.00  0.00    +0.024 C 
ATOM     12  C   LIG    1       22.368 -19.909   4.133  0.00  0.00    +0.104 C 
ENDBRANCH   1  12
BRANCH   1  13
ATOM     13  C   LIG    1       23.084 -20.159   6.474  0.00  0.00    +0.104 C 
ATOM     14  C   LIG    1       23.092 -21.572   7.043  0.00  0.00    +0.024 C 
ENDBRANCH   1  13
TORSDOF 3
ENDMDL
MODEL 2
REMARK VINA RESULT:      -5.3      1.518      2.216
REMARK  Name = *****
REMARK                            x       y       z     vdW  Elec       q    Type
REMARK                         _______ _______ _______ _____ _____    ______ ____
ROOT
ATOM      1  N   LIG    1       24.629 -20.421   4.673  0.00  0.00    -0.298 N 
ATOM      2  C   LIG    1       25.099 -20.714   5.972  0.00  0.00    +0.247 C 
ATOM      3  O   LIG    1       24.310 -21.018   6.867  0.00  0.00    -0.270 OA
ENDROOT
BRANCH   2   4
ATOM      4  C   LIG    1       26.615 -20.645   6.339  0.00  0.00    +0.037 A 
ATOM      5  C   LIG    1       27.315 -19.494   5.882  0.00  0.00    +0.016 A 
ATOM      6  C   LIG    1       28.723 -19.388   6.038  0.00  0.00    -0.050 A 
ATOM      7  C   LIG    1       29.471 -18.174   5.577  0.00  0.00    +0.044 C 
ATOM      8  C   LIG    1       29.452 -20.448   6.573  0.00  0.00    +0.003 A 
ATOM      9  C   LIG    1       28.780 -21.544   7.061  0.00  0.00    +0.001 A 
ATOM     10  C   LIG    1       27.387 -21.572   7.014  0.00  0.00    +0.013 A 
ENDBRANCH   2   4
BRANCH   1  12
ATOM     11  C   LIG    1       22.331 -19.326   4.862  0.00  0.00    +0.024 C 
ATOM     12  C   LIG    1       23.162 -20.526   4.401  0.00  0.00    +0.104 C 
ENDBRANCH   1  12
BRANCH   1  13
ATOM     13  C   LIG    1       25.378 -19.916   3.525  0.00  0.00    +0.104 C 
ATOM     14  C   LIG    1       25.176 -18.434   3.237  0.00  0.00    +0.024 C 
ENDBRANCH   1  13
TORSDOF 3
ENDMDL
MODEL 3
REMARK VINA RESULT:      -4.6      3.896      5.167
REMARK  Name = *****
REMARK                            x       y       z     vdW  Elec       q    Type
REMARK                         _______ _______ _______ _____ _____    ______ ____
ROOT
ATOM      1  N   LIG    1       24.125 -18.300   3.753  0.00  0.00    -0.298 N 
ATOM      2  C   LIG    1       25.258 -17.530   3.409  0.00  0.00    +0.247 C 
ATOM      3  O   LIG    1       26.267 -18.074   2.957  0.00  0.00    -0.270 OA
ENDROOT
BRANCH   2   4
ATOM      4  C   LIG    1       25.298 -15.982   3.605  0.00  0.00    +0.037 A 
ATOM      5  C   LIG    1       26.578 -15.372   3.498  0.00  0.00    +0.016 A 
ATOM      6  C   LIG    1       26.755 -13.994   3.791  0.00  0.00    -0.050 A 
ATOM      7  C   LIG    1       28.094 -13.333   3.665  0.00  0.00    +0.044 C 
ATOM      8  C   LIG    1       25.688 -13.233   4.266  0.00  0.00    +0.003 A 
ATOM      9  C   LIG    1       24.436 -13.802   4.328  0.00  0.00    +0.001 A 
ATOM     10  C   LIG    1       24.261 -15.121   3.912  0.00  0.00    +0.013 A 
ENDBRANCH   2   4
BRANCH   1  12
ATOM     11  C   LIG    1       24.728 -20.601   4.680  0.00  0.00    +0.024 C 
ATOM     12  C   LIG    1       24.163 -19.777   3.520  0.00  0.00    +0.104 C 
ENDBRANCH   1  12
BRANCH   1  13
ATOM     13  C   LIG    1       22.898 -17.868   4.420  0.00  0.00    +0.104 C 
ATOM     14  C   LIG    1       21.660 -18.673   4.050  0.00  0.00    +0.024 C 
ENDBRANCH   1  13
TORSDOF 3
ENDMDL
MODEL 4
REMARK VINA RESULT:      -4.6      3.763      5.787
REMARK  Name = *****
REMARK                            x       y       z     vdW  Elec       q    Type
REMARK                         _______ _______ _______ _____ _____    ______ ____
ROOT
ATOM      1  N   LIG    1       24.818 -15.041   3.795  0.00  0.00    -0.298 N 
ATOM      2  C   LIG    1       23.817 -15.981   4.131  0.00  0.00    +0.247 C 
ATOM      3  O   LIG    1       22.742 -15.605   4.597  0.00  0.00    -0.270 OA
ENDROOT
BRANCH   2   4
ATOM      4  C   LIG    1       24.032 -17.517   3.954  0.00  0.00    +0.037 A 
ATOM      5  C   LIG    1       22.974 -18.351   4.409  0.00  0.00    +0.016 A 
ATOM      6  C   LIG    1       23.116 -19.764   4.424  0.00  0.00    -0.050 A 
ATOM      7  C   LIG    1       22.004 -20.657   4.884  0.00  0.00    +0.044 C 
ATOM      8  C   LIG    1       24.327 -20.353   4.064  0.00  0.00    +0.003 A 
ATOM      9  C   LIG    1       25.339 -19.558   3.578  0.00  0.00    +0.001 A 
ATOM     10  C   LIG    1       25.132 -18.185   3.450  0.00  0.00    +0.013 A 
ENDBRANCH   2   4
BRANCH   1  12
ATOM     11  C   LIG    1       24.209 -12.820   2.694  0.00  0.00    +0.024 C 
ATOM     12  C   LIG    1       24.526 -13.586   3.981  0.00  0.00    +0.104 C 
ENDBRANCH   1  12
BRANCH   1  13
ATOM     13  C   LIG    1       26.192 -15.288   3.362  0.00  0.00    +0.104 C 
ATOM     14  C   LIG    1       27.244 -14.470   4.098  0.00  0.00    +0.024 C 
ENDBRANCH   1  13
TORSDOF 3
ENDMDL
MODEL 5
REMARK VINA RESULT:      -4.3      1.601      5.100
REMARK  Name = *****
REMARK                            x       y       z     vdW  Elec       q    Type
REMARK                         _______ _______ _______ _____ _____    ______ ____
ROOT
ATOM      1  N   LIG    1       27.581 -19.828   5.622  0.00  0.00    -0.298 N 
ATOM      2  C   LIG    1       26.577 -19.401   4.725  0.00  0.00    +0.247 C 
ATOM      3  O   LIG    1       26.827 -18.554   3.867  0.00  0.00    -0.270 OA
ENDROOT
BRANCH   2   4
ATOM      4  C   LIG    1       25.118 -19.954   4.791  0.00  0.00    +0.037 A 
ATOM      5  C   LIG    1       24.093 -19.061   4.373  0.00  0.00    +0.016 A 
ATOM      6  C   LIG    1       22.723 -19.406   4.518  0.00  0.00    -0.050 A 
ATOM      7  C   LIG    1       21.633 -18.483   4.066  0.00  0.00    +0.044 C 
ATOM      8  C   LIG    1       22.361 -20.596   5.147  0.00  0.00    +0.003 A 
ATOM      9  C   LIG    1       23.344 -21.486   5.511  0.00  0.00    +0.001 A 
ATOM     10  C   LIG    1       24.678 -21.184   5.242  0.00  0.00    +0.013 A 
ENDBRANCH   2   4
BRANCH   1  12
ATOM     11  C   LIG    1       29.465 -18.483   6.699  0.00  0.00    +0.024 C 
ATOM     12  C   LIG    1       28.957 -19.259   5.481  0.00  0.00    +0.104 C 
ENDBRANCH   1  12
BRANCH   1  13
ATOM     13  C   LIG    1       27.453 -20.710   6.780  0.00  0.00    +0.104 C 
ATOM     14  C   LIG    1       28.680 -21.567   7.062  0.00  0.00    +0.024 C 
ENDBRANCH   1  13
TORSDOF 3
ENDMDL
MODEL 6
REMARK VINA RESULT:      -4.1      4.119      5.731
REMARK  Name = *****
REMARK                            x       y       z     vdW  Elec       q    Type
REMARK                         _______ _______ _______ _____ _____    ______ ____
ROOT
ATOM      1  N   LIG    1       23.530 -18.247   4.040  0.00  0.00    -0.298 N 
ATOM      2  C   LIG    1       23.226 -16.895   4.316  0.00  0.00    +0.247 C 
ATOM      3  O   LIG    1       22.149 -16.592   4.829  0.00  0.00    -0.270 OA
ENDROOT
BRANCH   2   4
ATOM      4  C   LIG    1       24.213 -15.737   3.968  0.00  0.00    +0.037 A 
ATOM      5  C   LIG    1       23.683 -14.420   4.050  0.00  0.00    +0.016 A 
ATOM      6  C   LIG    1       24.446 -13.300   3.625  0.00  0.00    -0.050 A 
ATOM      7  C   LIG    1       23.908 -11.905   3.722  0.00  0.00    +0.044 C 
ATOM      8  C   LIG    1       25.701 -13.483   3.047  0.00  0.00    +0.003 A 
ATOM      9  C   LIG    1       26.241 -14.748   3.007  0.00  0.00    +0.001 A 
ATOM     10  C   LIG    1       25.527 -15.817   3.547  0.00  0.00    +0.013 A 
ENDBRANCH   2   4
BRANCH   1  12
ATOM     11  C   LIG    1       22.780 -19.958   5.779  0.00  0.00    +0.024 C 
ATOM     12  C   LIG    1       22.535 -19.298   4.420  0.00  0.00    +0.104 C 
ENDBRANCH   1  12
BRANCH   1  13
ATOM     13  C   LIG    1       24.679 -18.794   3.322  0.00  0.00    +0.104 C 
ATOM     14  C   LIG    1       25.627 -19.621   4.181  0.00  0.00    +0.024 C 
ENDBRANCH   1  13
TORSDOF 3
ENDMDL
MODEL 7
REMARK VINA RESULT:      -4.0      3.153      4.672
REMARK  Name = *****
REMARK                            x       y       z     vdW  Elec       q    Type
REMARK                         _______ _______ _______ _____ _____    ______ ____
ROOT
ATOM      1  N   LIG    1       24.547 -19.842   4.327  0.00  0.00    -0.298 N 
ATOM      2  C   LIG    1       23.993 -18.641   3.829  0.00  0.00    +0.247 C 
ATOM      3  O   LIG    1       22.839 -18.618   3.402  0.00  0.00    -0.270 OA
ENDROOT
BRANCH   2   4
ATOM      4  C   LIG    1       24.812 -17.313   3.771  0.00  0.00    +0.037 A 
ATOM      5  C   LIG    1       24.089 -16.122   4.054  0.00  0.00    +0.016 A 
ATOM      6  C   LIG    1       24.696 -14.848   3.899  0.00  0.00    -0.050 A 
ATOM      7  C   LIG    1       23.953 -13.584   4.209  0.00  0.00    +0.044 C 
ATOM      8  C   LIG    1       25.990 -14.742   3.391  0.00  0.00    +0.003 A 
ATOM      9  C   LIG    1       26.714 -15.889   3.160  0.00  0.00    +0.001 A 
ATOM     10  C   LIG    1       26.142 -17.130   3.442  0.00  0.00    +0.013 A 
ENDBRANCH   2   4
BRANCH   1  12
ATOM     11  C   LIG    1       22.690 -21.125   5.520  0.00  0.00    +0.024 C 
ATOM     12  C   LIG    1       23.690 -21.067   4.361  0.00  0.00    +0.104 C 
ENDBRANCH   1  12
BRANCH   1  13
ATOM     13  C   LIG    1       25.922 -20.106   4.747  0.00  0.00    +0.104 C 
ATOM     14  C   LIG    1       26.070 -20.512   6.207  0.00  0.00    +0.024 C 
ENDBRANCH   1  13
TORSDOF 3
ENDMDL
MODEL 8
REMARK VINA RESULT:      -3.8      3.482      5.692
REMARK  Name = *****
REMARK                            x       y       z     vdW  Elec       q    Type
REMARK                         _______ _______ _______ _____ _____    ______ ____
ROOT
ATOM      1  N   LIG    1       25.555 -15.476   3.662  0.00  0.00    -0.298 N 
ATOM      2  C   LIG    1       26.041 -16.789   3.471  0.00  0.00    +0.247 C 
ATOM      3  O   LIG    1       27.192 -16.975   3.076  0.00  0.00    -0.270 OA
ENDROOT
BRANCH   2   4
ATOM      4  C   LIG    1       25.150 -18.046   3.724  0.00  0.00    +0.037 A 
ATOM      5  C   LIG    1       23.745 -17.826   3.717  0.00  0.00    +0.016 A 
ATOM      6  C   LIG    1       22.844 -18.866   4.068  0.00  0.00    -0.050 A 
ATOM      7  C   LIG    1       21.361 -18.655   4.049  0.00  0.00    +0.044 C 
ATOM      8  C   LIG    1       23.328 -20.099   4.503  0.00  0.00    +0.003 A 
ATOM      9  C   LIG    1       24.683 -20.336   4.467  0.00  0.00    +0.001 A 
ATOM     10  C   LIG    1       25.541 -19.344   3.996  0.00  0.00    +0.013 A 
ENDBRANCH   2   4
BRANCH   1  12
ATOM     11  C   LIG    1       27.192 -13.789   4.656  0.00  0.00    +0.024 C 
ATOM     12  C   LIG    1       26.478 -14.326   3.413  0.00  0.00    +0.104 C 
ENDBRANCH   1  12
BRANCH   1  13
ATOM     13  C   LIG    1       24.197 -15.046   3.991  0.00  0.00    +0.104 C 
ATOM     14  C   LIG    1       23.806 -13.690   3.418  0.00  0.00    +0.024 C 
ENDBRANCH   1  13
TORSDOF 3
ENDMDL
MODEL 9
REMARK VINA RESULT:      -3.5      4.117      6.113
REMARK  Name = *****
REMARK                            x       y       z     vdW  Elec       q    Type
REMARK                         _______ _______ _______ _____ _____    ______ ____
ROOT
ATOM      1  N   LIG    1       25.160 -14.687   3.617  0.00  0.00    -0.298 N 
ATOM      2  C   LIG    1       23.894 -15.101   4.091  0.00  0.00    +0.247 C 
ATOM      3  O   LIG    1       23.054 -14.268   4.431  0.00  0.00    -0.270 OA
ENDROOT
BRANCH   2   4
ATOM      4  C   LIG    1       23.515 -16.609   4.227  0.00  0.00    +0.037 A 
ATOM      5  C   LIG    1       24.518 -17.541   3.844  0.00  0.00    +0.016 A 
ATOM      6  C   LIG    1       24.239 -18.933   3.798  0.00  0.00    -0.050 A 
ATOM      7  C   LIG    1       25.290 -19.929   3.413  0.00  0.00    +0.044 C 
ATOM      8  C   LIG    1       22.950 -19.400   4.052  0.00  0.00    +0.003 A 
ATOM      9  C   LIG    1       21.986 -18.512   4.469  0.00  0.00    +0.001 A 
ATOM     10  C   LIG    1       22.317 -17.167   4.632  0.00  0.00    +0.013 A 
ENDBRANCH   2   4
BRANCH   1  12
ATOM     11  C   LIG    1       24.975 -12.576   2.193  0.00  0.00    +0.024 C 
ATOM     12  C   LIG    1       25.438 -13.221   3.502  0.00  0.00    +0.104 C 
ENDBRANCH   1  12
BRANCH   1  13
ATOM     13  C   LIG    1       26.325 -15.507   3.296  0.00  0.00    +0.104 C 
ATOM     14  C   LIG    1       27.631 -15.020   3.910  0.00  0.00    +0.024 C 
ENDBRANCH   1  13
TORSDOF 3
ENDMDL
