MODEL 1
REMARK VINA RESULT:       6.7      0.000      0.000
REMARK  Name = *****
REMARK                            x       y       z     vdW  Elec       q    Type
REMARK                         _______ _______ _______ _____ _____    ______ ____
ROOT
ATOM      1  C   LIG    1       22.943 -18.038   3.901  0.00  0.00    +0.183 C 
ATOM      2  C   LIG    1       24.124 -17.044   4.165  0.00  0.00    +0.008 C 
ATOM      3  C   LIG    1       25.024 -17.584   5.312  0.00  0.00    +0.015 C 
ATOM      4  C   LIG    1       23.419 -15.743   4.669  0.00  0.00    +0.002 C 
ATOM      5  C   LIG    1       23.745 -14.393   3.994  0.00  0.00    -0.003 C 
ATOM      6  C   LIG    1       25.014 -14.385   3.127  0.00  0.00    -0.000 C 
ATOM      7  C   LIG    1       24.932 -15.586   2.176  0.00  0.00    +0.005 C 
ATOM      8  C   LIG    1       26.351 -14.276   3.923  0.00  0.00    +0.019 C 
ATOM      9  C   LIG    1       26.270 -13.236   5.030  0.00  0.00    -0.063 C 
ATOM     10  C   LIG    1       27.256 -12.364   5.305  0.00  0.00    +0.045 C 
ATOM     11  C   LIG    1       28.555 -12.426   4.600  0.00  0.00    +0.156 C 
ATOM     12  O   LIG    1       29.423 -11.596   4.854  0.00  0.00    -0.293 OA
ATOM     13  C   LIG    1       28.796 -13.590   3.672  0.00  0.00    +0.079 C 
ATOM     14  C   LIG    1       25.023 -13.254   5.875  0.00  0.00    +0.031 C 
ATOM     15  C   LIG    1       27.514 -13.976   2.952  0.00  0.00    +0.016 C 
ATOM     16  C   LIG    1       23.766 -13.243   5.014  0.00  0.00    +0.008 C 
ATOM     17  C   LIG    1       21.906 -16.036   4.589  0.00  0.00    +0.008 C 
ATOM     18  C   LIG    1       25.013 -16.920   2.902  0.00  0.00    +0.011 C 
ATOM     19  C   LIG    1       21.805 -17.536   4.781  0.00  0.00    +0.045 C 
ENDROOT
BRANCH   1  20
ATOM     20  O   LIG    1       23.361 -19.372   4.185  0.00  0.00    -0.461 OA
BRANCH  20  21
ATOM     21  C   LIG    1       22.424 -20.248   4.614  0.00  0.00    +0.307 C 
ATOM     22  O   LIG    1       21.276 -20.342   4.189  0.00  0.00    -0.251 OA
BRANCH  21  23
ATOM     23  C   LIG    1       23.052 -21.196   5.604  0.00  0.00    +0.120 C 
BRANCH  23  24
ATOM     24  C   LIG    1       24.182 -20.479   6.339  0.00  0.00    +0.011 C 
BRANCH  24  25
ATOM     25  C   LIG    1       25.106 -21.462   7.059  0.00  0.00    +0.000 C 
BRANCH  25  26
ATOM     26  C   LIG    1       26.563 -20.988   7.047  0.00  0.00    +0.000 C 
BRANCH  26  27
ATOM     27  C   LIG    1       27.141 -20.969   5.628  0.00  0.00    -0.000 C 
BRANCH  27  28
ATOM     28  C   LIG    1       28.644 -20.665   5.579  0.00  0.00    -0.000 C 
BRANCH  28  29
ATOM     29  C   LIG    1       29.230 -20.207   6.919  0.00  0.00    -0.000 C 
BRANCH  29  31
ATOM     30  C   LIG    1       29.226 -17.993   5.672  0.00  0.00    +0.004 C 
ATOM     31  C   LIG    1       29.436 -18.692   7.008  0.00  0.00    -0.003 C 
ENDBRANCH  29  31
ENDBRANCH  28  29
ENDBRANCH  27  28
ENDBRANCH  26  27
ENDBRANCH  25  26
ENDBRANCH  24  25
ENDBRANCH  23  24
ENDBRANCH  21  23
ENDBRANCH  20  21
ENDBRANCH   1  20
TORSDOF 10
ENDMDL
MODEL 2
REMARK VINA RESULT:       7.1      2.192      7.340
REMARK  Name = *****
REMARK                            x       y       z     vdW  Elec       q    Type
REMARK                         _______ _______ _______ _____ _____    ______ ____
ROOT
ATOM      1  C   LIG    1       28.212 -20.384   5.428  0.00  0.00    +0.183 C 
ATOM      2  C   LIG    1       26.786 -19.845   5.070  0.00  0.00    +0.008 C 
ATOM      3  C   LIG    1       26.763 -18.293   5.179  0.00  0.00    +0.015 C 
ATOM      4  C   LIG    1       25.867 -20.426   6.193  0.00  0.00    +0.002 C 
ATOM      5  C   LIG    1       24.587 -21.198   5.802  0.00  0.00    -0.003 C 
ATOM      6  C   LIG    1       24.129 -21.010   4.347  0.00  0.00    -0.000 C 
ATOM      7  C   LIG    1       25.342 -21.261   3.443  0.00  0.00    +0.005 C 
ATOM      8  C   LIG    1       23.374 -19.674   4.066  0.00  0.00    +0.019 C 
ATOM      9  C   LIG    1       22.358 -19.356   5.152  0.00  0.00    -0.063 C 
ATOM     10  C   LIG    1       21.123 -18.885   4.902  0.00  0.00    +0.045 C 
ATOM     11  C   LIG    1       20.698 -18.540   3.527  0.00  0.00    +0.156 C 
ATOM     12  O   LIG    1       19.553 -18.140   3.330  0.00  0.00    -0.293 OA
ATOM     13  C   LIG    1       21.737 -18.588   2.436  0.00  0.00    +0.079 C 
ATOM     14  C   LIG    1       22.819 -19.542   6.574  0.00  0.00    +0.031 C 
ATOM     15  C   LIG    1       22.709 -19.734   2.673  0.00  0.00    +0.016 C 
ATOM     16  C   LIG    1       23.439 -20.918   6.784  0.00  0.00    +0.008 C 
ATOM     17  C   LIG    1       26.787 -21.309   7.061  0.00  0.00    +0.008 C 
ATOM     18  C   LIG    1       26.428 -20.208   3.606  0.00  0.00    +0.011 C 
ATOM     19  C   LIG    1       28.155 -20.674   6.923  0.00  0.00    +0.045 C 
ENDROOT
BRANCH   1  20
ATOM     20  O   LIG    1       29.199 -19.425   5.052  0.00  0.00    -0.461 OA
BRANCH  20  21
ATOM     21  C   LIG    1       29.181 -18.224   5.675  0.00  0.00    +0.307 C 
ATOM     22  O   LIG    1       29.308 -18.035   6.881  0.00  0.00    -0.251 OA
BRANCH  21  23
ATOM     23  C   LIG    1       29.121 -17.132   4.637  0.00  0.00    +0.120 C 
BRANCH  23  24
ATOM     24  C   LIG    1       28.141 -16.055   5.095  0.00  0.00    +0.011 C 
BRANCH  24  25
ATOM     25  C   LIG    1       27.934 -14.982   4.026  0.00  0.00    +0.000 C 
BRANCH  25  26
ATOM     26  C   LIG    1       26.774 -15.328   3.088  0.00  0.00    +0.000 C 
BRANCH  26  27
ATOM     27  C   LIG    1       25.945 -14.089   2.730  0.00  0.00    -0.000 C 
BRANCH  27  28
ATOM     28  C   LIG    1       25.737 -13.127   3.907  0.00  0.00    -0.000 C 
BRANCH  28  29
ATOM     29  C   LIG    1       24.361 -13.247   4.572  0.00  0.00    -0.000 C 
BRANCH  29  31
ATOM     30  C   LIG    1       23.144 -15.478   4.568  0.00  0.00    +0.004 C 
ATOM     31  C   LIG    1       23.401 -14.176   3.822  0.00  0.00    -0.003 C 
ENDBRANCH  29  31
ENDBRANCH  28  29
ENDBRANCH  27  28
ENDBRANCH  26  27
ENDBRANCH  25  26
ENDBRANCH  24  25
ENDBRANCH  23  24
ENDBRANCH  21  23
ENDBRANCH  20  21
ENDBRANCH   1  20
TORSDOF 10
ENDMDL
MODEL 3
REMARK VINA RESULT:       8.1      1.789      4.015
REMARK  Name = *****
REMARK                            x       y       z     vdW  Elec       q    Type
REMARK                         _______ _______ _______ _____ _____    ______ ____
ROOT
ATOM      1  C   LIG    1       24.092 -20.967   4.526  0.00  0.00    +0.183 C 
ATOM      2  C   LIG    1       24.224 -19.408   4.596  0.00  0.00    +0.008 C 
ATOM      3  C   LIG    1       25.332 -19.016   5.615  0.00  0.00    +0.015 C 
ATOM      4  C   LIG    1       22.848 -18.936   5.167  0.00  0.00    +0.002 C 
ATOM      5  C   LIG    1       22.052 -17.841   4.422  0.00  0.00    -0.003 C 
ATOM      6  C   LIG    1       22.855 -17.043   3.383  0.00  0.00    -0.000 C 
ATOM      7  C   LIG    1       23.576 -18.052   2.480  0.00  0.00    +0.005 C 
ATOM      8  C   LIG    1       23.773 -15.931   3.977  0.00  0.00    +0.019 C 
ATOM      9  C   LIG    1       23.068 -15.130   5.061  0.00  0.00    -0.063 C 
ATOM     10  C   LIG    1       23.152 -13.793   5.173  0.00  0.00    +0.045 C 
ATOM     11  C   LIG    1       24.040 -13.004   4.291  0.00  0.00    +0.156 C 
ATOM     12  O   LIG    1       24.071 -11.781   4.400  0.00  0.00    -0.293 OA
ATOM     13  C   LIG    1       24.961 -13.757   3.364  0.00  0.00    +0.079 C 
ATOM     14  C   LIG    1       22.286 -15.923   6.075  0.00  0.00    +0.031 C 
ATOM     15  C   LIG    1       24.285 -15.015   2.844  0.00  0.00    +0.016 C 
ATOM     16  C   LIG    1       21.332 -16.903   5.403  0.00  0.00    +0.008 C 
ATOM     17  C   LIG    1       21.999 -20.217   5.310  0.00  0.00    +0.008 C 
ATOM     18  C   LIG    1       24.647 -18.843   3.216  0.00  0.00    +0.011 C 
ATOM     19  C   LIG    1       23.017 -21.314   5.548  0.00  0.00    +0.045 C 
ENDROOT
BRANCH   1  20
ATOM     20  O   LIG    1       25.359 -21.572   4.776  0.00  0.00    -0.461 OA
BRANCH  20  21
ATOM     21  C   LIG    1       26.001 -21.238   5.920  0.00  0.00    +0.307 C 
ATOM     22  O   LIG    1       25.603 -21.458   7.060  0.00  0.00    -0.251 OA
BRANCH  21  23
ATOM     23  C   LIG    1       27.357 -20.676   5.578  0.00  0.00    +0.120 C 
BRANCH  23  24
ATOM     24  C   LIG    1       28.104 -20.341   6.866  0.00  0.00    +0.011 C 
BRANCH  24  25
ATOM     25  C   LIG    1       29.099 -19.198   6.667  0.00  0.00    +0.000 C 
BRANCH  25  26
ATOM     26  C   LIG    1       29.063 -18.654   5.235  0.00  0.00    +0.000 C 
BRANCH  26  27
ATOM     27  C   LIG    1       28.660 -17.175   5.201  0.00  0.00    -0.000 C 
BRANCH  27  28
ATOM     28  C   LIG    1       27.616 -16.846   4.127  0.00  0.00    -0.000 C 
BRANCH  28  29
ATOM     29  C   LIG    1       27.615 -15.376   3.690  0.00  0.00    -0.000 C 
BRANCH  29  31
ATOM     30  C   LIG    1       28.301 -13.344   5.052  0.00  0.00    +0.004 C 
ATOM     31  C   LIG    1       27.238 -14.407   4.815  0.00  0.00    -0.003 C 
ENDBRANCH  29  31
ENDBRANCH  28  29
ENDBRANCH  27  28
ENDBRANCH  26  27
ENDBRANCH  25  26
ENDBRANCH  24  25
ENDBRANCH  23  24
ENDBRANCH  21  23
ENDBRANCH  20  21
ENDBRANCH   1  20
TORSDOF 10
ENDMDL
MODEL 4
REMARK VINA RESULT:       9.3      1.504      2.216
REMARK  Name = *****
REMARK                            x       y       z     vdW  Elec       q    Type
REMARK                         _______ _______ _______ _____ _____    ______ ____
ROOT
ATOM      1  C   LIG    1       21.764 -16.851   4.241  0.00  0.00    +0.183 C 
ATOM      2  C   LIG    1       23.157 -16.146   4.109  0.00  0.00    +0.008 C 
ATOM      3  C   LIG    1       24.286 -17.213   4.042  0.00  0.00    +0.015 C 
ATOM      4  C   LIG    1       23.310 -15.356   5.449  0.00  0.00    +0.002 C 
ATOM      5  C   LIG    1       23.657 -13.851   5.406  0.00  0.00    -0.003 C 
ATOM      6  C   LIG    1       24.187 -13.340   4.057  0.00  0.00    -0.000 C 
ATOM      7  C   LIG    1       23.217 -13.815   2.968  0.00  0.00    +0.005 C 
ATOM      8  C   LIG    1       25.687 -13.664   3.778  0.00  0.00    +0.019 C 
ATOM      9  C   LIG    1       26.560 -13.411   4.998  0.00  0.00    -0.063 C 
ATOM     10  C   LIG    1       27.765 -12.818   4.941  0.00  0.00    +0.045 C 
ATOM     11  C   LIG    1       28.382 -12.454   3.646  0.00  0.00    +0.156 C 
ATOM     12  O   LIG    1       29.470 -11.886   3.632  0.00  0.00    -0.293 OA
ATOM     13  C   LIG    1       27.688 -12.906   2.386  0.00  0.00    +0.079 C 
ATOM     14  C   LIG    1       26.032 -13.918   6.314  0.00  0.00    +0.031 C 
ATOM     15  C   LIG    1       26.178 -12.853   2.558  0.00  0.00    +0.016 C 
ATOM     16  C   LIG    1       24.599 -13.458   6.555  0.00  0.00    +0.008 C 
ATOM     17  C   LIG    1       21.992 -15.585   6.216  0.00  0.00    +0.008 C 
ATOM     18  C   LIG    1       23.220 -15.327   2.795  0.00  0.00    +0.011 C 
ATOM     19  C   LIG    1       21.514 -16.942   5.741  0.00  0.00    +0.045 C 
ENDROOT
BRANCH   1  20
ATOM     20  O   LIG    1       21.795 -18.111   3.572  0.00  0.00    -0.461 OA
BRANCH  20  21
ATOM     21  C   LIG    1       21.479 -19.213   4.291  0.00  0.00    +0.307 C 
ATOM     22  O   LIG    1       20.351 -19.672   4.447  0.00  0.00    -0.251 OA
BRANCH  21  23
ATOM     23  C   LIG    1       22.748 -19.878   4.757  0.00  0.00    +0.120 C 
BRANCH  23  24
ATOM     24  C   LIG    1       22.397 -21.109   5.588  0.00  0.00    +0.011 C 
BRANCH  24  25
ATOM     25  C   LIG    1       22.946 -21.010   7.012  0.00  0.00    +0.000 C 
BRANCH  25  26
ATOM     26  C   LIG    1       24.346 -20.391   7.041  0.00  0.00    +0.000 C 
BRANCH  26  27
ATOM     27  C   LIG    1       25.414 -21.380   6.559  0.00  0.00    -0.000 C 
BRANCH  27  28
ATOM     28  C   LIG    1       26.647 -20.705   5.946  0.00  0.00    -0.000 C 
BRANCH  28  29
ATOM     29  C   LIG    1       26.346 -19.892   4.681  0.00  0.00    -0.000 C 
BRANCH  29  31
ATOM     30  C   LIG    1       25.184 -19.841   2.422  0.00  0.00    +0.004 C 
ATOM     31  C   LIG    1       25.324 -20.560   3.756  0.00  0.00    -0.003 C 
ENDBRANCH  29  31
ENDBRANCH  28  29
ENDBRANCH  27  28
ENDBRANCH  26  27
ENDBRANCH  25  26
ENDBRANCH  24  25
ENDBRANCH  23  24
ENDBRANCH  21  23
ENDBRANCH  20  21
ENDBRANCH   1  20
TORSDOF 10
ENDMDL
