MODEL 1
REMARK VINA RESULT:      -8.2      0.000      0.000
REMARK  Name = *****
REMARK                            x       y       z     vdW  Elec       q    Type
REMARK                         _______ _______ _______ _____ _____    ______ ____
ROOT
ATOM      1  C   LIG    1       24.743 -29.559   7.684  0.00  0.00    +0.248 C 
ATOM      2  N   LIG    1       25.578 -28.533   7.240  0.00  0.00    -0.308 N 
ATOM      3  H   LIG    1       26.277 -28.127   7.836  0.00  0.00    +0.149 HD
ATOM      4  O   LIG    1       23.912 -30.076   6.942  0.00  0.00    -0.270 OA
ENDROOT
BRANCH   1   6
ATOM      5  C   LIG    1       23.702 -30.371   9.899  0.00  0.00    +0.135 A 
ATOM      6  C   LIG    1       24.800 -29.949   9.126  0.00  0.00    +0.085 A 
ATOM      7  C   LIG    1       26.020 -29.701   9.784  0.00  0.00    +0.103 A 
ATOM      8  C   LIG    1       26.155 -29.831  11.177  0.00  0.00    +0.294 A 
ATOM      9  C   LIG    1       25.060 -30.190  11.971  0.00  0.00    +0.106 A 
ATOM     10  C   LIG    1       23.862 -30.490  11.300  0.00  0.00    +0.076 A 
BRANCH   8  11
ATOM     11  N   LIG    1       27.459 -29.466  11.766  0.00  0.00    +0.082 N 
ATOM     12  O   LIG    1       28.479 -29.879  11.191  0.00  0.00    -0.576 OA
ATOM     13  O   LIG    1       27.475 -28.746  12.772  0.00  0.00    +0.042 OA
ENDBRANCH   8  11
BRANCH   9  14
ATOM     14  N   LIG    1       25.139 -30.475  13.343  0.00  0.00    -0.353 N 
ATOM     15  H   LIG    1       24.455 -29.969  13.914  0.00  0.00    +0.142 HD
ATOM     16  H   LIG    1       25.169 -31.463  13.579  0.00  0.00    +0.142 HD
ENDBRANCH   9  14
BRANCH   5  17
ATOM     17  O   LIG    1       22.410 -30.646   9.530  0.00  0.00    -0.491 OA
BRANCH  17  19
ATOM     18  C   LIG    1       20.260 -30.721  10.604  0.00  0.00    +0.048 C 
ATOM     19  C   LIG    1       21.583 -31.444  10.376  0.00  0.00    +0.226 C 
ENDBRANCH  17  19
ENDBRANCH   5  17
ENDBRANCH   1   6
BRANCH   2  20
ATOM     20  C   LIG    1       25.478 -28.020   5.867  0.00  0.00    +0.076 C 
ATOM     21  C   LIG    1       24.115 -27.374   5.581  0.00  0.00    +0.037 C 
ATOM     22  C   LIG    1       24.021 -25.888   5.936  0.00  0.00    +0.086 C 
ATOM     23  N   LIG    1       25.144 -25.130   5.372  0.00  0.00    -0.302 NA
ATOM     24  C   LIG    1       26.411 -25.642   5.923  0.00  0.00    +0.086 C 
ATOM     25  C   LIG    1       26.649 -27.098   5.539  0.00  0.00    +0.037 C 
BRANCH  23  26
ATOM     26  C   LIG    1       25.058 -23.675   5.635  0.00  0.00    +0.088 C 
BRANCH  26  27
ATOM     27  C   LIG    1       24.389 -23.224   6.962  0.00  0.00    +0.007 C 
ATOM     28  C   LIG    1       25.255 -22.159   7.672  0.00  0.00    +0.009 C 
ATOM     29  C   LIG    1       25.326 -20.838   6.898  0.00  0.00    +0.027 C 
ATOM     30  C   LIG    1       24.003 -20.429   6.319  0.00  0.00    -0.031 C 
ATOM     31  C   LIG    1       22.938 -21.243   6.279  0.00  0.00    -0.031 C 
ATOM     32  C   LIG    1       22.966 -22.663   6.776  0.00  0.00    +0.031 C 
ENDBRANCH  26  27
ENDBRANCH  23  26
ENDBRANCH   2  20
TORSDOF 8
ENDMDL
MODEL 2
REMARK VINA RESULT:      -8.0      4.682      9.366
REMARK  Name = *****
REMARK                            x       y       z     vdW  Elec       q    Type
REMARK                         _______ _______ _______ _____ _____    ______ ____
ROOT
ATOM      1  C   LIG    1       26.245 -22.311   7.530  0.00  0.00    +0.248 C 
ATOM      2  N   LIG    1       25.834 -23.325   6.665  0.00  0.00    -0.308 N 
ATOM      3  H   LIG    1       26.121 -23.346   5.702  0.00  0.00    +0.149 HD
ATOM      4  O   LIG    1       25.921 -22.306   8.714  0.00  0.00    -0.270 OA
ENDROOT
BRANCH   1   6
ATOM      5  C   LIG    1       26.669 -20.458   5.786  0.00  0.00    +0.135 A 
ATOM      6  C   LIG    1       27.006 -21.156   6.962  0.00  0.00    +0.085 A 
ATOM      7  C   LIG    1       28.246 -20.876   7.568  0.00  0.00    +0.103 A 
ATOM      8  C   LIG    1       29.153 -19.954   7.017  0.00  0.00    +0.294 A 
ATOM      9  C   LIG    1       28.863 -19.295   5.817  0.00  0.00    +0.106 A 
ATOM     10  C   LIG    1       27.600 -19.538   5.249  0.00  0.00    +0.076 A 
BRANCH   8  11
ATOM     11  N   LIG    1       30.456 -19.802   7.696  0.00  0.00    +0.082 N 
ATOM     12  O   LIG    1       30.459 -19.840   8.937  0.00  0.00    -0.576 OA
ATOM     13  O   LIG    1       31.475 -19.679   7.004  0.00  0.00    +0.042 OA
ENDBRANCH   8  11
BRANCH   9  14
ATOM     14  N   LIG    1       29.645 -18.265   5.273  0.00  0.00    -0.353 N 
ATOM     15  H   LIG    1       30.002 -17.601   5.966  0.00  0.00    +0.142 HD
ATOM     16  H   LIG    1       30.374 -18.566   4.631  0.00  0.00    +0.142 HD
ENDBRANCH   9  14
BRANCH   5  17
ATOM     17  O   LIG    1       25.560 -20.555   4.983  0.00  0.00    -0.491 OA
BRANCH  17  19
ATOM     18  C   LIG    1       23.884 -19.289   3.813  0.00  0.00    +0.048 C 
ATOM     19  C   LIG    1       25.368 -19.623   3.920  0.00  0.00    +0.226 C 
ENDBRANCH  17  19
ENDBRANCH   5  17
ENDBRANCH   1   6
BRANCH   2  20
ATOM     20  C   LIG    1       24.977 -24.420   7.139  0.00  0.00    +0.076 C 
ATOM     21  C   LIG    1       23.993 -24.901   6.065  0.00  0.00    +0.037 C 
ATOM     22  C   LIG    1       24.538 -25.990   5.136  0.00  0.00    +0.086 C 
ATOM     23  N   LIG    1       25.140 -27.091   5.897  0.00  0.00    -0.302 NA
ATOM     24  C   LIG    1       26.268 -26.580   6.696  0.00  0.00    +0.086 C 
ATOM     25  C   LIG    1       25.813 -25.554   7.728  0.00  0.00    +0.037 C 
BRANCH  23  26
ATOM     26  C   LIG    1       25.621 -28.199   5.039  0.00  0.00    +0.088 C 
BRANCH  26  27
ATOM     27  C   LIG    1       24.747 -29.481   4.967  0.00  0.00    +0.007 C 
ATOM     28  C   LIG    1       25.629 -30.746   5.063  0.00  0.00    +0.009 C 
ATOM     29  C   LIG    1       26.297 -30.904   6.434  0.00  0.00    +0.027 C 
ATOM     30  C   LIG    1       25.377 -30.574   7.573  0.00  0.00    -0.031 C 
ATOM     31  C   LIG    1       24.186 -29.981   7.404  0.00  0.00    -0.031 C 
ATOM     32  C   LIG    1       23.663 -29.549   6.061  0.00  0.00    +0.031 C 
ENDBRANCH  26  27
ENDBRANCH  23  26
ENDBRANCH   2  20
TORSDOF 8
ENDMDL
MODEL 3
REMARK VINA RESULT:      -7.9      1.724      3.221
REMARK  Name = *****
REMARK                            x       y       z     vdW  Elec       q    Type
REMARK                         _______ _______ _______ _____ _____    ______ ____
ROOT
ATOM      1  C   LIG    1       24.714 -29.840   7.203  0.00  0.00    +0.248 C 
ATOM      2  N   LIG    1       25.497 -28.716   6.936  0.00  0.00    -0.308 N 
ATOM      3  H   LIG    1       26.068 -28.290   7.645  0.00  0.00    +0.149 HD
ATOM      4  O   LIG    1       24.044 -30.378   6.326  0.00  0.00    -0.270 OA
ENDROOT
BRANCH   1   6
ATOM      5  C   LIG    1       25.597 -31.069   9.291  0.00  0.00    +0.135 A 
ATOM      6  C   LIG    1       24.616 -30.319   8.616  0.00  0.00    +0.085 A 
ATOM      7  C   LIG    1       23.364 -30.148   9.239  0.00  0.00    +0.103 A 
ATOM      8  C   LIG    1       23.068 -30.725  10.486  0.00  0.00    +0.294 A 
ATOM      9  C   LIG    1       24.009 -31.524  11.146  0.00  0.00    +0.106 A 
ATOM     10  C   LIG    1       25.273 -31.643  10.544  0.00  0.00    +0.076 A 
BRANCH   8  11
ATOM     11  N   LIG    1       21.697 -30.545  11.004  0.00  0.00    +0.082 N 
ATOM     12  O   LIG    1       21.577 -30.069  12.144  0.00  0.00    -0.576 OA
ATOM     13  O   LIG    1       20.743 -30.843  10.273  0.00  0.00    +0.042 OA
ENDBRANCH   8  11
BRANCH   9  14
ATOM     14  N   LIG    1       23.847 -32.022  12.448  0.00  0.00    -0.353 N 
ATOM     15  H   LIG    1       24.696 -31.981  13.018  0.00  0.00    +0.142 HD
ATOM     16  H   LIG    1       23.039 -31.666  12.951  0.00  0.00    +0.142 HD
ENDBRANCH   9  14
BRANCH   5  17
ATOM     17  O   LIG    1       26.869 -31.416   8.910  0.00  0.00    -0.491 OA
BRANCH  17  19
ATOM     18  C   LIG    1       27.238 -32.563   6.830  0.00  0.00    +0.048 C 
ATOM     19  C   LIG    1       27.116 -32.701   8.343  0.00  0.00    +0.226 C 
ENDBRANCH  17  19
ENDBRANCH   5  17
ENDBRANCH   1   6
BRANCH   2  20
ATOM     20  C   LIG    1       25.532 -28.124   5.592  0.00  0.00    +0.076 C 
ATOM     21  C   LIG    1       24.190 -27.496   5.193  0.00  0.00    +0.037 C 
ATOM     22  C   LIG    1       24.011 -26.037   5.621  0.00  0.00    +0.086 C 
ATOM     23  N   LIG    1       25.165 -25.218   5.229  0.00  0.00    -0.302 NA
ATOM     24  C   LIG    1       26.379 -25.731   5.888  0.00  0.00    +0.086 C 
ATOM     25  C   LIG    1       26.704 -27.155   5.450  0.00  0.00    +0.037 C 
BRANCH  23  26
ATOM     26  C   LIG    1       25.005 -23.784   5.564  0.00  0.00    +0.088 C 
BRANCH  26  27
ATOM     27  C   LIG    1       24.494 -23.433   6.988  0.00  0.00    +0.007 C 
ATOM     28  C   LIG    1       25.499 -22.511   7.713  0.00  0.00    +0.009 C 
ATOM     29  C   LIG    1       25.603 -21.122   7.071  0.00  0.00    +0.027 C 
ATOM     30  C   LIG    1       24.270 -20.565   6.666  0.00  0.00    -0.031 C 
ATOM     31  C   LIG    1       23.145 -21.297   6.648  0.00  0.00    -0.031 C 
ATOM     32  C   LIG    1       23.108 -22.759   6.996  0.00  0.00    +0.031 C 
ENDBRANCH  26  27
ENDBRANCH  23  26
ENDBRANCH   2  20
TORSDOF 8
ENDMDL
MODEL 4
REMARK VINA RESULT:      -7.9      1.412      3.274
REMARK  Name = *****
REMARK                            x       y       z     vdW  Elec       q    Type
REMARK                         _______ _______ _______ _____ _____    ______ ____
ROOT
ATOM      1  C   LIG    1       24.897 -29.689   7.623  0.00  0.00    +0.248 C 
ATOM      2  N   LIG    1       25.455 -28.433   7.387  0.00  0.00    -0.308 N 
ATOM      3  H   LIG    1       25.748 -27.836   8.141  0.00  0.00    +0.149 HD
ATOM      4  O   LIG    1       24.572 -30.431   6.700  0.00  0.00    -0.270 OA
ENDROOT
BRANCH   1   6
ATOM      5  C   LIG    1       25.552 -30.252  10.054  0.00  0.00    +0.135 A 
ATOM      6  C   LIG    1       24.596 -30.081   9.034  0.00  0.00    +0.085 A 
ATOM      7  C   LIG    1       23.269 -30.475   9.294  0.00  0.00    +0.103 A 
ATOM      8  C   LIG    1       22.890 -31.054  10.518  0.00  0.00    +0.294 A 
ATOM      9  C   LIG    1       23.837 -31.288  11.522  0.00  0.00    +0.106 A 
ATOM     10  C   LIG    1       25.147 -30.841  11.275  0.00  0.00    +0.076 A 
BRANCH   8  11
ATOM     11  N   LIG    1       21.489 -31.502  10.648  0.00  0.00    +0.082 N 
ATOM     12  O   LIG    1       20.609 -30.756  10.190  0.00  0.00    -0.576 OA
ATOM     13  O   LIG    1       21.263 -32.601  11.170  0.00  0.00    +0.042 OA
ENDBRANCH   8  11
BRANCH   9  14
ATOM     14  N   LIG    1       23.523 -31.732  12.816  0.00  0.00    -0.353 N 
ATOM     15  H   LIG    1       23.295 -32.729  12.871  0.00  0.00    +0.142 HD
ATOM     16  H   LIG    1       24.181 -31.456  13.540  0.00  0.00    +0.142 HD
ENDBRANCH   9  14
BRANCH   5  17
ATOM     17  O   LIG    1       26.899 -29.990  10.061  0.00  0.00    -0.491 OA
BRANCH  17  19
ATOM     18  C   LIG    1       27.028 -27.889  11.222  0.00  0.00    +0.048 C 
ATOM     19  C   LIG    1       27.491 -29.341  11.184  0.00  0.00    +0.226 C 
ENDBRANCH  17  19
ENDBRANCH   5  17
ENDBRANCH   1   6
BRANCH   2  20
ATOM     20  C   LIG    1       25.657 -27.942   6.018  0.00  0.00    +0.076 C 
ATOM     21  C   LIG    1       24.357 -27.432   5.381  0.00  0.00    +0.037 C 
ATOM     22  C   LIG    1       24.042 -25.959   5.655  0.00  0.00    +0.086 C 
ATOM     23  N   LIG    1       25.197 -25.101   5.365  0.00  0.00    -0.302 NA
ATOM     24  C   LIG    1       26.327 -25.485   6.230  0.00  0.00    +0.086 C 
ATOM     25  C   LIG    1       26.785 -26.915   5.963  0.00  0.00    +0.037 C 
BRANCH  23  26
ATOM     26  C   LIG    1       24.916 -23.659   5.552  0.00  0.00    +0.088 C 
BRANCH  26  27
ATOM     27  C   LIG    1       24.330 -23.215   6.920  0.00  0.00    +0.007 C 
ATOM     28  C   LIG    1       25.248 -22.168   7.590  0.00  0.00    +0.009 C 
ATOM     29  C   LIG    1       25.292 -20.839   6.826  0.00  0.00    +0.027 C 
ATOM     30  C   LIG    1       23.944 -20.408   6.328  0.00  0.00    -0.031 C 
ATOM     31  C   LIG    1       22.868 -21.209   6.341  0.00  0.00    -0.031 C 
ATOM     32  C   LIG    1       22.906 -22.634   6.820  0.00  0.00    +0.031 C 
ENDBRANCH  26  27
ENDBRANCH  23  26
ENDBRANCH   2  20
TORSDOF 8
ENDMDL
MODEL 5
REMARK VINA RESULT:      -7.8      1.649      2.367
REMARK  Name = *****
REMARK                            x       y       z     vdW  Elec       q    Type
REMARK                         _______ _______ _______ _____ _____    ______ ____
ROOT
ATOM      1  C   LIG    1       25.538 -28.239   7.004  0.00  0.00    +0.248 C 
ATOM      2  N   LIG    1       25.682 -26.871   7.233  0.00  0.00    -0.308 N 
ATOM      3  H   LIG    1       25.896 -26.508   8.145  0.00  0.00    +0.149 HD
ATOM      4  O   LIG    1       25.311 -28.682   5.881  0.00  0.00    -0.270 OA
ENDROOT
BRANCH   1   6
ATOM      5  C   LIG    1       24.632 -30.199   8.415  0.00  0.00    +0.135 A 
ATOM      6  C   LIG    1       25.557 -29.164   8.179  0.00  0.00    +0.085 A 
ATOM      7  C   LIG    1       26.470 -28.843   9.202  0.00  0.00    +0.103 A 
ATOM      8  C   LIG    1       26.459 -29.501  10.444  0.00  0.00    +0.294 A 
ATOM      9  C   LIG    1       25.509 -30.491  10.720  0.00  0.00    +0.106 A 
ATOM     10  C   LIG    1       24.638 -30.843   9.675  0.00  0.00    +0.076 A 
BRANCH   8  11
ATOM     11  N   LIG    1       27.411 -29.025  11.468  0.00  0.00    +0.082 N 
ATOM     12  O   LIG    1       28.284 -29.821  11.848  0.00  0.00    -0.576 OA
ATOM     13  O   LIG    1       27.314 -27.858  11.870  0.00  0.00    +0.042 OA
ENDBRANCH   8  11
BRANCH   9  14
ATOM     14  N   LIG    1       25.513 -31.289  11.875  0.00  0.00    -0.353 N 
ATOM     15  H   LIG    1       24.633 -31.271  12.397  0.00  0.00    +0.142 HD
ATOM     16  H   LIG    1       25.853 -32.238  11.744  0.00  0.00    +0.142 HD
ENDBRANCH   9  14
BRANCH   5  17
ATOM     17  O   LIG    1       23.625 -30.688   7.621  0.00  0.00    -0.491 OA
BRANCH  17  19
ATOM     18  C   LIG    1       24.441 -32.086   5.844  0.00  0.00    +0.048 C 
ATOM     19  C   LIG    1       23.674 -32.037   7.161  0.00  0.00    +0.226 C 
ENDBRANCH  17  19
ENDBRANCH   5  17
ENDBRANCH   1   6
BRANCH   2  20
ATOM     20  C   LIG    1       25.546 -25.904   6.136  0.00  0.00    +0.076 C 
ATOM     21  C   LIG    1       24.080 -25.617   5.786  0.00  0.00    +0.037 C 
ATOM     22  C   LIG    1       23.435 -24.491   6.598  0.00  0.00    +0.086 C 
ATOM     23  N   LIG    1       24.270 -23.284   6.600  0.00  0.00    -0.302 NA
ATOM     24  C   LIG    1       25.574 -23.588   7.215  0.00  0.00    +0.086 C 
ATOM     25  C   LIG    1       26.346 -24.635   6.420  0.00  0.00    +0.037 C 
BRANCH  23  26
ATOM     26  C   LIG    1       23.652 -22.146   7.320  0.00  0.00    +0.088 C 
BRANCH  26  27
ATOM     27  C   LIG    1       24.078 -20.714   6.896  0.00  0.00    +0.007 C 
ATOM     28  C   LIG    1       25.163 -20.773   5.798  0.00  0.00    +0.009 C 
ATOM     29  C   LIG    1       24.641 -21.344   4.475  0.00  0.00    +0.027 C 
ATOM     30  C   LIG    1       23.275 -20.835   4.117  0.00  0.00    -0.031 C 
ATOM     31  C   LIG    1       22.503 -20.148   4.973  0.00  0.00    -0.031 C 
ATOM     32  C   LIG    1       22.907 -19.848   6.390  0.00  0.00    +0.031 C 
ENDBRANCH  26  27
ENDBRANCH  23  26
ENDBRANCH   2  20
TORSDOF 8
ENDMDL
MODEL 6
REMARK VINA RESULT:      -7.8      5.181      9.709
REMARK  Name = *****
REMARK                            x       y       z     vdW  Elec       q    Type
REMARK                         _______ _______ _______ _____ _____    ______ ____
ROOT
ATOM      1  C   LIG    1       26.608 -20.608   7.129  0.00  0.00    +0.248 C 
ATOM      2  N   LIG    1       26.137 -21.272   5.996  0.00  0.00    -0.308 N 
ATOM      3  H   LIG    1       26.740 -21.486   5.221  0.00  0.00    +0.149 HD
ATOM      4  O   LIG    1       25.877 -20.378   8.089  0.00  0.00    -0.270 OA
ENDROOT
BRANCH   1   6
ATOM      5  C   LIG    1       28.557 -19.269   6.099  0.00  0.00    +0.135 A 
ATOM      6  C   LIG    1       28.005 -20.076   7.113  0.00  0.00    +0.085 A 
ATOM      7  C   LIG    1       28.867 -20.576   8.107  0.00  0.00    +0.103 A 
ATOM      8  C   LIG    1       30.250 -20.319   8.093  0.00  0.00    +0.294 A 
ATOM      9  C   LIG    1       30.827 -19.571   7.061  0.00  0.00    +0.106 A 
ATOM     10  C   LIG    1       29.952 -19.028   6.104  0.00  0.00    +0.076 A 
BRANCH   8  11
ATOM     11  N   LIG    1       31.066 -20.964   9.141  0.00  0.00    +0.082 N 
ATOM     12  O   LIG    1       32.198 -20.497   9.348  0.00  0.00    -0.576 OA
ATOM     13  O   LIG    1       30.578 -21.906   9.778  0.00  0.00    +0.042 OA
ENDBRANCH   8  11
BRANCH   9  14
ATOM     14  N   LIG    1       32.167 -19.154   7.042  0.00  0.00    -0.353 N 
ATOM     15  H   LIG    1       32.751 -19.595   7.759  0.00  0.00    +0.142 HD
ATOM     16  H   LIG    1       32.614 -19.172   6.130  0.00  0.00    +0.142 HD
ENDBRANCH   9  14
BRANCH   5  17
ATOM     17  O   LIG    1       27.965 -18.687   5.007  0.00  0.00    -0.491 OA
BRANCH  17  19
ATOM     18  C   LIG    1       27.233 -16.769   3.757  0.00  0.00    +0.048 C 
ATOM     19  C   LIG    1       28.344 -17.370   4.610  0.00  0.00    +0.226 C 
ENDBRANCH  17  19
ENDBRANCH   5  17
ENDBRANCH   1   6
BRANCH   2  20
ATOM     20  C   LIG    1       24.737 -21.706   5.904  0.00  0.00    +0.076 C 
ATOM     21  C   LIG    1       24.461 -22.530   4.639  0.00  0.00    +0.037 C 
ATOM     22  C   LIG    1       24.715 -24.034   4.785  0.00  0.00    +0.086 C 
ATOM     23  N   LIG    1       24.053 -24.576   5.977  0.00  0.00    -0.302 NA
ATOM     24  C   LIG    1       24.587 -23.914   7.181  0.00  0.00    +0.086 C 
ATOM     25  C   LIG    1       24.297 -22.418   7.182  0.00  0.00    +0.037 C 
BRANCH  23  26
ATOM     26  C   LIG    1       24.216 -26.041   6.121  0.00  0.00    +0.088 C 
BRANCH  26  27
ATOM     27  C   LIG    1       25.663 -26.605   6.122  0.00  0.00    +0.007 C 
ATOM     28  C   LIG    1       25.938 -27.394   7.421  0.00  0.00    +0.009 C 
ATOM     29  C   LIG    1       25.106 -28.678   7.526  0.00  0.00    +0.027 C 
ATOM     30  C   LIG    1       25.023 -29.426   6.227  0.00  0.00    -0.031 C 
ATOM     31  C   LIG    1       25.427 -28.909   5.057  0.00  0.00    -0.031 C 
ATOM     32  C   LIG    1       25.971 -27.514   4.916  0.00  0.00    +0.031 C 
ENDBRANCH  26  27
ENDBRANCH  23  26
ENDBRANCH   2  20
TORSDOF 8
ENDMDL
MODEL 7
REMARK VINA RESULT:      -7.7      2.238      3.827
REMARK  Name = *****
REMARK                            x       y       z     vdW  Elec       q    Type
REMARK                         _______ _______ _______ _____ _____    ______ ____
ROOT
ATOM      1  C   LIG    1       25.237 -28.359   6.671  0.00  0.00    +0.248 C 
ATOM      2  N   LIG    1       25.460 -27.028   7.024  0.00  0.00    -0.308 N 
ATOM      3  H   LIG    1       25.651 -26.759   7.974  0.00  0.00    +0.149 HD
ATOM      4  O   LIG    1       25.038 -28.689   5.505  0.00  0.00    -0.270 OA
ENDROOT
BRANCH   1   6
ATOM      5  C   LIG    1       25.902 -29.391   8.939  0.00  0.00    +0.135 A 
ATOM      6  C   LIG    1       25.131 -29.377   7.761  0.00  0.00    +0.085 A 
ATOM      7  C   LIG    1       24.318 -30.493   7.485  0.00  0.00    +0.103 A 
ATOM      8  C   LIG    1       24.284 -31.617   8.331  0.00  0.00    +0.294 A 
ATOM      9  C   LIG    1       25.088 -31.676   9.475  0.00  0.00    +0.106 A 
ATOM     10  C   LIG    1       25.853 -30.534   9.772  0.00  0.00    +0.076 A 
BRANCH   8  11
ATOM     11  N   LIG    1       23.457 -32.761   7.898  0.00  0.00    +0.082 N 
ATOM     12  O   LIG    1       22.451 -33.025   8.576  0.00  0.00    -0.576 OA
ATOM     13  O   LIG    1       23.782 -33.375   6.873  0.00  0.00    +0.042 OA
ENDBRANCH   8  11
BRANCH   9  14
ATOM     14  N   LIG    1       25.014 -32.692  10.440  0.00  0.00    -0.353 N 
ATOM     15  H   LIG    1       25.798 -32.699  11.098  0.00  0.00    +0.142 HD
ATOM     16  H   LIG    1       24.121 -32.771  10.918  0.00  0.00    +0.142 HD
ENDBRANCH   9  14
BRANCH   5  17
ATOM     17  O   LIG    1       26.791 -28.468   9.430  0.00  0.00    -0.491 OA
BRANCH  17  19
ATOM     18  C   LIG    1       26.906 -27.537  11.643  0.00  0.00    +0.048 C 
ATOM     19  C   LIG    1       27.373 -28.656  10.718  0.00  0.00    +0.226 C 
ENDBRANCH  17  19
ENDBRANCH   5  17
ENDBRANCH   1   6
BRANCH   2  20
ATOM     20  C   LIG    1       25.448 -25.966   6.010  0.00  0.00    +0.076 C 
ATOM     21  C   LIG    1       24.026 -25.511   5.656  0.00  0.00    +0.037 C 
ATOM     22  C   LIG    1       23.467 -24.398   6.547  0.00  0.00    +0.086 C 
ATOM     23  N   LIG    1       24.413 -23.282   6.667  0.00  0.00    -0.302 NA
ATOM     24  C   LIG    1       25.664 -23.760   7.281  0.00  0.00    +0.086 C 
ATOM     25  C   LIG    1       26.356 -24.808   6.416  0.00  0.00    +0.037 C 
BRANCH  23  26
ATOM     26  C   LIG    1       23.885 -22.153   7.468  0.00  0.00    +0.088 C 
BRANCH  26  27
ATOM     27  C   LIG    1       24.204 -20.715   6.975  0.00  0.00    +0.007 C 
ATOM     28  C   LIG    1       25.246 -20.750   5.835  0.00  0.00    +0.009 C 
ATOM     29  C   LIG    1       24.707 -21.402   4.556  0.00  0.00    +0.027 C 
ATOM     30  C   LIG    1       23.299 -20.991   4.239  0.00  0.00    -0.031 C 
ATOM     31  C   LIG    1       22.521 -20.319   5.101  0.00  0.00    -0.031 C 
ATOM     32  C   LIG    1       22.962 -19.941   6.489  0.00  0.00    +0.031 C 
ENDBRANCH  26  27
ENDBRANCH  23  26
ENDBRANCH   2  20
TORSDOF 8
ENDMDL
MODEL 8
REMARK VINA RESULT:      -7.7      2.145      3.042
REMARK  Name = *****
REMARK                            x       y       z     vdW  Elec       q    Type
REMARK                         _______ _______ _______ _____ _____    ______ ____
ROOT
ATOM      1  C   LIG    1       24.845 -29.141   6.228  0.00  0.00    +0.248 C 
ATOM      2  N   LIG    1       24.519 -27.829   6.571  0.00  0.00    -0.308 N 
ATOM      3  H   LIG    1       24.250 -27.580   7.507  0.00  0.00    +0.149 HD
ATOM      4  O   LIG    1       25.205 -29.437   5.092  0.00  0.00    -0.270 OA
ENDROOT
BRANCH   1   6
ATOM      5  C   LIG    1       23.830 -31.355   7.077  0.00  0.00    +0.135 A 
ATOM      6  C   LIG    1       24.640 -30.216   7.247  0.00  0.00    +0.085 A 
ATOM      7  C   LIG    1       25.164 -29.958   8.529  0.00  0.00    +0.103 A 
ATOM      8  C   LIG    1       24.877 -30.782   9.631  0.00  0.00    +0.294 A 
ATOM      9  C   LIG    1       24.026 -31.885   9.497  0.00  0.00    +0.106 A 
ATOM     10  C   LIG    1       23.553 -32.167   8.203  0.00  0.00    +0.076 A 
BRANCH   8  11
ATOM     11  N   LIG    1       25.417 -30.368  10.941  0.00  0.00    +0.082 N 
ATOM     12  O   LIG    1       25.050 -29.268  11.385  0.00  0.00    -0.576 OA
ATOM     13  O   LIG    1       26.173 -31.141  11.543  0.00  0.00    +0.042 OA
ENDBRANCH   8  11
BRANCH   9  14
ATOM     14  N   LIG    1       23.797 -32.833  10.505  0.00  0.00    -0.353 N 
ATOM     15  H   LIG    1       24.164 -33.765  10.292  0.00  0.00    +0.142 HD
ATOM     16  H   LIG    1       24.048 -32.536  11.444  0.00  0.00    +0.142 HD
ENDBRANCH   9  14
BRANCH   5  17
ATOM     17  O   LIG    1       23.173 -31.820   5.967  0.00  0.00    -0.491 OA
BRANCH  17  19
ATOM     18  C   LIG    1       24.890 -33.037   4.805  0.00  0.00    +0.048 C 
ATOM     19  C   LIG    1       23.501 -33.100   5.429  0.00  0.00    +0.226 C 
ENDBRANCH  17  19
ENDBRANCH   5  17
ENDBRANCH   1   6
BRANCH   2  20
ATOM     20  C   LIG    1       24.579 -26.752   5.574  0.00  0.00    +0.076 C 
ATOM     21  C   LIG    1       23.638 -25.588   5.913  0.00  0.00    +0.037 C 
ATOM     22  C   LIG    1       24.244 -24.516   6.823  0.00  0.00    +0.086 C 
ATOM     23  N   LIG    1       25.552 -24.070   6.329  0.00  0.00    -0.302 NA
ATOM     24  C   LIG    1       26.484 -25.211   6.301  0.00  0.00    +0.086 C 
ATOM     25  C   LIG    1       26.018 -26.300   5.341  0.00  0.00    +0.037 C 
BRANCH  23  26
ATOM     26  C   LIG    1       26.145 -22.984   7.143  0.00  0.00    +0.088 C 
BRANCH  26  27
ATOM     27  C   LIG    1       25.417 -21.612   7.148  0.00  0.00    +0.007 C 
ATOM     28  C   LIG    1       26.080 -20.649   8.157  0.00  0.00    +0.009 C 
ATOM     29  C   LIG    1       27.501 -20.243   7.748  0.00  0.00    +0.027 C 
ATOM     30  C   LIG    1       27.625 -19.954   6.280  0.00  0.00    -0.031 C 
ATOM     31  C   LIG    1       26.663 -20.248   5.392  0.00  0.00    -0.031 C 
ATOM     32  C   LIG    1       25.377 -20.931   5.766  0.00  0.00    +0.031 C 
ENDBRANCH  26  27
ENDBRANCH  23  26
ENDBRANCH   2  20
TORSDOF 8
ENDMDL
MODEL 9
REMARK VINA RESULT:      -7.6      6.475     10.166
REMARK  Name = *****
REMARK                            x       y       z     vdW  Elec       q    Type
REMARK                         _______ _______ _______ _____ _____    ______ ____
ROOT
ATOM      1  C   LIG    1       26.931 -21.329   6.552  0.00  0.00    +0.248 C 
ATOM      2  N   LIG    1       27.740 -20.323   6.025  0.00  0.00    -0.308 N 
ATOM      3  H   LIG    1       27.349 -19.513   5.576  0.00  0.00    +0.149 HD
ATOM      4  O   LIG    1       27.410 -22.302   7.130  0.00  0.00    -0.270 OA
ENDROOT
BRANCH   1   6
ATOM      5  C   LIG    1       24.537 -22.290   6.585  0.00  0.00    +0.135 A 
ATOM      6  C   LIG    1       25.458 -21.262   6.304  0.00  0.00    +0.085 A 
ATOM      7  C   LIG    1       25.006 -20.147   5.572  0.00  0.00    +0.103 A 
ATOM      8  C   LIG    1       23.687 -20.053   5.096  0.00  0.00    +0.294 A 
ATOM      9  C   LIG    1       22.773 -21.091   5.313  0.00  0.00    +0.106 A 
ATOM     10  C   LIG    1       23.216 -22.174   6.092  0.00  0.00    +0.076 A 
BRANCH   8  11
ATOM     11  N   LIG    1       23.350 -18.875   4.271  0.00  0.00    +0.082 N 
ATOM     12  O   LIG    1       22.272 -18.305   4.506  0.00  0.00    -0.576 OA
ATOM     13  O   LIG    1       24.162 -18.497   3.417  0.00  0.00    +0.042 OA
ENDBRANCH   8  11
BRANCH   9  14
ATOM     14  N   LIG    1       21.408 -21.020   4.994  0.00  0.00    -0.353 N 
ATOM     15  H   LIG    1       20.786 -21.110   5.803  0.00  0.00    +0.142 HD
ATOM     16  H   LIG    1       21.141 -20.239   4.401  0.00  0.00    +0.142 HD
ENDBRANCH   9  14
BRANCH   5  17
ATOM     17  O   LIG    1       24.711 -23.483   7.239  0.00  0.00    -0.491 OA
BRANCH  17  19
ATOM     18  C   LIG    1       25.738 -25.276   6.010  0.00  0.00    +0.048 C 
ATOM     19  C   LIG    1       24.436 -24.710   6.565  0.00  0.00    +0.226 C 
ENDBRANCH  17  19
ENDBRANCH   5  17
ENDBRANCH   1   6
BRANCH   2  20
ATOM     20  C   LIG    1       29.203 -20.400   6.127  0.00  0.00    +0.076 C 
ATOM     21  C   LIG    1       29.869 -19.019   6.059  0.00  0.00    +0.037 C 
ATOM     22  C   LIG    1       30.007 -18.307   7.407  0.00  0.00    +0.086 C 
ATOM     23  N   LIG    1       30.609 -19.184   8.418  0.00  0.00    -0.302 NA
ATOM     24  C   LIG    1       29.749 -20.364   8.622  0.00  0.00    +0.086 C 
ATOM     25  C   LIG    1       29.626 -21.202   7.355  0.00  0.00    +0.037 C 
BRANCH  23  26
ATOM     26  C   LIG    1       30.823 -18.513   9.722  0.00  0.00    +0.088 C 
BRANCH  26  27
ATOM     27  C   LIG    1       30.660 -16.970   9.769  0.00  0.00    +0.007 C 
ATOM     28  C   LIG    1       30.390 -16.496  11.214  0.00  0.00    +0.009 C 
ATOM     29  C   LIG    1       31.590 -16.708  12.144  0.00  0.00    +0.027 C 
ATOM     30  C   LIG    1       32.898 -16.356  11.499  0.00  0.00    -0.031 C 
ATOM     31  C   LIG    1       33.025 -16.113  10.185  0.00  0.00    -0.031 C 
ATOM     32  C   LIG    1       31.878 -16.205   9.216  0.00  0.00    +0.031 C 
ENDBRANCH  26  27
ENDBRANCH  23  26
ENDBRANCH   2  20
TORSDOF 8
ENDMDL
