MODEL 1
REMARK VINA RESULT:      -7.8      0.000      0.000
REMARK  Name = *****
REMARK                            x       y       z     vdW  Elec       q    Type
REMARK                         _______ _______ _______ _____ _____    ______ ____
ROOT
ATOM      1  C   LIG    1       26.171 -30.972   8.594  0.00  0.00    +0.077 C 
ATOM      2  C   LIG    1       25.186 -30.885   7.418  0.00  0.00    +0.037 C 
ATOM      3  C   LIG    1       24.322 -29.622   7.463  0.00  0.00    +0.094 C 
ATOM      4  C   LIG    1       25.284 -28.427   7.287  0.00  0.00    +0.093 C 
ATOM      5  C   LIG    1       26.252 -28.359   8.469  0.00  0.00    +0.025 C 
ATOM      6  C   LIG    1       27.023 -29.673   8.673  0.00  0.00    +0.015 C 
ENDROOT
BRANCH   1   9
ATOM      7  C   LIG    1       28.316 -33.820   7.139  0.00  0.00    +0.131 C 
ATOM      8  N   LIG    1       27.471 -32.637   7.198  0.00  0.00    -0.307 N 
ATOM      9  C   LIG    1       27.070 -32.220   8.468  0.00  0.00    +0.218 C 
ATOM     10  O   LIG    1       27.422 -32.838   9.477  0.00  0.00    -0.275 OA
ATOM     11  C   LIG    1       26.820 -32.250   5.954  0.00  0.00    +0.131 C 
ENDBRANCH   1   9
BRANCH   3  12
ATOM     12  N   LIG    1       23.515 -29.601   8.688  0.00  0.00    -0.305 N 
ATOM     13  H   LIG    1       23.393 -28.747   9.229  0.00  0.00    +0.149 HD
ATOM     14  C   LIG    1       22.882 -30.706   9.235  0.00  0.00    +0.270 C 
ATOM     15  O   LIG    1       22.894 -31.790   8.654  0.00  0.00    -0.268 OA
BRANCH  14  16
ATOM     16  C   LIG    1       22.257 -30.443  10.530  0.00  0.00    +0.163 A 
ATOM     17  S   LIG    1       20.580 -30.751  10.782  0.00  0.00    -0.066 S 
ATOM     18  C   LIG    1       20.770 -30.334  12.416  0.00  0.00    +0.027 A 
ATOM     19  C   LIG    1       19.689 -30.359  13.446  0.00  0.00    +0.128 C 
ATOM     20  N   LIG    1       19.955 -29.369  14.517  0.00  0.00    -0.300 NA
ATOM     21  C   LIG    1       21.333 -29.525  15.040  0.00  0.00    +0.090 C 
ATOM     22  C   LIG    1       22.487 -29.424  14.004  0.00  0.00    +0.071 C 
ATOM     23  C   LIG    1       19.694 -28.006  14.048  0.00  0.00    +0.105 C 
ATOM     24  C   LIG    1       22.068 -29.940  12.667  0.00  0.00    +0.055 A 
ATOM     25  N   LIG    1       22.929 -29.998  11.585  0.00  0.00    -0.239 NA
ENDBRANCH  14  16
ENDBRANCH   3  12
BRANCH   4  26
ATOM     26  N   LIG    1       24.615 -27.165   7.059  0.00  0.00    -0.303 N 
ATOM     27  H   LIG    1       23.667 -27.004   7.401  0.00  0.00    +0.149 HD
ATOM     28  C   LIG    1       25.215 -26.115   6.392  0.00  0.00    +0.300 C 
ATOM     29  O   LIG    1       26.344 -26.101   5.920  0.00  0.00    -0.265 OA
BRANCH  28  30
ATOM     30  C   LIG    1       24.324 -24.866   6.273  0.00  0.00    +0.304 C 
ATOM     31  N   LIG    1       25.024 -23.743   5.871  0.00  0.00    -0.263 N 
ATOM     32  H   LIG    1       26.025 -23.837   5.777  0.00  0.00    +0.157 HD
ATOM     33  O   LIG    1       23.156 -24.981   6.595  0.00  0.00    -0.265 OA
BRANCH  31  34
ATOM     34  C   LIG    1       24.410 -22.507   5.648  0.00  0.00    +0.125 A 
ATOM     35  N   LIG    1       24.394 -22.000   4.405  0.00  0.00    -0.239 NA
ATOM     36  C   LIG    1       23.802 -20.800   4.206  0.00  0.00    +0.133 A 
ATOM     37  C   LIG    1       23.196 -20.073   5.212  0.00  0.00    +0.059 A 
ATOM     38 CL   LIG    1       22.445 -18.567   4.880  0.00  0.00    -0.082 Cl
ATOM     39  C   LIG    1       23.213 -20.601   6.496  0.00  0.00    +0.025 A 
ATOM     40  C   LIG    1       23.846 -21.829   6.727  0.00  0.00    +0.045 A 
ENDBRANCH  31  34
ENDBRANCH  28  30
ENDBRANCH   4  26
TORSDOF 6
ENDMDL
MODEL 2
REMARK VINA RESULT:      -7.5      5.199     11.518
REMARK  Name = *****
REMARK                            x       y       z     vdW  Elec       q    Type
REMARK                         _______ _______ _______ _____ _____    ______ ____
ROOT
ATOM      1  C   LIG    1       23.692 -20.218   5.444  0.00  0.00    +0.077 C 
ATOM      2  C   LIG    1       24.147 -21.296   4.448  0.00  0.00    +0.037 C 
ATOM      3  C   LIG    1       24.912 -22.438   5.120  0.00  0.00    +0.094 C 
ATOM      4  C   LIG    1       23.910 -23.141   6.063  0.00  0.00    +0.093 C 
ATOM      5  C   LIG    1       23.467 -22.178   7.165  0.00  0.00    +0.025 C 
ATOM      6  C   LIG    1       22.885 -20.871   6.603  0.00  0.00    +0.015 C 
ENDROOT
BRANCH   1   9
ATOM      7  C   LIG    1       20.805 -18.340   3.724  0.00  0.00    +0.131 C 
ATOM      8  N   LIG    1       21.538 -19.404   4.392  0.00  0.00    -0.307 N 
ATOM      9  C   LIG    1       22.862 -19.127   4.736  0.00  0.00    +0.218 C 
ATOM     10  O   LIG    1       23.368 -18.031   4.475  0.00  0.00    -0.275 OA
ATOM     11  C   LIG    1       20.971 -20.742   4.283  0.00  0.00    +0.131 C 
ENDBRANCH   1   9
BRANCH   3  12
ATOM     12  N   LIG    1       26.126 -21.926   5.767  0.00  0.00    -0.305 N 
ATOM     13  H   LIG    1       26.576 -22.431   6.528  0.00  0.00    +0.149 HD
ATOM     14  C   LIG    1       26.747 -20.730   5.444  0.00  0.00    +0.270 C 
ATOM     15  O   LIG    1       26.346 -20.046   4.504  0.00  0.00    -0.268 OA
BRANCH  14  16
ATOM     16  C   LIG    1       27.859 -20.388   6.330  0.00  0.00    +0.163 A 
ATOM     17  S   LIG    1       28.193 -21.329   7.735  0.00  0.00    -0.066 S 
ATOM     18  C   LIG    1       29.572 -20.380   8.017  0.00  0.00    +0.027 A 
ATOM     19  C   LIG    1       30.536 -20.569   9.141  0.00  0.00    +0.128 C 
ATOM     20  N   LIG    1       31.185 -19.286   9.503  0.00  0.00    -0.300 NA
ATOM     21  C   LIG    1       31.738 -18.624   8.297  0.00  0.00    +0.090 C 
ATOM     22  C   LIG    1       30.743 -18.341   7.139  0.00  0.00    +0.071 C 
ATOM     23  C   LIG    1       30.259 -18.416  10.233  0.00  0.00    +0.105 C 
ATOM     24  C   LIG    1       29.674 -19.382   7.069  0.00  0.00    +0.055 A 
ATOM     25  N   LIG    1       28.691 -19.380   6.096  0.00  0.00    -0.239 NA
ENDBRANCH  14  16
ENDBRANCH   3  12
BRANCH   4  26
ATOM     26  N   LIG    1       24.392 -24.396   6.598  0.00  0.00    -0.303 N 
ATOM     27  H   LIG    1       24.426 -24.559   7.605  0.00  0.00    +0.149 HD
ATOM     28  C   LIG    1       24.810 -25.436   5.791  0.00  0.00    +0.300 C 
ATOM     29  O   LIG    1       24.833 -25.447   4.568  0.00  0.00    -0.265 OA
BRANCH  28  30
ATOM     30  C   LIG    1       25.272 -26.679   6.573  0.00  0.00    +0.304 C 
ATOM     31  N   LIG    1       24.504 -27.797   6.306  0.00  0.00    -0.263 N 
ATOM     32  H   LIG    1       23.700 -27.668   5.710  0.00  0.00    +0.157 HD
ATOM     33  O   LIG    1       26.190 -26.535   7.360  0.00  0.00    -0.265 OA
BRANCH  31  34
ATOM     34  C   LIG    1       24.770 -29.051   6.865  0.00  0.00    +0.125 A 
ATOM     35  N   LIG    1       25.360 -29.991   6.109  0.00  0.00    -0.239 NA
ATOM     36  C   LIG    1       25.607 -31.201   6.662  0.00  0.00    +0.133 A 
ATOM     37  C   LIG    1       25.300 -31.518   7.970  0.00  0.00    +0.059 A 
ATOM     38 CL   LIG    1       25.662 -33.068   8.609  0.00  0.00    -0.082 Cl
ATOM     39  C   LIG    1       24.691 -30.543   8.749  0.00  0.00    +0.025 A 
ATOM     40  C   LIG    1       24.403 -29.293   8.186  0.00  0.00    +0.045 A 
ENDBRANCH  31  34
ENDBRANCH  28  30
ENDBRANCH   4  26
TORSDOF 6
ENDMDL
MODEL 3
REMARK VINA RESULT:      -7.2      2.748      3.995
REMARK  Name = *****
REMARK                            x       y       z     vdW  Elec       q    Type
REMARK                         _______ _______ _______ _____ _____    ______ ____
ROOT
ATOM      1  C   LIG    1       25.416 -31.559  12.573  0.00  0.00    +0.077 C 
ATOM      2  C   LIG    1       24.697 -32.007  11.291  0.00  0.00    +0.037 C 
ATOM      3  C   LIG    1       24.155 -30.831  10.475  0.00  0.00    +0.094 C 
ATOM      4  C   LIG    1       25.385 -30.026  10.000  0.00  0.00    +0.093 C 
ATOM      5  C   LIG    1       26.124 -29.443  11.205  0.00  0.00    +0.025 C 
ATOM      6  C   LIG    1       26.520 -30.519  12.228  0.00  0.00    +0.015 C 
ENDROOT
BRANCH   1   9
ATOM      7  C   LIG    1       26.837 -33.822  15.345  0.00  0.00    +0.131 C 
ATOM      8  N   LIG    1       26.276 -32.651  14.689  0.00  0.00    -0.307 N 
ATOM      9  C   LIG    1       26.009 -32.769  13.325  0.00  0.00    +0.218 C 
ATOM     10  O   LIG    1       26.246 -33.821  12.723  0.00  0.00    -0.275 OA
ATOM     11  C   LIG    1       26.416 -31.388  15.401  0.00  0.00    +0.131 C 
ENDBRANCH   1   9
BRANCH   3  12
ATOM     12  N   LIG    1       23.177 -30.073  11.262  0.00  0.00    -0.305 N 
ATOM     13  H   LIG    1       23.470 -29.385  11.954  0.00  0.00    +0.149 HD
ATOM     14  C   LIG    1       21.803 -30.228  11.174  0.00  0.00    +0.270 C 
ATOM     15  O   LIG    1       21.307 -30.981  10.338  0.00  0.00    -0.268 OA
BRANCH  14  16
ATOM     16  C   LIG    1       21.059 -29.449  12.164  0.00  0.00    +0.163 A 
ATOM     17  S   LIG    1       19.607 -30.062  12.861  0.00  0.00    -0.066 S 
ATOM     18  C   LIG    1       19.544 -28.699  13.873  0.00  0.00    +0.027 A 
ATOM     19  C   LIG    1       18.499 -28.439  14.907  0.00  0.00    +0.128 C 
ATOM     20  N   LIG    1       18.321 -26.984  15.125  0.00  0.00    -0.300 NA
ATOM     21  C   LIG    1       19.631 -26.330  15.366  0.00  0.00    +0.090 C 
ATOM     22  C   LIG    1       20.715 -26.516  14.270  0.00  0.00    +0.071 C 
ATOM     23  C   LIG    1       17.597 -26.370  14.010  0.00  0.00    +0.105 C 
ATOM     24  C   LIG    1       20.587 -27.841  13.594  0.00  0.00    +0.055 A 
ATOM     25  N   LIG    1       21.462 -28.266  12.610  0.00  0.00    -0.239 NA
ENDBRANCH  14  16
ENDBRANCH   3  12
BRANCH   4  26
ATOM     26  N   LIG    1       25.077 -29.017   9.010  0.00  0.00    -0.303 N 
ATOM     27  H   LIG    1       24.753 -28.090   9.288  0.00  0.00    +0.149 HD
ATOM     28  C   LIG    1       25.217 -29.239   7.654  0.00  0.00    +0.300 C 
ATOM     29  O   LIG    1       25.602 -30.270   7.119  0.00  0.00    -0.265 OA
BRANCH  28  30
ATOM     30  C   LIG    1       24.842 -28.025   6.785  0.00  0.00    +0.304 C 
ATOM     31  N   LIG    1       25.442 -26.855   7.210  0.00  0.00    -0.263 N 
ATOM     32  H   LIG    1       25.981 -26.900   8.063  0.00  0.00    +0.157 HD
ATOM     33  O   LIG    1       24.038 -28.206   5.889  0.00  0.00    -0.265 OA
BRANCH  31  34
ATOM     34  C   LIG    1       25.285 -25.636   6.543  0.00  0.00    +0.125 A 
ATOM     35  N   LIG    1       24.917 -25.641   5.251  0.00  0.00    -0.239 NA
ATOM     36  C   LIG    1       24.774 -24.455   4.617  0.00  0.00    +0.133 A 
ATOM     37  C   LIG    1       24.970 -23.234   5.232  0.00  0.00    +0.059 A 
ATOM     38 CL   LIG    1       24.749 -21.768   4.369  0.00  0.00    -0.082 Cl
ATOM     39  C   LIG    1       25.349 -23.232   6.567  0.00  0.00    +0.025 A 
ATOM     40  C   LIG    1       25.529 -24.452   7.234  0.00  0.00    +0.045 A 
ENDBRANCH  31  34
ENDBRANCH  28  30
ENDBRANCH   4  26
TORSDOF 6
ENDMDL
MODEL 4
REMARK VINA RESULT:      -7.1      2.669      3.387
REMARK  Name = *****
REMARK                            x       y       z     vdW  Elec       q    Type
REMARK                         _______ _______ _______ _____ _____    ______ ____
ROOT
ATOM      1  C   LIG    1       25.881 -30.872   5.899  0.00  0.00    +0.077 C 
ATOM      2  C   LIG    1       24.356 -30.682   5.905  0.00  0.00    +0.037 C 
ATOM      3  C   LIG    1       23.936 -29.282   6.359  0.00  0.00    +0.094 C 
ATOM      4  C   LIG    1       24.471 -28.299   5.294  0.00  0.00    +0.093 C 
ATOM      5  C   LIG    1       26.000 -28.332   5.275  0.00  0.00    +0.025 C 
ATOM      6  C   LIG    1       26.553 -29.750   5.057  0.00  0.00    +0.015 C 
ENDROOT
BRANCH   1   9
ATOM      7  C   LIG    1       26.625 -33.824   3.542  0.00  0.00    +0.131 C 
ATOM      8  N   LIG    1       26.262 -32.488   3.987  0.00  0.00    -0.307 N 
ATOM      9  C   LIG    1       26.260 -32.269   5.366  0.00  0.00    +0.218 C 
ATOM     10  O   LIG    1       26.552 -33.177   6.150  0.00  0.00    -0.275 OA
ATOM     11  C   LIG    1       25.573 -31.650   3.014  0.00  0.00    +0.131 C 
ENDBRANCH   1   9
BRANCH   3  12
ATOM     12  N   LIG    1       24.396 -29.031   7.729  0.00  0.00    -0.305 N 
ATOM     13  H   LIG    1       25.051 -28.280   7.941  0.00  0.00    +0.149 HD
ATOM     14  C   LIG    1       24.026 -29.780   8.834  0.00  0.00    +0.270 C 
ATOM     15  O   LIG    1       23.194 -30.681   8.735  0.00  0.00    -0.268 OA
BRANCH  14  16
ATOM     16  C   LIG    1       24.731 -29.406  10.060  0.00  0.00    +0.163 A 
ATOM     17  S   LIG    1       26.299 -28.695   9.997  0.00  0.00    -0.066 S 
ATOM     18  C   LIG    1       26.255 -28.498  11.683  0.00  0.00    +0.027 A 
ATOM     19  C   LIG    1       27.329 -27.871  12.508  0.00  0.00    +0.128 C 
ATOM     20  N   LIG    1       27.327 -28.420  13.885  0.00  0.00    -0.300 NA
ATOM     21  C   LIG    1       25.964 -28.361  14.466  0.00  0.00    +0.090 C 
ATOM     22  C   LIG    1       24.836 -29.073  13.671  0.00  0.00    +0.071 C 
ATOM     23  C   LIG    1       27.878 -29.776  13.912  0.00  0.00    +0.105 C 
ATOM     24  C   LIG    1       25.088 -29.023  12.200  0.00  0.00    +0.055 A 
ATOM     25  N   LIG    1       24.207 -29.549  11.272  0.00  0.00    -0.239 NA
ENDBRANCH  14  16
ENDBRANCH   3  12
BRANCH   4  26
ATOM     26  N   LIG    1       23.959 -26.952   5.430  0.00  0.00    -0.303 N 
ATOM     27  H   LIG    1       23.101 -26.667   4.957  0.00  0.00    +0.149 HD
ATOM     28  C   LIG    1       24.580 -25.996   6.209  0.00  0.00    +0.300 C 
ATOM     29  O   LIG    1       25.603 -26.141   6.865  0.00  0.00    -0.265 OA
BRANCH  28  30
ATOM     30  C   LIG    1       23.856 -24.637   6.217  0.00  0.00    +0.304 C 
ATOM     31  N   LIG    1       24.548 -23.657   5.531  0.00  0.00    -0.263 N 
ATOM     32  H   LIG    1       25.461 -23.903   5.177  0.00  0.00    +0.157 HD
ATOM     33  O   LIG    1       22.823 -24.559   6.857  0.00  0.00    -0.265 OA
BRANCH  31  34
ATOM     34  C   LIG    1       24.057 -22.358   5.366  0.00  0.00    +0.125 A 
ATOM     35  N   LIG    1       24.258 -21.728   4.197  0.00  0.00    -0.239 NA
ATOM     36  C   LIG    1       23.782 -20.470   4.053  0.00  0.00    +0.133 A 
ATOM     37  C   LIG    1       23.084 -19.801   5.040  0.00  0.00    +0.059 A 
ATOM     38 CL   LIG    1       22.492 -18.213   4.778  0.00  0.00    -0.082 Cl
ATOM     39  C   LIG    1       22.878 -20.456   6.247  0.00  0.00    +0.025 A 
ATOM     40  C   LIG    1       23.387 -21.749   6.424  0.00  0.00    +0.045 A 
ENDBRANCH  31  34
ENDBRANCH  28  30
ENDBRANCH   4  26
TORSDOF 6
ENDMDL
MODEL 5
REMARK VINA RESULT:      -6.5      5.486      9.519
REMARK  Name = *****
REMARK                            x       y       z     vdW  Elec       q    Type
REMARK                         _______ _______ _______ _____ _____    ______ ____
ROOT
ATOM      1  C   LIG    1       20.142 -30.273  12.937  0.00  0.00    +0.077 C 
ATOM      2  C   LIG    1       21.013 -31.347  13.607  0.00  0.00    +0.037 C 
ATOM      3  C   LIG    1       22.508 -31.023  13.539  0.00  0.00    +0.094 C 
ATOM      4  C   LIG    1       22.716 -29.741  14.375  0.00  0.00    +0.093 C 
ATOM      5  C   LIG    1       21.966 -28.573  13.732  0.00  0.00    +0.025 C 
ATOM      6  C   LIG    1       20.473 -28.873  13.529  0.00  0.00    +0.015 C 
ENDROOT
BRANCH   1   9
ATOM      7  C   LIG    1       16.606 -31.668  12.324  0.00  0.00    +0.131 C 
ATOM      8  N   LIG    1       18.021 -31.392  12.126  0.00  0.00    -0.307 N 
ATOM      9  C   LIG    1       18.643 -30.602  13.094  0.00  0.00    +0.218 C 
ATOM     10  O   LIG    1       18.007 -30.168  14.059  0.00  0.00    -0.275 OA
ATOM     11  C   LIG    1       18.538 -31.621  10.783  0.00  0.00    +0.131 C 
ENDBRANCH   1   9
BRANCH   3  12
ATOM     12  N   LIG    1       22.947 -30.938  12.142  0.00  0.00    -0.305 N 
ATOM     13  H   LIG    1       22.772 -30.107  11.579  0.00  0.00    +0.149 HD
ATOM     14  C   LIG    1       23.595 -31.952  11.456  0.00  0.00    +0.270 C 
ATOM     15  O   LIG    1       23.925 -32.989  12.029  0.00  0.00    -0.268 OA
BRANCH  14  16
ATOM     16  C   LIG    1       23.802 -31.663  10.038  0.00  0.00    +0.163 A 
ATOM     17  S   LIG    1       23.504 -32.863   8.837  0.00  0.00    -0.066 S 
ATOM     18  C   LIG    1       23.838 -31.712   7.634  0.00  0.00    +0.027 A 
ATOM     19  C   LIG    1       23.776 -31.958   6.163  0.00  0.00    +0.128 C 
ATOM     20  N   LIG    1       24.709 -31.063   5.437  0.00  0.00    -0.300 NA
ATOM     21  C   LIG    1       24.509 -29.654   5.855  0.00  0.00    +0.090 C 
ATOM     22  C   LIG    1       24.646 -29.351   7.372  0.00  0.00    +0.071 C 
ATOM     23  C   LIG    1       26.097 -31.498   5.612  0.00  0.00    +0.105 C 
ATOM     24  C   LIG    1       24.202 -30.510   8.203  0.00  0.00    +0.055 A 
ATOM     25  N   LIG    1       24.185 -30.475   9.586  0.00  0.00    -0.239 NA
ENDBRANCH  14  16
ENDBRANCH   3  12
BRANCH   4  26
ATOM     26  N   LIG    1       24.105 -29.424  14.625  0.00  0.00    -0.303 N 
ATOM     27  H   LIG    1       24.536 -29.628  15.528  0.00  0.00    +0.149 HD
ATOM     28  C   LIG    1       24.921 -28.854  13.668  0.00  0.00    +0.300 C 
ATOM     29  O   LIG    1       24.603 -28.549  12.526  0.00  0.00    -0.265 OA
BRANCH  28  30
ATOM     30  C   LIG    1       26.364 -28.613  14.147  0.00  0.00    +0.304 C 
ATOM     31  N   LIG    1       27.254 -29.554  13.664  0.00  0.00    -0.263 N 
ATOM     32  H   LIG    1       26.867 -30.320  13.132  0.00  0.00    +0.157 HD
ATOM     33  O   LIG    1       26.548 -27.692  14.921  0.00  0.00    -0.265 OA
BRANCH  31  34
ATOM     34  C   LIG    1       28.626 -29.505  13.929  0.00  0.00    +0.125 A 
ATOM     35  N   LIG    1       29.493 -29.750  12.934  0.00  0.00    -0.239 NA
ATOM     36  C   LIG    1       30.817 -29.705  13.206  0.00  0.00    +0.133 A 
ATOM     37  C   LIG    1       31.329 -29.403  14.453  0.00  0.00    +0.059 A 
ATOM     38 CL   LIG    1       33.022 -29.344  14.719  0.00  0.00    -0.082 Cl
ATOM     39  C   LIG    1       30.430 -29.150  15.480  0.00  0.00    +0.025 A 
ATOM     40  C   LIG    1       29.054 -29.219  15.223  0.00  0.00    +0.045 A 
ENDBRANCH  31  34
ENDBRANCH  28  30
ENDBRANCH   4  26
TORSDOF 6
ENDMDL
MODEL 6
REMARK VINA RESULT:      -6.4      5.124     11.461
REMARK  Name = *****
REMARK                            x       y       z     vdW  Elec       q    Type
REMARK                         _______ _______ _______ _____ _____    ______ ____
ROOT
ATOM      1  C   LIG    1       23.591 -20.460   5.484  0.00  0.00    +0.077 C 
ATOM      2  C   LIG    1       24.226 -21.418   4.464  0.00  0.00    +0.037 C 
ATOM      3  C   LIG    1       25.148 -22.451   5.117  0.00  0.00    +0.094 C 
ATOM      4  C   LIG    1       24.250 -23.335   6.011  0.00  0.00    +0.093 C 
ATOM      5  C   LIG    1       23.641 -22.492   7.133  0.00  0.00    +0.025 C 
ATOM      6  C   LIG    1       22.874 -21.271   6.601  0.00  0.00    +0.015 C 
ENDROOT
BRANCH   1   9
ATOM      7  C   LIG    1       22.160 -17.636   3.292  0.00  0.00    +0.131 C 
ATOM      8  N   LIG    1       23.126 -18.529   3.914  0.00  0.00    -0.307 N 
ATOM      9  C   LIG    1       22.615 -19.486   4.791  0.00  0.00    +0.218 C 
ATOM     10  O   LIG    1       21.402 -19.554   5.017  0.00  0.00    -0.275 OA
ATOM     11  C   LIG    1       24.517 -18.098   3.875  0.00  0.00    +0.131 C 
ENDBRANCH   1   9
BRANCH   3  12
ATOM     12  N   LIG    1       26.254 -21.780   5.809  0.00  0.00    -0.305 N 
ATOM     13  H   LIG    1       26.582 -20.860   5.521  0.00  0.00    +0.149 HD
ATOM     14  C   LIG    1       26.964 -22.320   6.869  0.00  0.00    +0.270 C 
ATOM     15  O   LIG    1       26.637 -23.399   7.361  0.00  0.00    -0.268 OA
BRANCH  14  16
ATOM     16  C   LIG    1       28.103 -21.505   7.289  0.00  0.00    +0.163 A 
ATOM     17  S   LIG    1       29.042 -21.941   8.667  0.00  0.00    -0.066 S 
ATOM     18  C   LIG    1       30.095 -20.652   8.330  0.00  0.00    +0.027 A 
ATOM     19  C   LIG    1       31.317 -20.307   9.115  0.00  0.00    +0.128 C 
ATOM     20  N   LIG    1       31.617 -18.859   9.020  0.00  0.00    -0.300 NA
ATOM     21  C   LIG    1       31.628 -18.422   7.602  0.00  0.00    +0.090 C 
ATOM     22  C   LIG    1       30.340 -18.695   6.779  0.00  0.00    +0.071 C 
ATOM     23  C   LIG    1       30.682 -18.074   9.830  0.00  0.00    +0.105 C 
ATOM     24  C   LIG    1       29.654 -19.941   7.234  0.00  0.00    +0.055 A 
ATOM     25  N   LIG    1       28.507 -20.426   6.631  0.00  0.00    -0.239 NA
ENDBRANCH  14  16
ENDBRANCH   3  12
BRANCH   4  26
ATOM     26  N   LIG    1       24.911 -24.518   6.517  0.00  0.00    -0.303 N 
ATOM     27  H   LIG    1       25.665 -24.446   7.200  0.00  0.00    +0.149 HD
ATOM     28  C   LIG    1       24.554 -25.793   6.125  0.00  0.00    +0.300 C 
ATOM     29  O   LIG    1       23.671 -26.092   5.332  0.00  0.00    -0.265 OA
BRANCH  28  30
ATOM     30  C   LIG    1       25.383 -26.903   6.796  0.00  0.00    +0.304 C 
ATOM     31  N   LIG    1       24.685 -28.089   6.928  0.00  0.00    -0.263 N 
ATOM     32  H   LIG    1       23.713 -28.082   6.653  0.00  0.00    +0.157 HD
ATOM     33  O   LIG    1       26.499 -26.610   7.182  0.00  0.00    -0.265 OA
BRANCH  31  34
ATOM     34  C   LIG    1       25.254 -29.248   7.464  0.00  0.00    +0.125 A 
ATOM     35  N   LIG    1       25.344 -30.347   6.698  0.00  0.00    -0.239 NA
ATOM     36  C   LIG    1       25.893 -31.462   7.232  0.00  0.00    +0.133 A 
ATOM     37  C   LIG    1       26.382 -31.528   8.521  0.00  0.00    +0.059 A 
ATOM     38 CL   LIG    1       27.084 -32.972   9.124  0.00  0.00    -0.082 Cl
ATOM     39  C   LIG    1       26.288 -30.390   9.311  0.00  0.00    +0.025 A 
ATOM     40  C   LIG    1       25.698 -29.233   8.784  0.00  0.00    +0.045 A 
ENDBRANCH  31  34
ENDBRANCH  28  30
ENDBRANCH   4  26
TORSDOF 6
ENDMDL
MODEL 7
REMARK VINA RESULT:      -6.3      3.856      4.534
REMARK  Name = *****
REMARK                            x       y       z     vdW  Elec       q    Type
REMARK                         _______ _______ _______ _____ _____    ______ ____
ROOT
ATOM      1  C   LIG    1       25.228 -30.396   5.791  0.00  0.00    +0.077 C 
ATOM      2  C   LIG    1       24.003 -29.499   6.028  0.00  0.00    +0.037 C 
ATOM      3  C   LIG    1       24.366 -28.159   6.670  0.00  0.00    +0.094 C 
ATOM      4  C   LIG    1       25.239 -27.404   5.643  0.00  0.00    +0.093 C 
ATOM      5  C   LIG    1       26.544 -28.166   5.408  0.00  0.00    +0.025 C 
ATOM      6  C   LIG    1       26.305 -29.622   4.978  0.00  0.00    +0.015 C 
ENDROOT
BRANCH   1   9
ATOM      7  C   LIG    1       23.643 -33.818   5.016  0.00  0.00    +0.131 C 
ATOM      8  N   LIG    1       23.988 -32.603   5.737  0.00  0.00    -0.307 N 
ATOM      9  C   LIG    1       24.825 -31.702   5.076  0.00  0.00    +0.218 C 
ATOM     10  O   LIG    1       25.242 -31.945   3.939  0.00  0.00    -0.275 OA
ATOM     11  C   LIG    1       23.765 -32.624   7.176  0.00  0.00    +0.131 C 
ENDBRANCH   1   9
BRANCH   3  12
ATOM     12  N   LIG    1       24.988 -28.375   7.981  0.00  0.00    -0.305 N 
ATOM     13  H   LIG    1       25.825 -27.865   8.263  0.00  0.00    +0.149 HD
ATOM     14  C   LIG    1       24.540 -29.281   8.927  0.00  0.00    +0.270 C 
ATOM     15  O   LIG    1       23.505 -29.921   8.746  0.00  0.00    -0.268 OA
BRANCH  14  16
ATOM     16  C   LIG    1       25.417 -29.398  10.092  0.00  0.00    +0.163 A 
ATOM     17  S   LIG    1       24.783 -29.821  11.638  0.00  0.00    -0.066 S 
ATOM     18  C   LIG    1       26.365 -29.851  12.255  0.00  0.00    +0.027 A 
ATOM     19  C   LIG    1       26.737 -30.189  13.660  0.00  0.00    +0.128 C 
ATOM     20  N   LIG    1       27.998 -29.514  14.050  0.00  0.00    -0.300 NA
ATOM     21  C   LIG    1       29.054 -29.756  13.037  0.00  0.00    +0.090 C 
ATOM     22  C   LIG    1       28.726 -29.340  11.577  0.00  0.00    +0.071 C 
ATOM     23  C   LIG    1       27.778 -28.085  14.286  0.00  0.00    +0.105 C 
ATOM     24  C   LIG    1       27.271 -29.493  11.278  0.00  0.00    +0.055 A 
ATOM     25  N   LIG    1       26.732 -29.229  10.031  0.00  0.00    -0.239 NA
ENDBRANCH  14  16
ENDBRANCH   3  12
BRANCH   4  26
ATOM     26  N   LIG    1       25.472 -26.016   5.980  0.00  0.00    -0.303 N 
ATOM     27  H   LIG    1       26.421 -25.650   6.068  0.00  0.00    +0.149 HD
ATOM     28  C   LIG    1       24.443 -25.118   6.183  0.00  0.00    +0.300 C 
ATOM     29  O   LIG    1       23.244 -25.353   6.110  0.00  0.00    -0.265 OA
BRANCH  28  30
ATOM     30  C   LIG    1       24.921 -23.694   6.521  0.00  0.00    +0.304 C 
ATOM     31  N   LIG    1       26.205 -23.666   7.031  0.00  0.00    -0.263 N 
ATOM     32  H   LIG    1       26.652 -24.556   7.198  0.00  0.00    +0.157 HD
ATOM     33  O   LIG    1       24.123 -22.787   6.370  0.00  0.00    -0.265 OA
BRANCH  31  34
ATOM     34  C   LIG    1       26.863 -22.478   7.363  0.00  0.00    +0.125 A 
ATOM     35  N   LIG    1       28.123 -22.288   6.939  0.00  0.00    -0.239 NA
ATOM     36  C   LIG    1       28.749 -21.136   7.272  0.00  0.00    +0.133 A 
ATOM     37  C   LIG    1       28.155 -20.133   8.013  0.00  0.00    +0.059 A 
ATOM     38 CL   LIG    1       29.004 -18.688   8.379  0.00  0.00    -0.082 Cl
ATOM     39  C   LIG    1       26.852 -20.332   8.449  0.00  0.00    +0.025 A 
ATOM     40  C   LIG    1       26.197 -21.530   8.137  0.00  0.00    +0.045 A 
ENDBRANCH  31  34
ENDBRANCH  28  30
ENDBRANCH   4  26
TORSDOF 6
ENDMDL
MODEL 8
REMARK VINA RESULT:      -6.2      4.044      5.780
REMARK  Name = *****
REMARK                            x       y       z     vdW  Elec       q    Type
REMARK                         _______ _______ _______ _____ _____    ______ ____
ROOT
ATOM      1  C   LIG    1       24.668 -31.541   9.528  0.00  0.00    +0.077 C 
ATOM      2  C   LIG    1       23.972 -30.218   9.886  0.00  0.00    +0.037 C 
ATOM      3  C   LIG    1       24.852 -28.996   9.617  0.00  0.00    +0.094 C 
ATOM      4  C   LIG    1       25.077 -28.946   8.090  0.00  0.00    +0.093 C 
ATOM      5  C   LIG    1       25.860 -30.179   7.638  0.00  0.00    +0.025 C 
ATOM      6  C   LIG    1       25.183 -31.492   8.061  0.00  0.00    +0.015 C 
ENDROOT
BRANCH   1   9
ATOM      7  C   LIG    1       21.895 -33.824  10.915  0.00  0.00    +0.131 C 
ATOM      8  N   LIG    1       22.760 -32.666  10.755  0.00  0.00    -0.307 N 
ATOM      9  C   LIG    1       23.720 -32.739   9.744  0.00  0.00    +0.218 C 
ATOM     10  O   LIG    1       23.815 -33.745   9.035  0.00  0.00    -0.275 OA
ATOM     11  C   LIG    1       22.807 -31.739  11.879  0.00  0.00    +0.131 C 
ENDBRANCH   1   9
BRANCH   3  12
ATOM     12  N   LIG    1       26.073 -29.060  10.428  0.00  0.00    -0.305 N 
ATOM     13  H   LIG    1       26.950 -29.407  10.042  0.00  0.00    +0.149 HD
ATOM     14  C   LIG    1       26.154 -28.697  11.762  0.00  0.00    +0.270 C 
ATOM     15  O   LIG    1       25.187 -28.202  12.340  0.00  0.00    -0.268 OA
BRANCH  14  16
ATOM     16  C   LIG    1       27.452 -28.984  12.372  0.00  0.00    +0.163 A 
ATOM     17  S   LIG    1       27.587 -29.284  14.064  0.00  0.00    -0.066 S 
ATOM     18  C   LIG    1       29.238 -29.620  13.850  0.00  0.00    +0.027 A 
ATOM     19  C   LIG    1       30.183 -30.030  14.931  0.00  0.00    +0.128 C 
ATOM     20  N   LIG    1       31.568 -29.611  14.610  0.00  0.00    -0.300 NA
ATOM     21  C   LIG    1       31.940 -30.047  13.242  0.00  0.00    +0.090 C 
ATOM     22  C   LIG    1       31.021 -29.570  12.085  0.00  0.00    +0.071 C 
ATOM     23  C   LIG    1       31.736 -28.167  14.792  0.00  0.00    +0.105 C 
ATOM     24  C   LIG    1       29.602 -29.439  12.532  0.00  0.00    +0.055 A 
ATOM     25  N   LIG    1       28.579 -29.071  11.676  0.00  0.00    -0.239 NA
ENDBRANCH  14  16
ENDBRANCH   3  12
BRANCH   4  26
ATOM     26  N   LIG    1       25.684 -27.716   7.627  0.00  0.00    -0.303 N 
ATOM     27  H   LIG    1       26.609 -27.433   7.953  0.00  0.00    +0.149 HD
ATOM     28  C   LIG    1       25.066 -26.878   6.720  0.00  0.00    +0.300 C 
ATOM     29  O   LIG    1       23.970 -27.045   6.202  0.00  0.00    -0.265 OA
BRANCH  28  30
ATOM     30  C   LIG    1       25.897 -25.633   6.362  0.00  0.00    +0.304 C 
ATOM     31  N   LIG    1       25.302 -24.454   6.771  0.00  0.00    -0.263 N 
ATOM     32  H   LIG    1       24.380 -24.523   7.177  0.00  0.00    +0.157 HD
ATOM     33  O   LIG    1       26.919 -25.808   5.724  0.00  0.00    -0.265 OA
BRANCH  31  34
ATOM     34  C   LIG    1       25.900 -23.203   6.595  0.00  0.00    +0.125 A 
ATOM     35  N   LIG    1       27.042 -22.926   7.246  0.00  0.00    -0.239 NA
ATOM     36  C   LIG    1       27.606 -21.709   7.070  0.00  0.00    +0.133 A 
ATOM     37  C   LIG    1       27.078 -20.738   6.242  0.00  0.00    +0.059 A 
ATOM     38 CL   LIG    1       27.861 -19.223   6.052  0.00  0.00    -0.082 Cl
ATOM     39  C   LIG    1       25.898 -21.026   5.571  0.00  0.00    +0.025 A 
ATOM     40  C   LIG    1       25.285 -22.272   5.761  0.00  0.00    +0.045 A 
ENDBRANCH  31  34
ENDBRANCH  28  30
ENDBRANCH   4  26
TORSDOF 6
ENDMDL
MODEL 9
REMARK VINA RESULT:      -6.1      6.047      9.312
REMARK  Name = *****
REMARK                            x       y       z     vdW  Elec       q    Type
REMARK                         _______ _______ _______ _____ _____    ______ ____
ROOT
ATOM      1  C   LIG    1       27.646 -28.377  14.355  0.00  0.00    +0.077 C 
ATOM      2  C   LIG    1       26.787 -27.274  13.717  0.00  0.00    +0.037 C 
ATOM      3  C   LIG    1       25.420 -27.782  13.255  0.00  0.00    +0.094 C 
ATOM      4  C   LIG    1       24.660 -28.213  14.529  0.00  0.00    +0.093 C 
ATOM      5  C   LIG    1       25.381 -29.386  15.194  0.00  0.00    +0.025 C 
ATOM      6  C   LIG    1       26.854 -29.073  15.499  0.00  0.00    +0.015 C 
ENDROOT
BRANCH   1   9
ATOM      7  C   LIG    1       31.368 -27.992  15.262  0.00  0.00    +0.131 C 
ATOM      8  N   LIG    1       30.138 -28.580  14.755  0.00  0.00    -0.307 N 
ATOM      9  C   LIG    1       28.982 -27.806  14.873  0.00  0.00    +0.218 C 
ATOM     10  O   LIG    1       29.023 -26.683  15.385  0.00  0.00    -0.275 OA
ATOM     11  C   LIG    1       30.152 -30.023  14.548  0.00  0.00    +0.131 C 
ENDBRANCH   1   9
BRANCH   3  12
ATOM     12  N   LIG    1       25.582 -28.828  12.239  0.00  0.00    -0.305 N 
ATOM     13  H   LIG    1       26.495 -29.226  12.027  0.00  0.00    +0.149 HD
ATOM     14  C   LIG    1       24.554 -29.343  11.466  0.00  0.00    +0.270 C 
ATOM     15  O   LIG    1       23.389 -28.997  11.656  0.00  0.00    -0.268 OA
BRANCH  14  16
ATOM     16  C   LIG    1       25.005 -30.277  10.435  0.00  0.00    +0.163 A 
ATOM     17  S   LIG    1       26.651 -30.305   9.926  0.00  0.00    -0.066 S 
ATOM     18  C   LIG    1       26.300 -31.636   8.933  0.00  0.00    +0.027 A 
ATOM     19  C   LIG    1       27.286 -32.361   8.078  0.00  0.00    +0.128 C 
ATOM     20  N   LIG    1       26.620 -32.972   6.903  0.00  0.00    -0.300 NA
ATOM     21  C   LIG    1       25.442 -33.767   7.327  0.00  0.00    +0.090 C 
ATOM     22  C   LIG    1       24.358 -33.021   8.152  0.00  0.00    +0.071 C 
ATOM     23  C   LIG    1       26.268 -31.954   5.910  0.00  0.00    +0.105 C 
ATOM     24  C   LIG    1       24.958 -31.951   9.004  0.00  0.00    +0.055 A 
ATOM     25  N   LIG    1       24.207 -31.171   9.865  0.00  0.00    -0.239 NA
ENDBRANCH  14  16
ENDBRANCH   3  12
BRANCH   4  26
ATOM     26  N   LIG    1       23.257 -28.491  14.308  0.00  0.00    -0.303 N 
ATOM     27  H   LIG    1       22.942 -29.426  14.047  0.00  0.00    +0.149 HD
ATOM     28  C   LIG    1       22.277 -27.528  14.452  0.00  0.00    +0.300 C 
ATOM     29  O   LIG    1       22.445 -26.359  14.771  0.00  0.00    -0.265 OA
BRANCH  28  30
ATOM     30  C   LIG    1       20.854 -28.047  14.177  0.00  0.00    +0.304 C 
ATOM     31  N   LIG    1       20.840 -29.328  13.658  0.00  0.00    -0.263 N 
ATOM     32  H   LIG    1       21.734 -29.745  13.444  0.00  0.00    +0.157 HD
ATOM     33  O   LIG    1       19.931 -27.279  14.380  0.00  0.00    -0.265 OA
BRANCH  31  34
ATOM     34  C   LIG    1       19.658 -30.019  13.377  0.00  0.00    +0.125 A 
ATOM     35  N   LIG    1       18.604 -29.869  14.196  0.00  0.00    -0.239 NA
ATOM     36  C   LIG    1       17.468 -30.549  13.915  0.00  0.00    +0.133 A 
ATOM     37  C   LIG    1       17.327 -31.377  12.819  0.00  0.00    +0.059 A 
ATOM     38 CL   LIG    1       15.848 -32.191  12.514  0.00  0.00    -0.082 Cl
ATOM     39  C   LIG    1       18.418 -31.529  11.975  0.00  0.00    +0.025 A 
ATOM     40  C   LIG    1       19.612 -30.855  12.264  0.00  0.00    +0.045 A 
ENDBRANCH  31  34
ENDBRANCH  28  30
ENDBRANCH   4  26
TORSDOF 6
ENDMDL
