MODEL 1
REMARK VINA RESULT:      -9.4      0.000      0.000
REMARK  Name = *****
REMARK                            x       y       z     vdW  Elec       q    Type
REMARK                         _______ _______ _______ _____ _____    ______ ____
ROOT
ATOM      1  C   LIG    1       24.418 -28.804   7.163  0.00  0.00    +0.044 C 
ATOM      2  C   LIG    1       24.602 -30.063   6.281  0.00  0.00    +0.122 C 
ATOM      3  C   LIG    1       25.455 -29.589   5.093  0.00  0.00    +0.036 C 
ATOM      4  C   LIG    1       25.140 -28.096   4.928  0.00  0.00    -0.001 C 
ATOM      5  C   LIG    1       26.320 -27.148   5.167  0.00  0.00    +0.034 C 
ATOM      6  C   LIG    1       25.715 -25.994   5.923  0.00  0.00    -0.073 C 
ATOM      7  C   LIG    1       26.381 -24.873   6.237  0.00  0.00    -0.027 C 
ATOM      8  C   LIG    1       24.293 -26.287   6.305  0.00  0.00    +0.035 C 
ATOM      9  C   LIG    1       24.136 -27.769   6.038  0.00  0.00    +0.006 C 
ENDROOT
BRANCH   1  11
ATOM     10  C   LIG    1       25.871 -29.321   9.188  0.00  0.00    +0.000 C 
ATOM     11  C   LIG    1       25.597 -28.564   8.105  0.00  0.00    -0.022 C 
BRANCH  10  12
ATOM     12  C   LIG    1       27.009 -29.171  10.173  0.00  0.00    +0.141 C 
BRANCH  12  13
ATOM     13  C   LIG    1       26.522 -28.700  11.573  0.00  0.00    +0.030 C 
ATOM     14  C   LIG    1       26.524 -29.845  12.602  0.00  0.00    +0.011 C 
BRANCH  13  15
ATOM     15  C   LIG    1       27.387 -27.554  12.129  0.00  0.00    +0.095 C 
BRANCH  15  18
ATOM     16  C   LIG    1       25.158 -24.568  13.963  0.00  0.00    +0.106 C 
ATOM     17  C   LIG    1       25.900 -25.630  13.308  0.00  0.00    -0.106 C 
ATOM     18  C   LIG    1       26.564 -26.505  12.763  0.00  0.00    -0.102 C 
ENDBRANCH  15  18
ENDBRANCH  13  15
ENDBRANCH  12  13
BRANCH  12  19
ATOM     19  O   LIG    1       27.722 -30.395  10.297  0.00  0.00    -0.388 OA
ATOM     20  H   LIG    1       27.734 -30.810   9.418  0.00  0.00    +0.210 HD
ENDBRANCH  12  19
ENDBRANCH  10  12
ENDBRANCH   1  11
BRANCH   2  21
ATOM     21  O   LIG    1       23.329 -30.518   5.818  0.00  0.00    -0.391 OA
ATOM     22  H   LIG    1       23.132 -31.342   6.297  0.00  0.00    +0.210 HD
ENDBRANCH   2  21
BRANCH   7  23
ATOM     23  C   LIG    1       25.843 -23.763   7.093  0.00  0.00    +0.028 C 
BRANCH  23  24
ATOM     24  C   LIG    1       26.887 -22.687   7.421  0.00  0.00    +0.015 C 
BRANCH  24  25
ATOM     25  C   LIG    1       26.366 -21.263   7.212  0.00  0.00    +0.121 C 
BRANCH  25  26
ATOM     26  C   LIG    1       25.492 -20.841   8.355  0.00  0.00    +0.307 C 
ATOM     27  O   LIG    1       25.882 -20.806   9.515  0.00  0.00    -0.251 OA
BRANCH  26  28
ATOM     28  O   LIG    1       24.257 -20.466   7.929  0.00  0.00    -0.457 OA
BRANCH  28  29
ATOM     29  C   LIG    1       23.308 -21.534   7.868  0.00  0.00    +0.311 C 
BRANCH  29  30
ATOM     30  C   LIG    1       22.950 -21.847   6.418  0.00  0.00    +0.200 C 
ATOM     31  O   LIG    1       22.437 -22.922   6.106  0.00  0.00    -0.288 OA
BRANCH  30  32
ATOM     32  C   LIG    1       23.218 -20.826   5.369  0.00  0.00    +0.021 A 
ATOM     33  C   LIG    1       22.452 -19.659   5.273  0.00  0.00    +0.011 A 
ATOM     34  C   LIG    1       22.724 -18.702   4.302  0.00  0.00    +0.001 A 
ATOM     35  C   LIG    1       23.753 -18.917   3.395  0.00  0.00    +0.000 A 
ATOM     36  C   LIG    1       24.526 -20.078   3.478  0.00  0.00    +0.001 A 
ATOM     37  C   LIG    1       24.271 -21.028   4.471  0.00  0.00    +0.011 A 
ENDBRANCH  30  32
ENDBRANCH  29  30
ENDBRANCH  28  29
ENDBRANCH  26  28
ENDBRANCH  25  26
ENDBRANCH  24  25
ENDBRANCH  23  24
ENDBRANCH   7  23
TORSDOF 15
ENDMDL
MODEL 2
REMARK VINA RESULT:      -9.3      1.997      3.586
REMARK  Name = *****
REMARK                            x       y       z     vdW  Elec       q    Type
REMARK                         _______ _______ _______ _____ _____    ______ ____
ROOT
ATOM      1  C   LIG    1       24.427 -29.262   7.161  0.00  0.00    +0.044 C 
ATOM      2  C   LIG    1       24.696 -30.527   6.310  0.00  0.00    +0.122 C 
ATOM      3  C   LIG    1       25.521 -30.026   5.113  0.00  0.00    +0.036 C 
ATOM      4  C   LIG    1       25.111 -28.561   4.912  0.00  0.00    -0.001 C 
ATOM      5  C   LIG    1       26.226 -27.533   5.132  0.00  0.00    +0.034 C 
ATOM      6  C   LIG    1       25.545 -26.403   5.859  0.00  0.00    -0.073 C 
ATOM      7  C   LIG    1       26.135 -25.235   6.148  0.00  0.00    -0.027 C 
ATOM      8  C   LIG    1       24.143 -26.779   6.243  0.00  0.00    +0.035 C 
ATOM      9  C   LIG    1       24.083 -28.274   6.011  0.00  0.00    +0.006 C 
ENDROOT
BRANCH   1  11
ATOM     10  C   LIG    1       25.795 -29.522   9.292  0.00  0.00    +0.000 C 
ATOM     11  C   LIG    1       25.583 -28.924   8.100  0.00  0.00    -0.022 C 
BRANCH  10  12
ATOM     12  C   LIG    1       26.906 -29.265  10.286  0.00  0.00    +0.141 C 
BRANCH  12  13
ATOM     13  C   LIG    1       26.365 -28.912  11.701  0.00  0.00    +0.030 C 
ATOM     14  C   LIG    1       26.548 -27.421  12.035  0.00  0.00    +0.011 C 
BRANCH  13  15
ATOM     15  C   LIG    1       24.871 -29.257  11.849  0.00  0.00    +0.095 C 
BRANCH  15  18
ATOM     16  C   LIG    1       22.787 -26.359  13.973  0.00  0.00    +0.106 C 
ATOM     17  C   LIG    1       23.542 -27.377  13.265  0.00  0.00    -0.106 C 
ATOM     18  C   LIG    1       24.150 -28.236  12.635  0.00  0.00    -0.102 C 
ENDBRANCH  15  18
ENDBRANCH  13  15
ENDBRANCH  12  13
BRANCH  12  19
ATOM     19  O   LIG    1       27.768 -30.392  10.367  0.00  0.00    -0.388 OA
ATOM     20  H   LIG    1       27.887 -30.728   9.462  0.00  0.00    +0.210 HD
ENDBRANCH  12  19
ENDBRANCH  10  12
ENDBRANCH   1  11
BRANCH   2  21
ATOM     21  O   LIG    1       23.457 -31.074   5.854  0.00  0.00    -0.391 OA
ATOM     22  H   LIG    1       23.652 -31.575   5.043  0.00  0.00    +0.210 HD
ENDBRANCH   2  21
BRANCH   7  23
ATOM     23  C   LIG    1       25.523 -24.142   6.976  0.00  0.00    +0.028 C 
BRANCH  23  24
ATOM     24  C   LIG    1       24.481 -23.312   6.214  0.00  0.00    +0.015 C 
BRANCH  24  25
ATOM     25  C   LIG    1       23.508 -22.577   7.138  0.00  0.00    +0.121 C 
BRANCH  25  26
ATOM     26  C   LIG    1       23.738 -21.097   7.089  0.00  0.00    +0.307 C 
ATOM     27  O   LIG    1       23.043 -20.336   6.427  0.00  0.00    -0.251 OA
BRANCH  26  28
ATOM     28  O   LIG    1       24.764 -20.721   7.896  0.00  0.00    -0.457 OA
BRANCH  28  29
ATOM     29  C   LIG    1       25.953 -20.344   7.196  0.00  0.00    +0.311 C 
BRANCH  29  30
ATOM     30  C   LIG    1       27.189 -20.875   7.916  0.00  0.00    +0.200 C 
ATOM     31  O   LIG    1       27.096 -21.746   8.783  0.00  0.00    -0.288 OA
BRANCH  30  32
ATOM     32  C   LIG    1       28.527 -20.336   7.553  0.00  0.00    +0.021 A 
ATOM     33  C   LIG    1       29.660 -20.615   8.325  0.00  0.00    +0.011 A 
ATOM     34  C   LIG    1       30.910 -20.123   7.966  0.00  0.00    +0.001 A 
ATOM     35  C   LIG    1       31.034 -19.321   6.839  0.00  0.00    +0.000 A 
ATOM     36  C   LIG    1       29.911 -19.033   6.060  0.00  0.00    +0.001 A 
ATOM     37  C   LIG    1       28.659 -19.550   6.405  0.00  0.00    +0.011 A 
ENDBRANCH  30  32
ENDBRANCH  29  30
ENDBRANCH  28  29
ENDBRANCH  26  28
ENDBRANCH  25  26
ENDBRANCH  24  25
ENDBRANCH  23  24
ENDBRANCH   7  23
TORSDOF 15
ENDMDL
MODEL 3
REMARK VINA RESULT:      -9.3      1.680      2.916
REMARK  Name = *****
REMARK                            x       y       z     vdW  Elec       q    Type
REMARK                         _______ _______ _______ _____ _____    ______ ____
ROOT
ATOM      1  C   LIG    1       24.499 -29.689   7.477  0.00  0.00    +0.044 C 
ATOM      2  C   LIG    1       24.672 -31.028   6.718  0.00  0.00    +0.122 C 
ATOM      3  C   LIG    1       25.439 -30.656   5.439  0.00  0.00    +0.036 C 
ATOM      4  C   LIG    1       25.069 -29.197   5.142  0.00  0.00    -0.001 C 
ATOM      5  C   LIG    1       26.230 -28.199   5.213  0.00  0.00    +0.034 C 
ATOM      6  C   LIG    1       25.633 -26.989   5.883  0.00  0.00    -0.073 C 
ATOM      7  C   LIG    1       26.280 -25.826   6.042  0.00  0.00    -0.027 C 
ATOM      8  C   LIG    1       24.245 -27.278   6.378  0.00  0.00    +0.035 C 
ATOM      9  C   LIG    1       24.120 -28.783   6.272  0.00  0.00    +0.006 C 
ENDROOT
BRANCH   1  11
ATOM     10  C   LIG    1       25.744 -29.327   9.667  0.00  0.00    +0.000 C 
ATOM     11  C   LIG    1       25.721 -29.323   8.317  0.00  0.00    -0.022 C 
BRANCH  10  12
ATOM     12  C   LIG    1       26.898 -28.989  10.586  0.00  0.00    +0.141 C 
BRANCH  12  13
ATOM     13  C   LIG    1       26.445 -28.808  12.063  0.00  0.00    +0.030 C 
ATOM     14  C   LIG    1       26.455 -27.331  12.494  0.00  0.00    +0.011 C 
BRANCH  13  15
ATOM     15  C   LIG    1       25.031 -29.368  12.305  0.00  0.00    +0.095 C 
BRANCH  15  18
ATOM     16  C   LIG    1       22.300 -26.467  13.477  0.00  0.00    +0.106 C 
ATOM     17  C   LIG    1       23.281 -27.449  13.051  0.00  0.00    -0.106 C 
ATOM     18  C   LIG    1       24.086 -28.310  12.713  0.00  0.00    -0.102 C 
ENDBRANCH  15  18
ENDBRANCH  13  15
ENDBRANCH  12  13
BRANCH  12  19
ATOM     19  O   LIG    1       27.902 -29.991  10.509  0.00  0.00    -0.388 OA
ATOM     20  H   LIG    1       27.456 -30.852  10.590  0.00  0.00    +0.210 HD
ENDBRANCH  12  19
ENDBRANCH  10  12
ENDBRANCH   1  11
BRANCH   2  21
ATOM     21  O   LIG    1       23.389 -31.560   6.380  0.00  0.00    -0.391 OA
ATOM     22  H   LIG    1       22.889 -31.640   7.211  0.00  0.00    +0.210 HD
ENDBRANCH   2  21
BRANCH   7  23
ATOM     23  C   LIG    1       25.757 -24.647   6.812  0.00  0.00    +0.028 C 
BRANCH  23  24
ATOM     24  C   LIG    1       24.752 -23.800   6.020  0.00  0.00    +0.015 C 
BRANCH  24  25
ATOM     25  C   LIG    1       23.399 -23.662   6.723  0.00  0.00    +0.121 C 
BRANCH  25  26
ATOM     26  C   LIG    1       23.041 -22.219   6.913  0.00  0.00    +0.307 C 
ATOM     27  O   LIG    1       22.925 -21.701   8.017  0.00  0.00    -0.251 OA
BRANCH  26  28
ATOM     28  O   LIG    1       22.912 -21.573   5.725  0.00  0.00    -0.457 OA
BRANCH  28  29
ATOM     29  C   LIG    1       23.553 -20.295   5.679  0.00  0.00    +0.311 C 
BRANCH  29  30
ATOM     30  C   LIG    1       24.941 -20.416   5.057  0.00  0.00    +0.200 C 
ATOM     31  O   LIG    1       25.083 -20.576   3.843  0.00  0.00    -0.288 OA
BRANCH  30  32
ATOM     32  C   LIG    1       26.138 -20.327   5.934  0.00  0.00    +0.021 A 
ATOM     33  C   LIG    1       27.404 -20.030   5.416  0.00  0.00    +0.011 A 
ATOM     34  C   LIG    1       28.513 -19.930   6.247  0.00  0.00    +0.001 A 
ATOM     35  C   LIG    1       28.372 -20.153   7.610  0.00  0.00    +0.000 A 
ATOM     36  C   LIG    1       27.116 -20.453   8.142  0.00  0.00    +0.001 A 
ATOM     37  C   LIG    1       25.994 -20.527   7.311  0.00  0.00    +0.011 A 
ENDBRANCH  30  32
ENDBRANCH  29  30
ENDBRANCH  28  29
ENDBRANCH  26  28
ENDBRANCH  25  26
ENDBRANCH  24  25
ENDBRANCH  23  24
ENDBRANCH   7  23
TORSDOF 15
ENDMDL
MODEL 4
REMARK VINA RESULT:      -9.3      3.299      4.901
REMARK  Name = *****
REMARK                            x       y       z     vdW  Elec       q    Type
REMARK                         _______ _______ _______ _____ _____    ______ ____
ROOT
ATOM      1  C   LIG    1       24.446 -28.839   7.157  0.00  0.00    +0.044 C 
ATOM      2  C   LIG    1       24.726 -30.080   6.274  0.00  0.00    +0.122 C 
ATOM      3  C   LIG    1       25.610 -29.555   5.130  0.00  0.00    +0.036 C 
ATOM      4  C   LIG    1       25.236 -28.076   4.963  0.00  0.00    -0.001 C 
ATOM      5  C   LIG    1       26.359 -27.079   5.264  0.00  0.00    +0.034 C 
ATOM      6  C   LIG    1       25.669 -25.961   6.000  0.00  0.00    -0.073 C 
ATOM      7  C   LIG    1       26.269 -24.815   6.354  0.00  0.00    -0.027 C 
ATOM      8  C   LIG    1       24.246 -26.321   6.314  0.00  0.00    +0.035 C 
ATOM      9  C   LIG    1       24.168 -27.806   6.028  0.00  0.00    +0.006 C 
ENDROOT
BRANCH   1  11
ATOM     10  C   LIG    1       25.910 -29.378   9.168  0.00  0.00    +0.000 C 
ATOM     11  C   LIG    1       25.568 -28.555   8.154  0.00  0.00    -0.022 C 
BRANCH  10  12
ATOM     12  C   LIG    1       27.002 -29.193  10.199  0.00  0.00    +0.141 C 
BRANCH  12  13
ATOM     13  C   LIG    1       26.435 -28.875  11.612  0.00  0.00    +0.030 C 
ATOM     14  C   LIG    1       26.591 -27.389  11.978  0.00  0.00    +0.011 C 
BRANCH  13  15
ATOM     15  C   LIG    1       24.944 -29.244  11.731  0.00  0.00    +0.095 C 
BRANCH  15  18
ATOM     16  C   LIG    1       22.818 -26.478  13.984  0.00  0.00    +0.106 C 
ATOM     17  C   LIG    1       23.586 -27.454  13.232  0.00  0.00    -0.106 C 
ATOM     18  C   LIG    1       24.206 -28.274  12.563  0.00  0.00    -0.102 C 
ENDBRANCH  15  18
ENDBRANCH  13  15
ENDBRANCH  12  13
BRANCH  12  19
ATOM     19  O   LIG    1       27.827 -30.348  10.259  0.00  0.00    -0.388 OA
ATOM     20  H   LIG    1       27.242 -31.123  10.201  0.00  0.00    +0.210 HD
ENDBRANCH  12  19
ENDBRANCH  10  12
ENDBRANCH   1  11
BRANCH   2  21
ATOM     21  O   LIG    1       23.498 -30.586   5.749  0.00  0.00    -0.391 OA
ATOM     22  H   LIG    1       23.403 -30.223   4.852  0.00  0.00    +0.210 HD
ENDBRANCH   2  21
BRANCH   7  23
ATOM     23  C   LIG    1       25.643 -23.739   7.194  0.00  0.00    +0.028 C 
BRANCH  23  24
ATOM     24  C   LIG    1       25.983 -22.320   6.717  0.00  0.00    +0.015 C 
BRANCH  24  25
ATOM     25  C   LIG    1       27.295 -21.791   7.300  0.00  0.00    +0.121 C 
BRANCH  25  26
ATOM     26  C   LIG    1       27.037 -20.701   8.297  0.00  0.00    +0.307 C 
ATOM     27  O   LIG    1       26.110 -20.737   9.097  0.00  0.00    -0.251 OA
BRANCH  26  28
ATOM     28  O   LIG    1       27.975 -19.721   8.223  0.00  0.00    -0.457 OA
BRANCH  28  29
ATOM     29  C   LIG    1       29.275 -20.180   7.841  0.00  0.00    +0.311 C 
BRANCH  29  30
ATOM     30  C   LIG    1       30.192 -18.998   7.544  0.00  0.00    +0.200 C 
ATOM     31  O   LIG    1       30.499 -18.704   6.387  0.00  0.00    -0.288 OA
BRANCH  30  32
ATOM     32  C   LIG    1       30.715 -18.184   8.674  0.00  0.00    +0.021 A 
ATOM     33  C   LIG    1       31.944 -17.521   8.591  0.00  0.00    +0.011 A 
ATOM     34  C   LIG    1       32.414 -16.747   9.644  0.00  0.00    +0.001 A 
ATOM     35  C   LIG    1       31.666 -16.648  10.810  0.00  0.00    +0.000 A 
ATOM     36  C   LIG    1       30.438 -17.305  10.910  0.00  0.00    +0.001 A 
ATOM     37  C   LIG    1       29.951 -18.062   9.840  0.00  0.00    +0.011 A 
ENDBRANCH  30  32
ENDBRANCH  29  30
ENDBRANCH  28  29
ENDBRANCH  26  28
ENDBRANCH  25  26
ENDBRANCH  24  25
ENDBRANCH  23  24
ENDBRANCH   7  23
TORSDOF 15
ENDMDL
MODEL 5
REMARK VINA RESULT:      -9.2      2.647      9.128
REMARK  Name = *****
REMARK                            x       y       z     vdW  Elec       q    Type
REMARK                         _______ _______ _______ _____ _____    ______ ____
ROOT
ATOM      1  C   LIG    1       25.041 -20.425   4.842  0.00  0.00    +0.044 C 
ATOM      2  C   LIG    1       23.905 -19.376   4.922  0.00  0.00    +0.122 C 
ATOM      3  C   LIG    1       22.799 -20.058   5.744  0.00  0.00    +0.036 C 
ATOM      4  C   LIG    1       22.970 -21.563   5.500  0.00  0.00    -0.001 C 
ATOM      5  C   LIG    1       23.339 -22.389   6.737  0.00  0.00    +0.034 C 
ATOM      6  C   LIG    1       24.353 -23.379   6.226  0.00  0.00    -0.073 C 
ATOM      7  C   LIG    1       24.860 -24.379   6.963  0.00  0.00    -0.027 C 
ATOM      8  C   LIG    1       24.741 -23.070   4.810  0.00  0.00    +0.035 C 
ATOM      9  C   LIG    1       24.176 -21.687   4.564  0.00  0.00    +0.006 C 
ENDROOT
BRANCH   1  11
ATOM     10  C   LIG    1       27.270 -20.680   6.045  0.00  0.00    +0.000 C 
ATOM     11  C   LIG    1       25.948 -20.411   6.072  0.00  0.00    -0.022 C 
BRANCH  10  12
ATOM     12  C   LIG    1       28.249 -20.685   7.198  0.00  0.00    +0.141 C 
BRANCH  12  13
ATOM     13  C   LIG    1       29.630 -20.086   6.805  0.00  0.00    +0.030 C 
ATOM     14  C   LIG    1       29.521 -18.611   6.384  0.00  0.00    +0.011 C 
BRANCH  13  15
ATOM     15  C   LIG    1       30.648 -20.182   7.956  0.00  0.00    +0.095 C 
BRANCH  15  18
ATOM     16  C   LIG    1       30.576 -16.802  10.368  0.00  0.00    +0.106 C 
ATOM     17  C   LIG    1       30.575 -18.004   9.554  0.00  0.00    -0.106 C 
ATOM     18  C   LIG    1       30.596 -18.997   8.834  0.00  0.00    -0.102 C 
ENDBRANCH  15  18
ENDBRANCH  13  15
ENDBRANCH  12  13
BRANCH  12  19
ATOM     19  O   LIG    1       27.713 -19.975   8.307  0.00  0.00    -0.388 OA
ATOM     20  H   LIG    1       28.193 -20.274   9.098  0.00  0.00    +0.210 HD
ENDBRANCH  12  19
ENDBRANCH  10  12
ENDBRANCH   1  11
BRANCH   2  21
ATOM     21  O   LIG    1       23.426 -19.084   3.608  0.00  0.00    -0.391 OA
ATOM     22  H   LIG    1       23.101 -19.921   3.233  0.00  0.00    +0.210 HD
ENDBRANCH   2  21
BRANCH   7  23
ATOM     23  C   LIG    1       25.959 -25.302   6.521  0.00  0.00    +0.028 C 
BRANCH  23  24
ATOM     24  C   LIG    1       25.689 -26.775   6.859  0.00  0.00    +0.015 C 
BRANCH  24  25
ATOM     25  C   LIG    1       24.445 -27.331   6.162  0.00  0.00    +0.121 C 
BRANCH  25  26
ATOM     26  C   LIG    1       24.617 -28.786   5.843  0.00  0.00    +0.307 C 
ATOM     27  O   LIG    1       25.486 -29.204   5.088  0.00  0.00    -0.251 OA
BRANCH  26  28
ATOM     28  O   LIG    1       23.731 -29.557   6.525  0.00  0.00    -0.457 OA
BRANCH  28  29
ATOM     29  C   LIG    1       24.335 -30.570   7.334  0.00  0.00    +0.311 C 
BRANCH  29  30
ATOM     30  C   LIG    1       23.910 -30.414   8.791  0.00  0.00    +0.200 C 
ATOM     31  O   LIG    1       22.835 -30.863   9.193  0.00  0.00    -0.288 OA
BRANCH  30  32
ATOM     32  C   LIG    1       24.818 -29.716   9.740  0.00  0.00    +0.021 A 
ATOM     33  C   LIG    1       26.045 -29.189   9.324  0.00  0.00    +0.011 A 
ATOM     34  C   LIG    1       26.877 -28.521  10.214  0.00  0.00    +0.001 A 
ATOM     35  C   LIG    1       26.499 -28.395  11.544  0.00  0.00    +0.000 A 
ATOM     36  C   LIG    1       25.278 -28.916  11.976  0.00  0.00    +0.001 A 
ATOM     37  C   LIG    1       24.428 -29.565  11.075  0.00  0.00    +0.011 A 
ENDBRANCH  30  32
ENDBRANCH  29  30
ENDBRANCH  28  29
ENDBRANCH  26  28
ENDBRANCH  25  26
ENDBRANCH  24  25
ENDBRANCH  23  24
ENDBRANCH   7  23
TORSDOF 15
ENDMDL
MODEL 6
REMARK VINA RESULT:      -9.1      1.622      2.742
REMARK  Name = *****
REMARK                            x       y       z     vdW  Elec       q    Type
REMARK                         _______ _______ _______ _____ _____    ______ ____
ROOT
ATOM      1  C   LIG    1       24.194 -29.632   7.111  0.00  0.00    +0.044 C 
ATOM      2  C   LIG    1       24.507 -30.947   6.358  0.00  0.00    +0.122 C 
ATOM      3  C   LIG    1       25.550 -30.554   5.299  0.00  0.00    +0.036 C 
ATOM      4  C   LIG    1       25.284 -29.076   4.985  0.00  0.00    -0.001 C 
ATOM      5  C   LIG    1       26.419 -28.114   5.354  0.00  0.00    +0.034 C 
ATOM      6  C   LIG    1       25.710 -26.912   5.920  0.00  0.00    -0.073 C 
ATOM      7  C   LIG    1       26.328 -25.773   6.266  0.00  0.00    -0.027 C 
ATOM      8  C   LIG    1       24.242 -27.178   6.079  0.00  0.00    +0.035 C 
ATOM      9  C   LIG    1       24.114 -28.675   5.888  0.00  0.00    +0.006 C 
ENDROOT
BRANCH   1  11
ATOM     10  C   LIG    1       25.399 -30.109   9.302  0.00  0.00    +0.000 C 
ATOM     11  C   LIG    1       25.202 -29.329   8.218  0.00  0.00    -0.022 C 
BRANCH  10  12
ATOM     12  C   LIG    1       26.370 -29.902  10.443  0.00  0.00    +0.141 C 
BRANCH  12  13
ATOM     13  C   LIG    1       25.927 -28.757  11.397  0.00  0.00    +0.030 C 
ATOM     14  C   LIG    1       25.471 -29.290  12.767  0.00  0.00    +0.011 C 
BRANCH  13  15
ATOM     15  C   LIG    1       27.053 -27.733  11.631  0.00  0.00    +0.095 C 
BRANCH  15  18
ATOM     16  C   LIG    1       25.733 -24.652  14.084  0.00  0.00    +0.106 C 
ATOM     17  C   LIG    1       26.214 -25.699  13.201  0.00  0.00    -0.106 C 
ATOM     18  C   LIG    1       26.606 -26.614  12.485  0.00  0.00    -0.102 C 
ENDBRANCH  15  18
ENDBRANCH  13  15
ENDBRANCH  12  13
BRANCH  12  19
ATOM     19  O   LIG    1       26.535 -31.107  11.178  0.00  0.00    -0.388 OA
ATOM     20  H   LIG    1       25.670 -31.326  11.567  0.00  0.00    +0.210 HD
ENDBRANCH  12  19
ENDBRANCH  10  12
ENDBRANCH   1  11
BRANCH   2  21
ATOM     21  O   LIG    1       23.323 -31.432   5.720  0.00  0.00    -0.391 OA
ATOM     22  H   LIG    1       22.649 -30.737   5.812  0.00  0.00    +0.210 HD
ENDBRANCH   2  21
BRANCH   7  23
ATOM     23  C   LIG    1       25.668 -24.607   6.945  0.00  0.00    +0.028 C 
BRANCH  23  24
ATOM     24  C   LIG    1       24.728 -23.818   6.024  0.00  0.00    +0.015 C 
BRANCH  24  25
ATOM     25  C   LIG    1       23.334 -23.614   6.622  0.00  0.00    +0.121 C 
BRANCH  25  26
ATOM     26  C   LIG    1       22.957 -22.163   6.616  0.00  0.00    +0.307 C 
ATOM     27  O   LIG    1       22.530 -21.590   5.621  0.00  0.00    -0.251 OA
BRANCH  26  28
ATOM     28  O   LIG    1       23.105 -21.600   7.843  0.00  0.00    -0.457 OA
BRANCH  28  29
ATOM     29  C   LIG    1       24.000 -20.485   7.873  0.00  0.00    +0.311 C 
BRANCH  29  30
ATOM     30  C   LIG    1       25.405 -20.937   8.261  0.00  0.00    +0.200 C 
ATOM     31  O   LIG    1       25.595 -21.655   9.244  0.00  0.00    -0.288 OA
BRANCH  30  32
ATOM     32  C   LIG    1       26.560 -20.508   7.427  0.00  0.00    +0.021 A 
ATOM     33  C   LIG    1       26.435 -20.323   6.046  0.00  0.00    +0.011 A 
ATOM     34  C   LIG    1       27.514 -19.903   5.279  0.00  0.00    +0.001 A 
ATOM     35  C   LIG    1       28.745 -19.688   5.885  0.00  0.00    +0.000 A 
ATOM     36  C   LIG    1       28.886 -19.870   7.263  0.00  0.00    +0.001 A 
ATOM     37  C   LIG    1       27.794 -20.266   8.039  0.00  0.00    +0.011 A 
ENDBRANCH  30  32
ENDBRANCH  29  30
ENDBRANCH  28  29
ENDBRANCH  26  28
ENDBRANCH  25  26
ENDBRANCH  24  25
ENDBRANCH  23  24
ENDBRANCH   7  23
TORSDOF 15
ENDMDL
MODEL 7
REMARK VINA RESULT:      -9.1      2.692      8.936
REMARK  Name = *****
REMARK                            x       y       z     vdW  Elec       q    Type
REMARK                         _______ _______ _______ _____ _____    ______ ____
ROOT
ATOM      1  C   LIG    1       25.916 -19.999   4.388  0.00  0.00    +0.044 C 
ATOM      2  C   LIG    1       25.589 -18.590   3.838  0.00  0.00    +0.122 C 
ATOM      3  C   LIG    1       24.090 -18.396   4.122  0.00  0.00    +0.036 C 
ATOM      4  C   LIG    1       23.485 -19.806   4.128  0.00  0.00    -0.001 C 
ATOM      5  C   LIG    1       22.898 -20.262   5.468  0.00  0.00    +0.034 C 
ATOM      6  C   LIG    1       23.311 -21.707   5.575  0.00  0.00    -0.073 C 
ATOM      7  C   LIG    1       22.906 -22.531   6.553  0.00  0.00    -0.027 C 
ATOM      8  C   LIG    1       24.258 -22.080   4.472  0.00  0.00    +0.035 C 
ATOM      9  C   LIG    1       24.661 -20.753   3.866  0.00  0.00    +0.006 C 
ENDROOT
BRANCH   1  11
ATOM     10  C   LIG    1       27.022 -20.873   6.508  0.00  0.00    +0.000 C 
ATOM     11  C   LIG    1       26.202 -19.997   5.889  0.00  0.00    -0.022 C 
BRANCH  10  12
ATOM     12  C   LIG    1       27.373 -20.950   7.977  0.00  0.00    +0.141 C 
BRANCH  12  13
ATOM     13  C   LIG    1       28.813 -20.439   8.270  0.00  0.00    +0.030 C 
ATOM     14  C   LIG    1       29.874 -21.525   8.023  0.00  0.00    +0.011 C 
BRANCH  13  15
ATOM     15  C   LIG    1       29.174 -19.212   7.412  0.00  0.00    +0.095 C 
BRANCH  15  18
ATOM     16  C   LIG    1       32.105 -16.912   9.248  0.00  0.00    +0.106 C 
ATOM     17  C   LIG    1       31.105 -17.718   8.570  0.00  0.00    -0.106 C 
ATOM     18  C   LIG    1       30.239 -18.403   8.036  0.00  0.00    -0.102 C 
ENDBRANCH  15  18
ENDBRANCH  13  15
ENDBRANCH  12  13
BRANCH  12  19
ATOM     19  O   LIG    1       26.434 -20.216   8.751  0.00  0.00    -0.388 OA
ATOM     20  H   LIG    1       26.791 -20.154   9.653  0.00  0.00    +0.210 HD
ENDBRANCH  12  19
ENDBRANCH  10  12
ENDBRANCH   1  11
BRANCH   2  21
ATOM     21  O   LIG    1       25.827 -18.554   2.430  0.00  0.00    -0.391 OA
ATOM     22  H   LIG    1       26.596 -19.125   2.259  0.00  0.00    +0.210 HD
ENDBRANCH   2  21
BRANCH   7  23
ATOM     23  C   LIG    1       23.396 -23.935   6.754  0.00  0.00    +0.028 C 
BRANCH  23  24
ATOM     24  C   LIG    1       24.913 -24.026   6.970  0.00  0.00    +0.015 C 
BRANCH  24  25
ATOM     25  C   LIG    1       25.474 -25.424   6.702  0.00  0.00    +0.121 C 
BRANCH  25  26
ATOM     26  C   LIG    1       24.922 -25.987   5.427  0.00  0.00    +0.307 C 
ATOM     27  O   LIG    1       25.201 -25.534   4.323  0.00  0.00    -0.251 OA
BRANCH  26  28
ATOM     28  O   LIG    1       24.131 -27.067   5.655  0.00  0.00    -0.457 OA
BRANCH  28  29
ATOM     29  C   LIG    1       24.781 -28.324   5.450  0.00  0.00    +0.311 C 
BRANCH  29  30
ATOM     30  C   LIG    1       24.210 -29.381   6.392  0.00  0.00    +0.200 C 
ATOM     31  O   LIG    1       23.378 -30.201   6.002  0.00  0.00    -0.288 OA
BRANCH  30  32
ATOM     32  C   LIG    1       24.678 -29.421   7.804  0.00  0.00    +0.021 A 
ATOM     33  C   LIG    1       25.873 -28.807   8.195  0.00  0.00    +0.011 A 
ATOM     34  C   LIG    1       26.292 -28.832   9.520  0.00  0.00    +0.001 A 
ATOM     35  C   LIG    1       25.528 -29.499  10.468  0.00  0.00    +0.000 A 
ATOM     36  C   LIG    1       24.333 -30.118  10.093  0.00  0.00    +0.001 A 
ATOM     37  C   LIG    1       23.898 -30.070   8.766  0.00  0.00    +0.011 A 
ENDBRANCH  30  32
ENDBRANCH  29  30
ENDBRANCH  28  29
ENDBRANCH  26  28
ENDBRANCH  25  26
ENDBRANCH  24  25
ENDBRANCH  23  24
ENDBRANCH   7  23
TORSDOF 15
ENDMDL
MODEL 8
REMARK VINA RESULT:      -8.6      3.242      9.880
REMARK  Name = *****
REMARK                            x       y       z     vdW  Elec       q    Type
REMARK                         _______ _______ _______ _____ _____    ______ ____
ROOT
ATOM      1  C   LIG    1       25.194 -20.632   5.028  0.00  0.00    +0.044 C 
ATOM      2  C   LIG    1       24.101 -19.553   5.226  0.00  0.00    +0.122 C 
ATOM      3  C   LIG    1       23.012 -20.248   6.060  0.00  0.00    +0.036 C 
ATOM      4  C   LIG    1       23.116 -21.740   5.717  0.00  0.00    -0.001 C 
ATOM      5  C   LIG    1       23.514 -22.653   6.882  0.00  0.00    +0.034 C 
ATOM      6  C   LIG    1       24.467 -23.642   6.263  0.00  0.00    -0.073 C 
ATOM      7  C   LIG    1       24.972 -24.701   6.912  0.00  0.00    -0.027 C 
ATOM      8  C   LIG    1       24.798 -23.259   4.850  0.00  0.00    +0.035 C 
ATOM      9  C   LIG    1       24.272 -21.845   4.717  0.00  0.00    +0.006 C 
ENDROOT
BRANCH   1  11
ATOM     10  C   LIG    1       27.502 -20.723   6.097  0.00  0.00    +0.000 C 
ATOM     11  C   LIG    1       26.157 -20.723   6.210  0.00  0.00    -0.022 C 
BRANCH  10  12
ATOM     12  C   LIG    1       28.536 -20.802   7.199  0.00  0.00    +0.141 C 
BRANCH  12  13
ATOM     13  C   LIG    1       29.493 -19.577   7.202  0.00  0.00    +0.030 C 
ATOM     14  C   LIG    1       29.326 -18.708   5.943  0.00  0.00    +0.011 C 
BRANCH  13  15
ATOM     15  C   LIG    1       29.277 -18.680   8.435  0.00  0.00    +0.095 C 
BRANCH  15  18
ATOM     16  C   LIG    1       32.648 -16.490   9.478  0.00  0.00    +0.106 C 
ATOM     17  C   LIG    1       31.489 -17.266   9.076  0.00  0.00    -0.106 C 
ATOM     18  C   LIG    1       30.493 -17.916   8.776  0.00  0.00    -0.102 C 
ENDBRANCH  15  18
ENDBRANCH  13  15
ENDBRANCH  12  13
BRANCH  12  19
ATOM     19  O   LIG    1       27.902 -20.922   8.465  0.00  0.00    -0.388 OA
ATOM     20  H   LIG    1       28.066 -20.094   8.948  0.00  0.00    +0.210 HD
ENDBRANCH  12  19
ENDBRANCH  10  12
ENDBRANCH   1  11
BRANCH   2  21
ATOM     21  O   LIG    1       23.571 -19.164   3.958  0.00  0.00    -0.391 OA
ATOM     22  H   LIG    1       22.679 -19.546   3.896  0.00  0.00    +0.210 HD
ENDBRANCH   2  21
BRANCH   7  23
ATOM     23  C   LIG    1       26.015 -25.631   6.362  0.00  0.00    +0.028 C 
BRANCH  23  24
ATOM     24  C   LIG    1       25.940 -27.047   6.950  0.00  0.00    +0.015 C 
BRANCH  24  25
ATOM     25  C   LIG    1       25.503 -28.098   5.927  0.00  0.00    +0.121 C 
BRANCH  25  26
ATOM     26  C   LIG    1       24.640 -29.142   6.569  0.00  0.00    +0.307 C 
ATOM     27  O   LIG    1       23.569 -29.504   6.097  0.00  0.00    -0.251 OA
BRANCH  26  28
ATOM     28  O   LIG    1       25.216 -29.651   7.689  0.00  0.00    -0.457 OA
BRANCH  28  29
ATOM     29  C   LIG    1       24.983 -31.048   7.886  0.00  0.00    +0.311 C 
BRANCH  29  30
ATOM     30  C   LIG    1       26.298 -31.821   7.837  0.00  0.00    +0.200 C 
ATOM     31  O   LIG    1       27.013 -31.927   8.835  0.00  0.00    -0.288 OA
BRANCH  30  32
ATOM     32  C   LIG    1       26.713 -32.465   6.562  0.00  0.00    +0.021 A 
ATOM     33  C   LIG    1       27.955 -33.098   6.433  0.00  0.00    +0.011 A 
ATOM     34  C   LIG    1       28.325 -33.713   5.244  0.00  0.00    +0.001 A 
ATOM     35  C   LIG    1       27.462 -33.680   4.156  0.00  0.00    +0.000 A 
ATOM     36  C   LIG    1       26.220 -33.052   4.269  0.00  0.00    +0.001 A 
ATOM     37  C   LIG    1       25.835 -32.456   5.473  0.00  0.00    +0.011 A 
ENDBRANCH  30  32
ENDBRANCH  29  30
ENDBRANCH  28  29
ENDBRANCH  26  28
ENDBRANCH  25  26
ENDBRANCH  24  25
ENDBRANCH  23  24
ENDBRANCH   7  23
TORSDOF 15
ENDMDL
MODEL 9
REMARK VINA RESULT:      -8.5      1.369      9.685
REMARK  Name = *****
REMARK                            x       y       z     vdW  Elec       q    Type
REMARK                         _______ _______ _______ _____ _____    ______ ____
ROOT
ATOM      1  C   LIG    1       24.593 -21.678   8.295  0.00  0.00    +0.044 C 
ATOM      2  C   LIG    1       25.493 -20.419   8.304  0.00  0.00    +0.122 C 
ATOM      3  C   LIG    1       26.487 -20.640   7.152  0.00  0.00    +0.036 C 
ATOM      4  C   LIG    1       26.627 -22.162   7.012  0.00  0.00    -0.001 C 
ATOM      5  C   LIG    1       26.135 -22.745   5.682  0.00  0.00    +0.034 C 
ATOM      6  C   LIG    1       25.437 -24.020   6.078  0.00  0.00    -0.073 C 
ATOM      7  C   LIG    1       24.952 -24.911   5.201  0.00  0.00    -0.027 C 
ATOM      8  C   LIG    1       25.326 -24.133   7.570  0.00  0.00    +0.035 C 
ATOM      9  C   LIG    1       25.694 -22.753   8.074  0.00  0.00    +0.006 C 
ENDROOT
BRANCH   1  11
ATOM     10  C   LIG    1       23.321 -20.595   6.375  0.00  0.00    +0.000 C 
ATOM     11  C   LIG    1       23.447 -21.580   7.289  0.00  0.00    -0.022 C 
BRANCH  10  12
ATOM     12  C   LIG    1       22.235 -20.413   5.338  0.00  0.00    +0.141 C 
BRANCH  12  13
ATOM     13  C   LIG    1       22.736 -19.635   4.087  0.00  0.00    +0.030 C 
ATOM     14  C   LIG    1       22.616 -18.112   4.267  0.00  0.00    +0.011 C 
BRANCH  13  15
ATOM     15  C   LIG    1       24.202 -19.965   3.753  0.00  0.00    +0.095 C 
BRANCH  15  18
ATOM     16  C   LIG    1       26.410 -16.476   3.304  0.00  0.00    +0.106 C 
ATOM     17  C   LIG    1       25.660 -17.713   3.427  0.00  0.00    -0.106 C 
ATOM     18  C   LIG    1       25.009 -18.743   3.569  0.00  0.00    -0.102 C 
ENDBRANCH  15  18
ENDBRANCH  13  15
ENDBRANCH  12  13
BRANCH  12  19
ATOM     19  O   LIG    1       21.709 -21.673   4.944  0.00  0.00    -0.388 OA
ATOM     20  H   LIG    1       21.819 -22.278   5.698  0.00  0.00    +0.210 HD
ENDBRANCH  12  19
ENDBRANCH  10  12
ENDBRANCH   1  11
BRANCH   2  21
ATOM     21  O   LIG    1       26.196 -20.336   9.545  0.00  0.00    -0.391 OA
ATOM     22  H   LIG    1       25.719 -19.693  10.097  0.00  0.00    +0.210 HD
ENDBRANCH   2  21
BRANCH   7  23
ATOM     23  C   LIG    1       24.147 -26.126   5.563  0.00  0.00    +0.028 C 
BRANCH  23  24
ATOM     24  C   LIG    1       24.938 -27.436   5.451  0.00  0.00    +0.015 C 
BRANCH  24  25
ATOM     25  C   LIG    1       25.283 -28.046   6.811  0.00  0.00    +0.121 C 
BRANCH  25  26
ATOM     26  C   LIG    1       24.651 -29.396   6.968  0.00  0.00    +0.307 C 
ATOM     27  O   LIG    1       23.615 -29.717   6.399  0.00  0.00    -0.251 OA
BRANCH  26  28
ATOM     28  O   LIG    1       25.392 -30.207   7.767  0.00  0.00    -0.457 OA
BRANCH  28  29
ATOM     29  C   LIG    1       25.069 -30.115   9.157  0.00  0.00    +0.311 C 
BRANCH  29  30
ATOM     30  C   LIG    1       26.262 -29.587   9.949  0.00  0.00    +0.200 C 
ATOM     31  O   LIG    1       27.417 -29.882   9.635  0.00  0.00    -0.288 OA
BRANCH  30  32
ATOM     32  C   LIG    1       26.021 -28.693  11.113  0.00  0.00    +0.021 A 
ATOM     33  C   LIG    1       24.872 -28.815  11.902  0.00  0.00    +0.011 A 
ATOM     34  C   LIG    1       24.665 -27.988  12.999  0.00  0.00    +0.001 A 
ATOM     35  C   LIG    1       25.599 -27.006  13.304  0.00  0.00    +0.000 A 
ATOM     36  C   LIG    1       26.750 -26.870  12.525  0.00  0.00    +0.001 A 
ATOM     37  C   LIG    1       26.972 -27.720  11.437  0.00  0.00    +0.011 A 
ENDBRANCH  30  32
ENDBRANCH  29  30
ENDBRANCH  28  29
ENDBRANCH  26  28
ENDBRANCH  25  26
ENDBRANCH  24  25
ENDBRANCH  23  24
ENDBRANCH   7  23
TORSDOF 15
ENDMDL
