MODEL 1
REMARK VINA RESULT:       9.1      0.000      0.000
REMARK  Name = *****
REMARK                            x       y       z     vdW  Elec       q    Type
REMARK                         _______ _______ _______ _____ _____    ______ ____
ROOT
ATOM      1  C   LIG    1       21.225 -17.095   3.311  0.00  0.00    +0.012 C 
ATOM      2  C   LIG    1       22.753 -17.141   3.466  0.00  0.00    +0.013 C 
ATOM      3  C   LIG    1       23.335 -18.447   3.980  0.00  0.00    -0.053 C 
ATOM      4  C   LIG    1       24.872 -18.528   3.921  0.00  0.00    +0.018 C 
ATOM      5  C   LIG    1       25.274 -18.653   2.432  0.00  0.00    +0.021 C 
ATOM      6  C   LIG    1       25.371 -19.824   4.570  0.00  0.00    -0.012 C 
ATOM      7  C   LIG    1       24.600 -20.798   5.068  0.00  0.00    +0.047 C 
ATOM      8  C   LIG    1       23.134 -20.684   5.038  0.00  0.00    +0.179 C 
ATOM      9  O   LIG    1       22.414 -21.571   5.470  0.00  0.00    -0.288 OA
ATOM     10  C   LIG    1       25.508 -17.287   4.678  0.00  0.00    +0.072 C 
ATOM     11  C   LIG    1       24.719 -15.955   4.661  0.00  0.00    +0.005 C 
ATOM     12  C   LIG    1       25.365 -14.795   3.888  0.00  0.00    +0.002 C 
ATOM     13  C   LIG    1       26.790 -14.443   4.384  0.00  0.00    +0.013 C 
ATOM     14  C   LIG    1       26.769 -13.813   5.789  0.00  0.00    +0.015 C 
ATOM     15  C   LIG    1       27.657 -15.718   4.400  0.00  0.00    +0.084 C 
ATOM     16  C   LIG    1       27.188 -13.391   3.300  0.00  0.00    +0.132 C 
ATOM     17  C   LIG    1       26.739 -14.045   1.988  0.00  0.00    +0.043 C 
ATOM     18  C   LIG    1       25.541 -14.940   2.369  0.00  0.00    +0.007 C 
ATOM     19  C   LIG    1       27.001 -17.089   4.379  0.00  0.00    +0.138 C 
ATOM     20  O   LIG    1       27.749 -18.060   4.214  0.00  0.00    -0.297 OA
ATOM     21  C   LIG    1       22.568 -19.437   4.479  0.00  0.00    +0.051 C 
ATOM     22  C   LIG    1       23.200 -16.045   4.425  0.00  0.00    +0.012 C 
ENDROOT
BRANCH  16  23
ATOM     23  O   LIG    1       26.328 -12.229   3.475  0.00  0.00    -0.380 OA
ATOM     24  H   LIG    1       26.407 -11.700   2.653  0.00  0.00    +0.211 HD
ENDBRANCH  16  23
BRANCH  16  25
ATOM     25  C   LIG    1       28.592 -12.756   3.212  0.00  0.00    +0.190 C 
ATOM     26  O   LIG    1       29.461 -13.313   2.521  0.00  0.00    -0.292 OA
BRANCH  25  27
ATOM     27  C   LIG    1       28.968 -11.530   4.014  0.00  0.00    +0.233 C 
BRANCH  27  28
ATOM     28  O   LIG    1       29.129 -11.839   5.383  0.00  0.00    -0.387 OA
ATOM     29  H   LIG    1       29.948 -12.367   5.457  0.00  0.00    +0.210 HD
ENDBRANCH  27  28
ENDBRANCH  25  27
ENDBRANCH  16  25
TORSDOF 4
ENDMDL
MODEL 2
REMARK VINA RESULT:      11.6      1.548      6.974
REMARK  Name = *****
REMARK                            x       y       z     vdW  Elec       q    Type
REMARK                         _______ _______ _______ _____ _____    ______ ____
ROOT
ATOM      1  C   LIG    1       23.449 -12.073   3.923  0.00  0.00    +0.012 C 
ATOM      2  C   LIG    1       24.113 -13.451   4.066  0.00  0.00    +0.013 C 
ATOM      3  C   LIG    1       25.612 -13.500   3.826  0.00  0.00    -0.053 C 
ATOM      4  C   LIG    1       26.273 -14.845   4.185  0.00  0.00    +0.018 C 
ATOM      5  C   LIG    1       26.270 -14.968   5.728  0.00  0.00    +0.021 C 
ATOM      6  C   LIG    1       27.756 -14.840   3.796  0.00  0.00    -0.012 C 
ATOM      7  C   LIG    1       28.426 -13.805   3.276  0.00  0.00    +0.047 C 
ATOM      8  C   LIG    1       27.747 -12.527   3.015  0.00  0.00    +0.179 C 
ATOM      9  O   LIG    1       28.347 -11.565   2.559  0.00  0.00    -0.288 OA
ATOM     10  C   LIG    1       25.538 -16.027   3.425  0.00  0.00    +0.072 C 
ATOM     11  C   LIG    1       24.025 -15.866   3.137  0.00  0.00    +0.005 C 
ATOM     12  C   LIG    1       23.088 -16.831   3.880  0.00  0.00    +0.002 C 
ATOM     13  C   LIG    1       23.415 -18.323   3.626  0.00  0.00    +0.013 C 
ATOM     14  C   LIG    1       23.095 -18.743   2.179  0.00  0.00    +0.015 C 
ATOM     15  C   LIG    1       24.907 -18.580   3.922  0.00  0.00    +0.084 C 
ATOM     16  C   LIG    1       22.423 -18.981   4.637  0.00  0.00    +0.132 C 
ATOM     17  C   LIG    1       22.599 -18.140   5.907  0.00  0.00    +0.043 C 
ATOM     18  C   LIG    1       23.011 -16.738   5.411  0.00  0.00    +0.007 C 
ATOM     19  C   LIG    1       25.886 -17.418   3.976  0.00  0.00    +0.138 C 
ATOM     20  O   LIG    1       27.023 -17.669   4.391  0.00  0.00    -0.297 OA
ATOM     21  C   LIG    1       26.300 -12.462   3.308  0.00  0.00    +0.051 C 
ATOM     22  C   LIG    1       23.473 -14.429   3.090  0.00  0.00    +0.012 C 
ENDROOT
BRANCH  16  23
ATOM     23  O   LIG    1       21.070 -18.709   4.169  0.00  0.00    -0.380 OA
ATOM     24  H   LIG    1       20.499 -19.408   4.552  0.00  0.00    +0.211 HD
ENDBRANCH  16  23
BRANCH  16  25
ATOM     25  C   LIG    1       22.379 -20.498   4.916  0.00  0.00    +0.190 C 
ATOM     26  O   LIG    1       21.367 -21.140   4.589  0.00  0.00    -0.292 OA
BRANCH  25  27
ATOM     27  C   LIG    1       23.490 -21.208   5.658  0.00  0.00    +0.233 C 
BRANCH  27  28
ATOM     28  O   LIG    1       23.159 -21.403   7.018  0.00  0.00    -0.387 OA
ATOM     29  H   LIG    1       23.994 -21.598   7.485  0.00  0.00    +0.210 HD
ENDBRANCH  27  28
ENDBRANCH  25  27
ENDBRANCH  16  25
TORSDOF 4
ENDMDL
