MODEL 1
REMARK VINA RESULT:       2.9      0.000      0.000
REMARK  Name = *****
REMARK                            x       y       z     vdW  Elec       q    Type
REMARK                         _______ _______ _______ _____ _____    ______ ____
ROOT
ATOM      1  C   LIG    1       26.505 -19.016   4.522  0.00  0.00    +0.062 A 
ATOM      2  C   LIG    1       27.155 -17.773   4.361  0.00  0.00    +0.051 A 
ATOM      3  I   LIG    1       29.261 -17.749   4.828  0.00  0.00    -0.041 I 
ATOM      4  C   LIG    1       26.438 -16.647   3.919  0.00  0.00    +0.089 A 
ATOM      5  C   LIG    1       25.055 -16.768   3.637  0.00  0.00    +0.051 A 
ATOM      6  I   LIG    1       23.777 -15.007   3.499  0.00  0.00    -0.041 I 
ATOM      7  C   LIG    1       24.424 -18.054   3.658  0.00  0.00    +0.062 A 
ATOM      8  C   LIG    1       25.186 -19.163   4.059  0.00  0.00    +0.058 A 
ATOM      9  I   LIG    1       24.478 -21.145   3.552  0.00  0.00    -0.040 I 
ENDROOT
BRANCH   1  12
ATOM     10  C   LIG    1       27.614 -21.570   7.043  0.00  0.00    +0.109 C 
ATOM     11  C   LIG    1       26.751 -20.492   6.440  0.00  0.00    +0.214 C 
ATOM     12  N   LIG    1       27.176 -20.090   5.175  0.00  0.00    -0.284 N 
ATOM     13  H   LIG    1       28.183 -20.127   5.058  0.00  0.00    +0.155 HD
ATOM     14  O   LIG    1       25.822 -19.984   7.058  0.00  0.00    -0.276 OA
ENDBRANCH   1  12
BRANCH   7  15
ATOM     15  N   LIG    1       23.044 -18.262   3.375  0.00  0.00    -0.284 N 
ATOM     16  H   LIG    1       22.658 -17.669   2.646  0.00  0.00    +0.155 HD
ATOM     17  C   LIG    1       22.135 -18.591   4.372  0.00  0.00    +0.214 C 
ATOM     18  O   LIG    1       22.406 -18.688   5.559  0.00  0.00    -0.276 OA
ATOM     19  C   LIG    1       20.741 -18.829   3.846  0.00  0.00    +0.109 C 
ENDBRANCH   7  15
BRANCH   4  20
ATOM     20  C   LIG    1       27.134 -15.338   3.691  0.00  0.00    +0.339 C 
ATOM     21  O   LIG    1       27.351 -14.939   2.540  0.00  0.00    -0.245 OA
BRANCH  20  22
ATOM     22  O   LIG    1       27.477 -14.613   4.770  0.00  0.00    -0.477 OA
ATOM     23  H   LIG    1       27.676 -15.133   5.534  0.00  0.00    +0.295 HD
ENDBRANCH  20  22
ENDBRANCH   4  20
TORSDOF 4
ENDMDL
MODEL 2
REMARK VINA RESULT:       3.6      1.440      4.415
REMARK  Name = *****
REMARK                            x       y       z     vdW  Elec       q    Type
REMARK                         _______ _______ _______ _____ _____    ______ ____
ROOT
ATOM      1  C   LIG    1       26.707 -17.095   3.899  0.00  0.00    +0.062 A 
ATOM      2  C   LIG    1       27.321 -18.161   4.592  0.00  0.00    +0.051 A 
ATOM      3  I   LIG    1       29.365 -17.830   5.199  0.00  0.00    -0.041 I 
ATOM      4  C   LIG    1       26.608 -19.345   4.852  0.00  0.00    +0.089 A 
ATOM      5  C   LIG    1       25.268 -19.461   4.411  0.00  0.00    +0.051 A 
ATOM      6  I   LIG    1       24.296 -21.409   4.269  0.00  0.00    -0.041 I 
ATOM      7  C   LIG    1       24.594 -18.334   3.839  0.00  0.00    +0.062 A 
ATOM      8  C   LIG    1       25.327 -17.154   3.638  0.00  0.00    +0.058 A 
ATOM      9  I   LIG    1       24.246 -15.300   3.344  0.00  0.00    -0.040 I 
ENDROOT
BRANCH   1  12
ATOM     10  C   LIG    1       28.302 -13.714   3.538  0.00  0.00    +0.109 C 
ATOM     11  C   LIG    1       27.510 -14.817   4.189  0.00  0.00    +0.214 C 
ATOM     12  N   LIG    1       27.492 -15.995   3.446  0.00  0.00    -0.284 N 
ATOM     13  H   LIG    1       27.506 -15.839   2.443  0.00  0.00    +0.155 HD
ATOM     14  O   LIG    1       26.889 -14.640   5.232  0.00  0.00    -0.276 OA
ENDBRANCH   1  12
BRANCH   7  15
ATOM     15  N   LIG    1       23.246 -18.366   3.383  0.00  0.00    -0.284 N 
ATOM     16  H   LIG    1       23.044 -17.760   2.592  0.00  0.00    +0.155 HD
ATOM     17  C   LIG    1       22.181 -18.519   4.261  0.00  0.00    +0.214 C 
ATOM     18  O   LIG    1       22.283 -18.597   5.475  0.00  0.00    -0.276 OA
ATOM     19  C   LIG    1       20.845 -18.590   3.563  0.00  0.00    +0.109 C 
ENDBRANCH   7  15
BRANCH   4  20
ATOM     20  C   LIG    1       27.236 -20.458   5.637  0.00  0.00    +0.339 C 
ATOM     21  O   LIG    1       26.586 -21.051   6.508  0.00  0.00    -0.245 OA
BRANCH  20  22
ATOM     22  O   LIG    1       28.500 -20.802   5.339  0.00  0.00    -0.477 OA
ATOM     23  H   LIG    1       28.663 -20.898   4.413  0.00  0.00    +0.295 HD
ENDBRANCH  20  22
ENDBRANCH   4  20
TORSDOF 4
ENDMDL
MODEL 3
REMARK VINA RESULT:       5.7      2.428      2.761
REMARK  Name = *****
REMARK                            x       y       z     vdW  Elec       q    Type
REMARK                         _______ _______ _______ _____ _____    ______ ____
ROOT
ATOM      1  C   LIG    1       26.152 -17.186   3.759  0.00  0.00    +0.062 A 
ATOM      2  C   LIG    1       25.758 -15.832   3.830  0.00  0.00    +0.051 A 
ATOM      3  I   LIG    1       27.347 -14.383   3.661  0.00  0.00    -0.041 I 
ATOM      4  C   LIG    1       24.403 -15.493   3.998  0.00  0.00    +0.089 A 
ATOM      5  C   LIG    1       23.435 -16.522   4.098  0.00  0.00    +0.051 A 
ATOM      6  I   LIG    1       21.449 -16.122   4.905  0.00  0.00    -0.041 I 
ATOM      7  C   LIG    1       23.807 -17.888   3.882  0.00  0.00    +0.062 A 
ATOM      8  C   LIG    1       25.164 -18.182   3.670  0.00  0.00    +0.058 A 
ATOM      9  I   LIG    1       25.684 -20.084   2.774  0.00  0.00    -0.040 I 
ENDROOT
BRANCH   1  12
ATOM     10  C   LIG    1       29.475 -18.608   4.780  0.00  0.00    +0.109 C 
ATOM     11  C   LIG    1       27.981 -18.417   4.788  0.00  0.00    +0.214 C 
ATOM     12  N   LIG    1       27.534 -17.529   3.812  0.00  0.00    -0.284 N 
ATOM     13  H   LIG    1       28.189 -16.778   3.621  0.00  0.00    +0.155 HD
ATOM     14  O   LIG    1       27.264 -18.946   5.631  0.00  0.00    -0.276 OA
ENDBRANCH   1  12
BRANCH   7  15
ATOM     15  N   LIG    1       22.894 -18.978   3.952  0.00  0.00    -0.284 N 
ATOM     16  H   LIG    1       21.984 -18.806   3.532  0.00  0.00    +0.155 HD
ATOM     17  C   LIG    1       22.856 -19.830   5.047  0.00  0.00    +0.214 C 
ATOM     18  O   LIG    1       23.546 -19.713   6.047  0.00  0.00    -0.276 OA
ATOM     19  C   LIG    1       21.860 -20.954   4.888  0.00  0.00    +0.109 C 
ENDBRANCH   7  15
BRANCH   4  20
ATOM     20  C   LIG    1       23.971 -14.058   4.017  0.00  0.00    +0.339 C 
ATOM     21  O   LIG    1       24.070 -13.390   5.055  0.00  0.00    -0.245 OA
BRANCH  20  22
ATOM     22  O   LIG    1       23.510 -13.524   2.872  0.00  0.00    -0.477 OA
ATOM     23  H   LIG    1       22.577 -13.376   2.867  0.00  0.00    +0.295 HD
ENDBRANCH  20  22
ENDBRANCH   4  20
TORSDOF 4
ENDMDL
