MODEL 1
REMARK VINA RESULT:      -4.4      0.000      0.000
REMARK  Name = *****
REMARK                            x       y       z     vdW  Elec       q    Type
REMARK                         _______ _______ _______ _____ _____    ______ ____
ROOT
ATOM      1  C   LIG    1       25.098 -14.531   3.707  0.00  0.00    +0.262 C 
ATOM      2  N   LIG    1       25.396 -15.833   3.361  0.00  0.00    -0.281 N 
ATOM      3  H   LIG    1       26.217 -15.957   2.772  0.00  0.00    +0.155 HD
ATOM      4  O   LIG    1       24.128 -14.174   4.369  0.00  0.00    -0.269 OA
ENDROOT
BRANCH   2   5
ATOM      5  C   LIG    1       24.664 -16.996   3.669  0.00  0.00    +0.034 A 
ATOM      6  C   LIG    1       23.343 -16.835   4.100  0.00  0.00    +0.024 A 
ATOM      7  C   LIG    1       22.569 -17.945   4.461  0.00  0.00    +0.014 A 
ATOM      8  C   LIG    1       23.105 -19.239   4.393  0.00  0.00    +0.055 A 
ATOM      9  C   LIG    1       24.420 -19.396   3.942  0.00  0.00    +0.014 A 
ATOM     10  C   LIG    1       25.189 -18.286   3.581  0.00  0.00    +0.024 A 
BRANCH   8  11
ATOM     11  C   LIG    1       22.276 -20.430   4.803  0.00  0.00    +0.417 C 
ATOM     12  F   LIG    1       22.375 -20.700   6.134  0.00  0.00    -0.166 F 
ATOM     13  F   LIG    1       22.655 -21.571   4.162  0.00  0.00    -0.166 F 
ATOM     14  F   LIG    1       20.946 -20.285   4.548  0.00  0.00    -0.166 F 
ENDBRANCH   8  11
ENDBRANCH   2   5
BRANCH   1  17
ATOM     15  C   LIG    1       28.389 -12.492   3.000  0.00  0.00    +0.087 C 
ATOM     16  C   LIG    1       27.420 -13.544   3.479  0.00  0.00    +0.113 C 
ATOM     17  C   LIG    1       26.085 -13.489   3.249  0.00  0.00    +0.150 C 
BRANCH  17  18
ATOM     18  C   LIG    1       25.530 -12.419   2.488  0.00  0.00    +0.108 C 
ATOM     19  N   LIG    1       25.017 -11.547   1.911  0.00  0.00    -0.191 NA
ENDBRANCH  17  18
BRANCH  16  20
ATOM     20  O   LIG    1       27.994 -14.590   4.192  0.00  0.00    -0.510 OA
ATOM     21  H   LIG    1       28.769 -14.924   3.698  0.00  0.00    +0.292 HD
ENDBRANCH  16  20
ENDBRANCH   1  17
TORSDOF 5
ENDMDL
MODEL 2
REMARK VINA RESULT:      -4.1      1.344      2.169
REMARK  Name = *****
REMARK                            x       y       z     vdW  Elec       q    Type
REMARK                         _______ _______ _______ _____ _____    ______ ____
ROOT
ATOM      1  C   LIG    1       26.258 -15.221   3.389  0.00  0.00    +0.262 C 
ATOM      2  N   LIG    1       24.917 -15.534   3.487  0.00  0.00    -0.281 N 
ATOM      3  H   LIG    1       24.273 -14.752   3.383  0.00  0.00    +0.155 HD
ATOM      4  O   LIG    1       27.186 -16.012   3.531  0.00  0.00    -0.269 OA
ENDROOT
BRANCH   2   5
ATOM      5  C   LIG    1       24.343 -16.786   3.778  0.00  0.00    +0.034 A 
ATOM      6  C   LIG    1       23.017 -16.803   4.223  0.00  0.00    +0.024 A 
ATOM      7  C   LIG    1       22.395 -18.010   4.569  0.00  0.00    +0.014 A 
ATOM      8  C   LIG    1       23.091 -19.223   4.471  0.00  0.00    +0.055 A 
ATOM      9  C   LIG    1       24.410 -19.203   4.006  0.00  0.00    +0.014 A 
ATOM     10  C   LIG    1       25.027 -17.997   3.661  0.00  0.00    +0.024 A 
BRANCH   8  11
ATOM     11  C   LIG    1       22.425 -20.518   4.864  0.00  0.00    +0.417 C 
ATOM     12  F   LIG    1       22.856 -21.572   4.118  0.00  0.00    -0.166 F 
ATOM     13  F   LIG    1       21.073 -20.474   4.704  0.00  0.00    -0.166 F 
ATOM     14  F   LIG    1       22.634 -20.868   6.164  0.00  0.00    -0.166 F 
ENDBRANCH   8  11
ENDBRANCH   2   5
BRANCH   1  17
ATOM     15  C   LIG    1       26.030 -11.490   2.161  0.00  0.00    +0.087 C 
ATOM     16  C   LIG    1       25.691 -12.923   2.487  0.00  0.00    +0.113 C 
ATOM     17  C   LIG    1       26.574 -13.789   3.044  0.00  0.00    +0.150 C 
BRANCH  17  18
ATOM     18  C   LIG    1       27.887 -13.356   3.388  0.00  0.00    +0.108 C 
ATOM     19  N   LIG    1       28.933 -12.934   3.678  0.00  0.00    -0.191 NA
ENDBRANCH  17  18
BRANCH  16  20
ATOM     20  O   LIG    1       24.395 -13.307   2.168  0.00  0.00    -0.510 OA
ATOM     21  H   LIG    1       24.430 -14.105   1.604  0.00  0.00    +0.292 HD
ENDBRANCH  16  20
ENDBRANCH   1  17
TORSDOF 5
ENDMDL
MODEL 3
REMARK VINA RESULT:      -3.7      4.881      7.349
REMARK  Name = *****
REMARK                            x       y       z     vdW  Elec       q    Type
REMARK                         _______ _______ _______ _____ _____    ______ ____
ROOT
ATOM      1  C   LIG    1       24.284 -18.306   3.893  0.00  0.00    +0.262 C 
ATOM      2  N   LIG    1       24.070 -16.951   4.049  0.00  0.00    -0.281 N 
ATOM      3  H   LIG    1       23.108 -16.674   4.234  0.00  0.00    +0.155 HD
ATOM      4  O   LIG    1       25.360 -18.829   3.620  0.00  0.00    -0.269 OA
ENDROOT
BRANCH   2   5
ATOM      5  C   LIG    1       25.008 -15.909   3.916  0.00  0.00    +0.034 A 
ATOM      6  C   LIG    1       26.322 -16.258   3.585  0.00  0.00    +0.024 A 
ATOM      7  C   LIG    1       27.315 -15.276   3.476  0.00  0.00    +0.014 A 
ATOM      8  C   LIG    1       27.009 -13.925   3.694  0.00  0.00    +0.055 A 
ATOM      9  C   LIG    1       25.689 -13.580   4.005  0.00  0.00    +0.014 A 
ATOM     10  C   LIG    1       24.700 -14.562   4.112  0.00  0.00    +0.024 A 
BRANCH   8  11
ATOM     11  C   LIG    1       28.086 -12.874   3.596  0.00  0.00    +0.417 C 
ATOM     12  F   LIG    1       29.270 -13.383   3.158  0.00  0.00    -0.166 F 
ATOM     13  F   LIG    1       28.351 -12.291   4.799  0.00  0.00    -0.166 F 
ATOM     14  F   LIG    1       27.780 -11.854   2.748  0.00  0.00    -0.166 F 
ENDBRANCH   8  11
ENDBRANCH   2   5
BRANCH   1  17
ATOM     15  C   LIG    1       21.927 -21.315   4.823  0.00  0.00    +0.087 C 
ATOM     16  C   LIG    1       23.145 -20.455   4.597  0.00  0.00    +0.113 C 
ATOM     17  C   LIG    1       23.085 -19.189   4.117  0.00  0.00    +0.150 C 
BRANCH  17  18
ATOM     18  C   LIG    1       21.825 -18.586   3.833  0.00  0.00    +0.108 C 
ATOM     19  N   LIG    1       20.762 -18.153   3.631  0.00  0.00    -0.191 NA
ENDBRANCH  17  18
BRANCH  16  20
ATOM     20  O   LIG    1       24.356 -21.059   4.911  0.00  0.00    -0.510 OA
ATOM     21  H   LIG    1       25.051 -20.704   4.322  0.00  0.00    +0.292 HD
ENDBRANCH  16  20
ENDBRANCH   1  17
TORSDOF 5
ENDMDL
MODEL 4
REMARK VINA RESULT:      -2.8      4.826      7.508
REMARK  Name = *****
REMARK                            x       y       z     vdW  Elec       q    Type
REMARK                         _______ _______ _______ _____ _____    ______ ____
ROOT
ATOM      1  C   LIG    1       24.747 -18.254   3.966  0.00  0.00    +0.262 C 
ATOM      2  N   LIG    1       24.450 -16.929   3.718  0.00  0.00    -0.281 N 
ATOM      3  H   LIG    1       23.491 -16.737   3.437  0.00  0.00    +0.155 HD
ATOM      4  O   LIG    1       25.854 -18.690   4.270  0.00  0.00    -0.269 OA
ENDROOT
BRANCH   2   5
ATOM      5  C   LIG    1       25.328 -15.829   3.744  0.00  0.00    +0.034 A 
ATOM      6  C   LIG    1       26.663 -16.056   3.388  0.00  0.00    +0.024 A 
ATOM      7  C   LIG    1       27.599 -15.015   3.430  0.00  0.00    +0.014 A 
ATOM      8  C   LIG    1       27.216 -13.726   3.827  0.00  0.00    +0.055 A 
ATOM      9  C   LIG    1       25.876 -13.500   4.163  0.00  0.00    +0.014 A 
ATOM     10  C   LIG    1       24.944 -14.541   4.118  0.00  0.00    +0.024 A 
BRANCH   8  11
ATOM     11  C   LIG    1       28.232 -12.614   3.891  0.00  0.00    +0.417 C 
ATOM     12  F   LIG    1       29.475 -13.023   3.514  0.00  0.00    -0.166 F 
ATOM     13  F   LIG    1       28.371 -12.111   5.149  0.00  0.00    -0.166 F 
ATOM     14  F   LIG    1       27.930 -11.551   3.096  0.00  0.00    -0.166 F 
ENDBRANCH   8  11
ENDBRANCH   2   5
BRANCH   1  17
ATOM     15  C   LIG    1       21.172 -19.887   4.141  0.00  0.00    +0.087 C 
ATOM     16  C   LIG    1       22.317 -18.912   4.246  0.00  0.00    +0.113 C 
ATOM     17  C   LIG    1       23.589 -19.212   3.882  0.00  0.00    +0.150 C 
BRANCH  17  18
ATOM     18  C   LIG    1       23.897 -20.491   3.333  0.00  0.00    +0.108 C 
ATOM     19  N   LIG    1       24.145 -21.564   2.954  0.00  0.00    -0.191 NA
ENDBRANCH  17  18
BRANCH  16  20
ATOM     20  O   LIG    1       21.981 -17.664   4.756  0.00  0.00    -0.510 OA
ATOM     21  H   LIG    1       21.133 -17.736   5.238  0.00  0.00    +0.292 HD
ENDBRANCH  16  20
ENDBRANCH   1  17
TORSDOF 5
ENDMDL
MODEL 5
REMARK VINA RESULT:      -2.0      4.741      7.416
REMARK  Name = *****
REMARK                            x       y       z     vdW  Elec       q    Type
REMARK                         _______ _______ _______ _____ _____    ______ ____
ROOT
ATOM      1  C   LIG    1       24.035 -18.834   3.998  0.00  0.00    +0.262 C 
ATOM      2  N   LIG    1       23.661 -17.606   4.506  0.00  0.00    -0.281 N 
ATOM      3  H   LIG    1       22.962 -17.628   5.245  0.00  0.00    +0.155 HD
ATOM      4  O   LIG    1       24.827 -19.013   3.077  0.00  0.00    -0.269 OA
ENDROOT
BRANCH   2   5
ATOM      5  C   LIG    1       24.082 -16.333   4.078  0.00  0.00    +0.034 A 
ATOM      6  C   LIG    1       23.192 -15.266   4.244  0.00  0.00    +0.024 A 
ATOM      7  C   LIG    1       23.529 -13.979   3.805  0.00  0.00    +0.014 A 
ATOM      8  C   LIG    1       24.768 -13.737   3.195  0.00  0.00    +0.055 A 
ATOM      9  C   LIG    1       25.663 -14.802   3.050  0.00  0.00    +0.014 A 
ATOM     10  C   LIG    1       25.323 -16.085   3.490  0.00  0.00    +0.024 A 
BRANCH   8  11
ATOM     11  C   LIG    1       25.119 -12.354   2.704  0.00  0.00    +0.417 C 
ATOM     12  F   LIG    1       26.328 -12.315   2.081  0.00  0.00    -0.166 F 
ATOM     13  F   LIG    1       25.192 -11.448   3.719  0.00  0.00    -0.166 F 
ATOM     14  F   LIG    1       24.222 -11.846   1.814  0.00  0.00    -0.166 F 
ENDBRANCH   8  11
ENDBRANCH   2   5
BRANCH   1  17
ATOM     15  C   LIG    1       21.534 -21.571   5.316  0.00  0.00    +0.087 C 
ATOM     16  C   LIG    1       22.113 -20.356   4.636  0.00  0.00    +0.113 C 
ATOM     17  C   LIG    1       23.430 -20.035   4.677  0.00  0.00    +0.150 C 
BRANCH  17  18
ATOM     18  C   LIG    1       24.356 -20.881   5.354  0.00  0.00    +0.108 C 
ATOM     19  N   LIG    1       25.165 -21.520   5.897  0.00  0.00    -0.191 NA
ENDBRANCH  17  18
BRANCH  16  20
ATOM     20  O   LIG    1       21.191 -19.568   3.959  0.00  0.00    -0.510 OA
ATOM     21  H   LIG    1       20.496 -20.143   3.582  0.00  0.00    +0.292 HD
ENDBRANCH  16  20
ENDBRANCH   1  17
TORSDOF 5
ENDMDL
