MODEL 1
REMARK VINA RESULT:      -7.4      0.000      0.000
REMARK  Name = *****
REMARK                            x       y       z     vdW  Elec       q    Type
REMARK                         _______ _______ _______ _____ _____    ______ ____
ROOT
ATOM      1  C   LIG    1       25.469 -26.287   5.583  0.00  0.00    +0.066 C 
ATOM      2  C   LIG    1       26.906 -26.800   5.437  0.00  0.00    +0.035 C 
ATOM      3  C   LIG    1       25.183 -25.232   4.502  0.00  0.00    +0.035 C 
ENDROOT
BRANCH   1   4
ATOM      4  S   LIG    1       25.276 -25.412   7.233  0.00  0.00    -0.108 S 
BRANCH   4   9
ATOM      5  C   LIG    1       24.380 -21.719   5.706  0.00  0.00    +0.001 A 
ATOM      6  C   LIG    1       25.598 -21.034   5.982  0.00  0.00    +0.124 A 
ATOM      7  C   LIG    1       26.668 -21.600   6.718  0.00  0.00    +0.001 A 
ATOM      8  C   LIG    1       26.504 -22.935   7.119  0.00  0.00    +0.022 A 
ATOM      9  C   LIG    1       25.372 -23.685   6.775  0.00  0.00    +0.010 A 
ATOM     10  C   LIG    1       24.313 -23.063   6.115  0.00  0.00    +0.022 A 
BRANCH   5  12
ATOM     11  C   LIG    1       21.901 -21.911   5.108  0.00  0.00    +0.016 C 
ATOM     12  C   LIG    1       23.169 -21.040   5.027  0.00  0.00    -0.009 C 
ATOM     13  C   LIG    1       22.791 -19.668   5.653  0.00  0.00    +0.016 C 
ATOM     14  C   LIG    1       23.495 -20.742   3.539  0.00  0.00    +0.016 C 
ENDBRANCH   5  12
BRANCH   7  15
ATOM     15  C   LIG    1       27.968 -20.834   7.080  0.00  0.00    -0.009 C 
ATOM     16  C   LIG    1       27.729 -19.865   8.262  0.00  0.00    +0.016 C 
ATOM     17  C   LIG    1       28.497 -20.042   5.865  0.00  0.00    +0.016 C 
ATOM     18  C   LIG    1       29.130 -21.757   7.532  0.00  0.00    +0.016 C 
ENDBRANCH   7  15
BRANCH   6  19
ATOM     19  O   LIG    1       25.753 -19.771   5.479  0.00  0.00    -0.506 OA
ATOM     20  H   LIG    1       26.157 -19.867   4.619  0.00  0.00    +0.292 HD
ENDBRANCH   6  19
ENDBRANCH   4   9
ENDBRANCH   1   4
BRANCH   1  21
ATOM     21  S   LIG    1       24.192 -27.634   5.462  0.00  0.00    -0.108 S 
BRANCH  21  22
ATOM     22  C   LIG    1       24.945 -28.971   6.368  0.00  0.00    +0.010 A 
ATOM     23  C   LIG    1       25.234 -30.181   5.731  0.00  0.00    +0.022 A 
ATOM     24  C   LIG    1       25.838 -31.253   6.403  0.00  0.00    +0.001 A 
ATOM     25  C   LIG    1       26.099 -31.044   7.791  0.00  0.00    +0.124 A 
ATOM     26  C   LIG    1       25.870 -29.820   8.470  0.00  0.00    +0.001 A 
ATOM     27  C   LIG    1       25.307 -28.782   7.709  0.00  0.00    +0.022 A 
BRANCH  24  28
ATOM     28  C   LIG    1       26.148 -32.560   5.639  0.00  0.00    -0.009 C 
ATOM     29  C   LIG    1       27.559 -33.133   5.887  0.00  0.00    +0.016 C 
ATOM     30  C   LIG    1       26.060 -32.375   4.095  0.00  0.00    +0.016 C 
ATOM     31  C   LIG    1       25.104 -33.625   6.037  0.00  0.00    +0.016 C 
ENDBRANCH  24  28
BRANCH  26  32
ATOM     32  C   LIG    1       26.211 -29.610   9.962  0.00  0.00    -0.009 C 
ATOM     33  C   LIG    1       25.013 -30.026  10.847  0.00  0.00    +0.016 C 
ATOM     34  C   LIG    1       26.566 -28.130  10.247  0.00  0.00    +0.016 C 
ATOM     35  C   LIG    1       27.429 -30.434  10.452  0.00  0.00    +0.016 C 
ENDBRANCH  26  32
BRANCH  25  36
ATOM     36  O   LIG    1       26.572 -32.087   8.533  0.00  0.00    -0.506 OA
ATOM     37  H   LIG    1       27.046 -31.683   9.275  0.00  0.00    +0.292 HD
ENDBRANCH  25  36
ENDBRANCH  21  22
ENDBRANCH   1  21
TORSDOF 10
ENDMDL
MODEL 2
REMARK VINA RESULT:      -7.3      0.125      9.511
REMARK  Name = *****
REMARK                            x       y       z     vdW  Elec       q    Type
REMARK                         _______ _______ _______ _____ _____    ______ ____
ROOT
ATOM      1  C   LIG    1       25.450 -26.277   5.567  0.00  0.00    +0.066 C 
ATOM      2  C   LIG    1       25.238 -25.327   4.383  0.00  0.00    +0.035 C 
ATOM      3  C   LIG    1       26.816 -26.970   5.436  0.00  0.00    +0.035 C 
ENDROOT
BRANCH   1   4
ATOM      4  S   LIG    1       24.163 -27.643   5.518  0.00  0.00    -0.108 S 
BRANCH   4   9
ATOM      5  C   LIG    1       25.825 -31.251   6.515  0.00  0.00    +0.001 A 
ATOM      6  C   LIG    1       26.089 -31.029   7.897  0.00  0.00    +0.124 A 
ATOM      7  C   LIG    1       25.892 -29.785   8.544  0.00  0.00    +0.001 A 
ATOM      8  C   LIG    1       25.337 -28.761   7.759  0.00  0.00    +0.022 A 
ATOM      9  C   LIG    1       24.957 -28.964   6.427  0.00  0.00    +0.010 A 
ATOM     10  C   LIG    1       25.241 -30.182   5.811  0.00  0.00    +0.022 A 
BRANCH   5  12
ATOM     11  C   LIG    1       27.615 -33.033   6.110  0.00  0.00    +0.016 C 
ATOM     12  C   LIG    1       26.181 -32.570   5.791  0.00  0.00    -0.009 C 
ATOM     13  C   LIG    1       25.250 -33.757   6.167  0.00  0.00    +0.016 C 
ATOM     14  C   LIG    1       26.027 -32.391   4.258  0.00  0.00    +0.016 C 
ENDBRANCH   5  12
BRANCH   7  15
ATOM     15  C   LIG    1       26.243 -29.520  10.032  0.00  0.00    -0.009 C 
ATOM     16  C   LIG    1       25.067 -29.911  10.957  0.00  0.00    +0.016 C 
ATOM     17  C   LIG    1       26.601 -28.035  10.256  0.00  0.00    +0.016 C 
ATOM     18  C   LIG    1       27.458 -30.339  10.541  0.00  0.00    +0.016 C 
ENDBRANCH   7  15
BRANCH   6  19
ATOM     19  O   LIG    1       26.529 -32.088   8.644  0.00  0.00    -0.506 OA
ATOM     20  H   LIG    1       26.773 -32.775   8.027  0.00  0.00    +0.292 HD
ENDBRANCH   6  19
ENDBRANCH   4   9
ENDBRANCH   1   4
BRANCH   1  21
ATOM     21  S   LIG    1       25.363 -25.425   7.218  0.00  0.00    -0.108 S 
BRANCH  21  22
ATOM     22  C   LIG    1       25.471 -23.703   6.778  0.00  0.00    +0.010 A 
ATOM     23  C   LIG    1       24.403 -23.071   6.134  0.00  0.00    +0.022 A 
ATOM     24  C   LIG    1       24.440 -21.714   5.783  0.00  0.00    +0.001 A 
ATOM     25  C   LIG    1       25.656 -21.030   6.085  0.00  0.00    +0.124 A 
ATOM     26  C   LIG    1       26.748 -21.614   6.780  0.00  0.00    +0.001 A 
ATOM     27  C   LIG    1       26.606 -22.965   7.138  0.00  0.00    +0.022 A 
BRANCH  24  28
ATOM     28  C   LIG    1       23.221 -21.068   5.087  0.00  0.00    -0.009 C 
ATOM     29  C   LIG    1       22.778 -19.716   5.684  0.00  0.00    +0.016 C 
ATOM     30  C   LIG    1       21.952 -21.970   5.164  0.00  0.00    +0.016 C 
ATOM     31  C   LIG    1       23.552 -20.865   3.594  0.00  0.00    +0.016 C 
ENDBRANCH  24  28
BRANCH  26  32
ATOM     32  C   LIG    1       28.031 -20.831   7.137  0.00  0.00    -0.009 C 
ATOM     33  C   LIG    1       27.750 -19.845   8.293  0.00  0.00    +0.016 C 
ATOM     34  C   LIG    1       28.560 -20.047   5.912  0.00  0.00    +0.016 C 
ATOM     35  C   LIG    1       29.208 -21.729   7.599  0.00  0.00    +0.016 C 
ENDBRANCH  26  32
BRANCH  25  36
ATOM     36  O   LIG    1       25.807 -19.743   5.660  0.00  0.00    -0.506 OA
ATOM     37  H   LIG    1       26.686 -19.471   5.963  0.00  0.00    +0.292 HD
ENDBRANCH  25  36
ENDBRANCH  21  22
ENDBRANCH   1  21
TORSDOF 10
ENDMDL
MODEL 3
REMARK VINA RESULT:      -7.2      0.454      3.140
REMARK  Name = *****
REMARK                            x       y       z     vdW  Elec       q    Type
REMARK                         _______ _______ _______ _____ _____    ______ ____
ROOT
ATOM      1  C   LIG    1       25.481 -26.459   5.645  0.00  0.00    +0.066 C 
ATOM      2  C   LIG    1       26.853 -27.061   5.319  0.00  0.00    +0.035 C 
ATOM      3  C   LIG    1       25.143 -25.359   4.625  0.00  0.00    +0.035 C 
ENDROOT
BRANCH   1   4
ATOM      4  S   LIG    1       25.543 -25.618   7.322  0.00  0.00    -0.108 S 
BRANCH   4   9
ATOM      5  C   LIG    1       24.447 -21.945   5.879  0.00  0.00    +0.001 A 
ATOM      6  C   LIG    1       25.640 -21.211   6.136  0.00  0.00    +0.124 A 
ATOM      7  C   LIG    1       26.751 -21.739   6.837  0.00  0.00    +0.001 A 
ATOM      8  C   LIG    1       26.656 -23.087   7.219  0.00  0.00    +0.022 A 
ATOM      9  C   LIG    1       25.551 -23.882   6.891  0.00  0.00    +0.010 A 
ATOM     10  C   LIG    1       24.450 -23.298   6.267  0.00  0.00    +0.022 A 
BRANCH   5  12
ATOM     11  C   LIG    1       21.939 -22.188   5.438  0.00  0.00    +0.016 C 
ATOM     12  C   LIG    1       23.190 -21.311   5.240  0.00  0.00    -0.009 C 
ATOM     13  C   LIG    1       22.834 -19.914   5.819  0.00  0.00    +0.016 C 
ATOM     14  C   LIG    1       23.424 -21.084   3.723  0.00  0.00    +0.016 C 
ENDBRANCH   5  12
BRANCH   7  15
ATOM     15  C   LIG    1       28.024 -20.922   7.180  0.00  0.00    -0.009 C 
ATOM     16  C   LIG    1       27.744 -19.912   8.317  0.00  0.00    +0.016 C 
ATOM     17  C   LIG    1       28.545 -20.167   5.939  0.00  0.00    +0.016 C 
ATOM     18  C   LIG    1       29.206 -21.792   7.684  0.00  0.00    +0.016 C 
ENDBRANCH   7  15
BRANCH   6  19
ATOM     19  O   LIG    1       25.725 -19.934   5.651  0.00  0.00    -0.506 OA
ATOM     20  H   LIG    1       26.651 -19.769   5.481  0.00  0.00    +0.292 HD
ENDBRANCH   6  19
ENDBRANCH   4   9
ENDBRANCH   1   4
BRANCH   1  21
ATOM     21  S   LIG    1       24.110 -27.716   5.650  0.00  0.00    -0.108 S 
BRANCH  21  22
ATOM     22  C   LIG    1       24.876 -29.130   6.415  0.00  0.00    +0.010 A 
ATOM     23  C   LIG    1       25.131 -29.139   7.789  0.00  0.00    +0.022 A 
ATOM     24  C   LIG    1       25.720 -30.236   8.433  0.00  0.00    +0.001 A 
ATOM     25  C   LIG    1       26.082 -31.327   7.587  0.00  0.00    +0.124 A 
ATOM     26  C   LIG    1       25.800 -31.387   6.198  0.00  0.00    +0.001 A 
ATOM     27  C   LIG    1       25.164 -30.264   5.643  0.00  0.00    +0.022 A 
BRANCH  24  28
ATOM     28  C   LIG    1       25.961 -30.191   9.959  0.00  0.00    -0.009 C 
ATOM     29  C   LIG    1       25.427 -31.414  10.733  0.00  0.00    +0.016 C 
ATOM     30  C   LIG    1       25.272 -28.965  10.628  0.00  0.00    +0.016 C 
ATOM     31  C   LIG    1       27.478 -30.066  10.217  0.00  0.00    +0.016 C 
ENDBRANCH  24  28
BRANCH  26  32
ATOM     32  C   LIG    1       26.160 -32.606   5.319  0.00  0.00    -0.009 C 
ATOM     33  C   LIG    1       26.008 -32.248   3.823  0.00  0.00    +0.016 C 
ATOM     34  C   LIG    1       25.253 -33.815   5.650  0.00  0.00    +0.016 C 
ATOM     35  C   LIG    1       27.614 -33.109   5.506  0.00  0.00    +0.016 C 
ENDBRANCH  26  32
BRANCH  25  36
ATOM     36  O   LIG    1       26.769 -32.375   8.127  0.00  0.00    -0.506 OA
ATOM     37  H   LIG    1       27.636 -32.367   7.695  0.00  0.00    +0.292 HD
ENDBRANCH  25  36
ENDBRANCH  21  22
ENDBRANCH   1  21
TORSDOF 10
ENDMDL
MODEL 4
REMARK VINA RESULT:      -7.2      0.231      9.679
REMARK  Name = *****
REMARK                            x       y       z     vdW  Elec       q    Type
REMARK                         _______ _______ _______ _____ _____    ______ ____
ROOT
ATOM      1  C   LIG    1       25.479 -26.301   5.562  0.00  0.00    +0.066 C 
ATOM      2  C   LIG    1       25.210 -25.329   4.407  0.00  0.00    +0.035 C 
ATOM      3  C   LIG    1       26.813 -27.028   5.327  0.00  0.00    +0.035 C 
ENDROOT
BRANCH   1   4
ATOM      4  S   LIG    1       24.154 -27.631   5.587  0.00  0.00    -0.108 S 
BRANCH   4   9
ATOM      5  C   LIG    1       25.927 -29.732   8.623  0.00  0.00    +0.001 A 
ATOM      6  C   LIG    1       26.225 -30.947   7.943  0.00  0.00    +0.124 A 
ATOM      7  C   LIG    1       25.816 -31.225   6.615  0.00  0.00    +0.001 A 
ATOM      8  C   LIG    1       25.144 -30.189   5.947  0.00  0.00    +0.022 A 
ATOM      9  C   LIG    1       24.927 -28.937   6.535  0.00  0.00    +0.010 A 
ATOM     10  C   LIG    1       25.279 -28.737   7.868  0.00  0.00    +0.022 A 
BRANCH   5  12
ATOM     11  C   LIG    1       25.099 -29.944  11.034  0.00  0.00    +0.016 C 
ATOM     12  C   LIG    1       26.255 -29.501  10.116  0.00  0.00    -0.009 C 
ATOM     13  C   LIG    1       27.513 -30.272  10.604  0.00  0.00    +0.016 C 
ATOM     14  C   LIG    1       26.564 -28.001  10.364  0.00  0.00    +0.016 C 
ENDBRANCH   5  12
BRANCH   7  15
ATOM     15  C   LIG    1       26.078 -32.574   5.895  0.00  0.00    -0.009 C 
ATOM     16  C   LIG    1       25.779 -32.460   4.382  0.00  0.00    +0.016 C 
ATOM     17  C   LIG    1       25.216 -33.700   6.506  0.00  0.00    +0.016 C 
ATOM     18  C   LIG    1       27.549 -33.056   5.989  0.00  0.00    +0.016 C 
ENDBRANCH   7  15
BRANCH   6  19
ATOM     19  O   LIG    1       26.974 -31.885   8.601  0.00  0.00    -0.506 OA
ATOM     20  H   LIG    1       27.742 -32.051   8.057  0.00  0.00    +0.292 HD
ENDBRANCH   6  19
ENDBRANCH   4   9
ENDBRANCH   1   4
BRANCH   1  21
ATOM     21  S   LIG    1       25.531 -25.470   7.225  0.00  0.00    -0.108 S 
BRANCH  21  22
ATOM     22  C   LIG    1       25.591 -23.741   6.798  0.00  0.00    +0.010 A 
ATOM     23  C   LIG    1       24.500 -23.129   6.176  0.00  0.00    +0.022 A 
ATOM     24  C   LIG    1       24.500 -21.769   5.836  0.00  0.00    +0.001 A 
ATOM     25  C   LIG    1       25.703 -21.059   6.127  0.00  0.00    +0.124 A 
ATOM     26  C   LIG    1       26.818 -21.622   6.801  0.00  0.00    +0.001 A 
ATOM     27  C   LIG    1       26.714 -22.979   7.150  0.00  0.00    +0.022 A 
BRANCH  24  28
ATOM     28  C   LIG    1       23.255 -21.147   5.164  0.00  0.00    -0.009 C 
ATOM     29  C   LIG    1       22.812 -19.792   5.754  0.00  0.00    +0.016 C 
ATOM     30  C   LIG    1       22.000 -22.062   5.286  0.00  0.00    +0.016 C 
ATOM     31  C   LIG    1       23.546 -20.961   3.659  0.00  0.00    +0.016 C 
ENDBRANCH  24  28
BRANCH  26  32
ATOM     32  C   LIG    1       28.087 -20.812   7.147  0.00  0.00    -0.009 C 
ATOM     33  C   LIG    1       29.223 -21.764   7.587  0.00  0.00    +0.016 C 
ATOM     34  C   LIG    1       27.805 -19.796   8.280  0.00  0.00    +0.016 C 
ATOM     35  C   LIG    1       28.643 -19.978   5.965  0.00  0.00    +0.016 C 
ENDBRANCH  26  32
BRANCH  25  36
ATOM     36  O   LIG    1       25.818 -19.765   5.712  0.00  0.00    -0.506 OA
ATOM     37  H   LIG    1       26.768 -19.607   5.611  0.00  0.00    +0.292 HD
ENDBRANCH  25  36
ENDBRANCH  21  22
ENDBRANCH   1  21
TORSDOF 10
ENDMDL
MODEL 5
REMARK VINA RESULT:      -7.0      4.190      8.394
REMARK  Name = *****
REMARK                            x       y       z     vdW  Elec       q    Type
REMARK                         _______ _______ _______ _____ _____    ______ ____
ROOT
ATOM      1  C   LIG    1       25.063 -31.011  11.355  0.00  0.00    +0.066 C 
ATOM      2  C   LIG    1       25.126 -32.481  10.926  0.00  0.00    +0.035 C 
ATOM      3  C   LIG    1       25.146 -30.915  12.887  0.00  0.00    +0.035 C 
ENDROOT
BRANCH   1   4
ATOM      4  S   LIG    1       23.401 -30.283  10.873  0.00  0.00    -0.108 S 
BRANCH   4   9
ATOM      5  C   LIG    1       24.194 -27.143  13.379  0.00  0.00    +0.001 A 
ATOM      6  C   LIG    1       22.896 -26.925  13.922  0.00  0.00    +0.124 A 
ATOM      7  C   LIG    1       21.737 -27.614  13.489  0.00  0.00    +0.001 A 
ATOM      8  C   LIG    1       21.937 -28.608  12.517  0.00  0.00    +0.022 A 
ATOM      9  C   LIG    1       23.210 -28.936  12.035  0.00  0.00    +0.010 A 
ATOM     10  C   LIG    1       24.310 -28.179  12.434  0.00  0.00    +0.022 A 
BRANCH   5  12
ATOM     11  C   LIG    1       25.106 -24.776  13.714  0.00  0.00    +0.016 C 
ATOM     12  C   LIG    1       25.422 -26.283  13.761  0.00  0.00    -0.009 C 
ATOM     13  C   LIG    1       25.961 -26.568  15.190  0.00  0.00    +0.016 C 
ATOM     14  C   LIG    1       26.602 -26.592  12.802  0.00  0.00    +0.016 C 
ENDBRANCH   5  12
BRANCH   7  15
ATOM     15  C   LIG    1       20.311 -27.331  14.029  0.00  0.00    -0.009 C 
ATOM     16  C   LIG    1       19.448 -28.615  14.014  0.00  0.00    +0.016 C 
ATOM     17  C   LIG    1       19.614 -26.235  13.194  0.00  0.00    +0.016 C 
ATOM     18  C   LIG    1       20.287 -26.836  15.499  0.00  0.00    +0.016 C 
ENDBRANCH   7  15
BRANCH   6  19
ATOM     19  O   LIG    1       22.770 -26.020  14.941  0.00  0.00    -0.506 OA
ATOM     20  H   LIG    1       22.793 -26.521  15.755  0.00  0.00    +0.292 HD
ENDBRANCH   6  19
ENDBRANCH   4   9
ENDBRANCH   1   4
BRANCH   1  21
ATOM     21  S   LIG    1       26.415 -29.971  10.613  0.00  0.00    -0.108 S 
BRANCH  21  22
ATOM     22  C   LIG    1       25.942 -29.876   8.898  0.00  0.00    +0.010 A 
ATOM     23  C   LIG    1       25.880 -28.639   8.250  0.00  0.00    +0.022 A 
ATOM     24  C   LIG    1       25.526 -28.521   6.899  0.00  0.00    +0.001 A 
ATOM     25  C   LIG    1       25.190 -29.741   6.239  0.00  0.00    +0.124 A 
ATOM     26  C   LIG    1       25.285 -31.024   6.838  0.00  0.00    +0.001 A 
ATOM     27  C   LIG    1       25.695 -31.055   8.181  0.00  0.00    +0.022 A 
BRANCH  24  28
ATOM     28  C   LIG    1       25.492 -27.126   6.234  0.00  0.00    -0.009 C 
ATOM     29  C   LIG    1       25.970 -25.969   7.135  0.00  0.00    +0.016 C 
ATOM     30  C   LIG    1       24.053 -26.719   5.794  0.00  0.00    +0.016 C 
ATOM     31  C   LIG    1       26.369 -27.161   4.965  0.00  0.00    +0.016 C 
ENDBRANCH  24  28
BRANCH  26  32
ATOM     32  C   LIG    1       24.963 -32.332   6.080  0.00  0.00    -0.009 C 
ATOM     33  C   LIG    1       25.709 -32.361   4.727  0.00  0.00    +0.016 C 
ATOM     34  C   LIG    1       23.442 -32.466   5.829  0.00  0.00    +0.016 C 
ATOM     35  C   LIG    1       25.376 -33.618   6.840  0.00  0.00    +0.016 C 
ENDBRANCH  26  32
BRANCH  25  36
ATOM     36  O   LIG    1       24.719 -29.687   4.960  0.00  0.00    -0.506 OA
ATOM     37  H   LIG    1       24.237 -28.850   4.896  0.00  0.00    +0.292 HD
ENDBRANCH  25  36
ENDBRANCH  21  22
ENDBRANCH   1  21
TORSDOF 10
ENDMDL
MODEL 6
REMARK VINA RESULT:      -6.9      0.236      9.681
REMARK  Name = *****
REMARK                            x       y       z     vdW  Elec       q    Type
REMARK                         _______ _______ _______ _____ _____    ______ ____
ROOT
ATOM      1  C   LIG    1       25.427 -26.332   5.469  0.00  0.00    +0.066 C 
ATOM      2  C   LIG    1       25.150 -25.313   4.357  0.00  0.00    +0.035 C 
ATOM      3  C   LIG    1       26.745 -27.068   5.179  0.00  0.00    +0.035 C 
ENDROOT
BRANCH   1   4
ATOM      4  S   LIG    1       24.084 -27.644   5.471  0.00  0.00    -0.108 S 
BRANCH   4   9
ATOM      5  C   LIG    1       25.728 -31.308   6.275  0.00  0.00    +0.001 A 
ATOM      6  C   LIG    1       26.002 -31.157   7.665  0.00  0.00    +0.124 A 
ATOM      7  C   LIG    1       25.817 -29.946   8.375  0.00  0.00    +0.001 A 
ATOM      8  C   LIG    1       25.264 -28.881   7.646  0.00  0.00    +0.022 A 
ATOM      9  C   LIG    1       24.874 -29.014   6.308  0.00  0.00    +0.010 A 
ATOM     10  C   LIG    1       25.146 -30.201   5.630  0.00  0.00    +0.022 A 
BRANCH   5  12
ATOM     11  C   LIG    1       27.505 -33.075   5.765  0.00  0.00    +0.016 C 
ATOM     12  C   LIG    1       26.070 -32.592   5.484  0.00  0.00    -0.009 C 
ATOM     13  C   LIG    1       25.137 -33.792   5.812  0.00  0.00    +0.016 C 
ATOM     14  C   LIG    1       25.900 -32.337   3.963  0.00  0.00    +0.016 C 
ENDBRANCH   5  12
BRANCH   7  15
ATOM     15  C   LIG    1       26.179 -29.758   9.872  0.00  0.00    -0.009 C 
ATOM     16  C   LIG    1       26.482 -28.274  10.186  0.00  0.00    +0.016 C 
ATOM     17  C   LIG    1       27.399 -30.623  10.256  0.00  0.00    +0.016 C 
ATOM     18  C   LIG    1       25.040 -30.161  10.845  0.00  0.00    +0.016 C 
ENDBRANCH   7  15
BRANCH   6  19
ATOM     19  O   LIG    1       26.439 -32.255   8.356  0.00  0.00    -0.506 OA
ATOM     20  H   LIG    1       26.745 -31.939   9.204  0.00  0.00    +0.292 HD
ENDBRANCH   6  19
ENDBRANCH   4   9
ENDBRANCH   1   4
BRANCH   1  21
ATOM     21  S   LIG    1       25.524 -25.565   7.161  0.00  0.00    -0.108 S 
BRANCH  21  22
ATOM     22  C   LIG    1       25.554 -23.821   6.800  0.00  0.00    +0.010 A 
ATOM     23  C   LIG    1       26.679 -23.054   7.115  0.00  0.00    +0.022 A 
ATOM     24  C   LIG    1       26.749 -21.682   6.836  0.00  0.00    +0.001 A 
ATOM     25  C   LIG    1       25.580 -21.110   6.249  0.00  0.00    +0.124 A 
ATOM     26  C   LIG    1       24.434 -21.854   5.866  0.00  0.00    +0.001 A 
ATOM     27  C   LIG    1       24.468 -23.232   6.138  0.00  0.00    +0.022 A 
BRANCH  24  28
ATOM     28  C   LIG    1       28.028 -20.891   7.193  0.00  0.00    -0.009 C 
ATOM     29  C   LIG    1       28.614 -20.054   6.037  0.00  0.00    +0.016 C 
ATOM     30  C   LIG    1       29.193 -21.825   7.637  0.00  0.00    +0.016 C 
ATOM     31  C   LIG    1       27.714 -19.950   8.375  0.00  0.00    +0.016 C 
ENDBRANCH  24  28
BRANCH  26  32
ATOM     32  C   LIG    1       23.204 -21.213   5.186  0.00  0.00    -0.009 C 
ATOM     33  C   LIG    1       21.961 -22.112   5.375  0.00  0.00    +0.016 C 
ATOM     34  C   LIG    1       23.456 -20.999   3.674  0.00  0.00    +0.016 C 
ATOM     35  C   LIG    1       22.829 -19.818   5.749  0.00  0.00    +0.016 C 
ENDBRANCH  26  32
BRANCH  25  36
ATOM     36  O   LIG    1       25.533 -19.759   6.064  0.00  0.00    -0.506 OA
ATOM     37  H   LIG    1       26.290 -19.548   5.497  0.00  0.00    +0.292 HD
ENDBRANCH  25  36
ENDBRANCH  21  22
ENDBRANCH   1  21
TORSDOF 10
ENDMDL
MODEL 7
REMARK VINA RESULT:      -6.9      0.137      3.108
REMARK  Name = *****
REMARK                            x       y       z     vdW  Elec       q    Type
REMARK                         _______ _______ _______ _____ _____    ______ ____
ROOT
ATOM      1  C   LIG    1       25.484 -26.323   5.629  0.00  0.00    +0.066 C 
ATOM      2  C   LIG    1       26.931 -26.816   5.511  0.00  0.00    +0.035 C 
ATOM      3  C   LIG    1       25.199 -25.288   4.529  0.00  0.00    +0.035 C 
ENDROOT
BRANCH   1   4
ATOM      4  S   LIG    1       25.253 -25.429   7.264  0.00  0.00    -0.108 S 
BRANCH   4   9
ATOM      5  C   LIG    1       26.693 -21.626   6.771  0.00  0.00    +0.001 A 
ATOM      6  C   LIG    1       25.567 -21.013   6.151  0.00  0.00    +0.124 A 
ATOM      7  C   LIG    1       24.403 -21.720   5.761  0.00  0.00    +0.001 A 
ATOM      8  C   LIG    1       24.372 -23.086   6.086  0.00  0.00    +0.022 A 
ATOM      9  C   LIG    1       25.407 -23.709   6.795  0.00  0.00    +0.010 A 
ATOM     10  C   LIG    1       26.564 -22.991   7.090  0.00  0.00    +0.022 A 
BRANCH   5  12
ATOM     11  C   LIG    1       29.174 -21.834   7.358  0.00  0.00    +0.016 C 
ATOM     12  C   LIG    1       28.010 -20.870   7.059  0.00  0.00    -0.009 C 
ATOM     13  C   LIG    1       28.484 -19.972   5.882  0.00  0.00    +0.016 C 
ATOM     14  C   LIG    1       27.816 -19.910   8.262  0.00  0.00    +0.016 C 
ENDBRANCH   5  12
BRANCH   7  15
ATOM     15  C   LIG    1       23.204 -21.070   5.023  0.00  0.00    -0.009 C 
ATOM     16  C   LIG    1       21.948 -21.969   5.108  0.00  0.00    +0.016 C 
ATOM     17  C   LIG    1       23.547 -20.805   3.541  0.00  0.00    +0.016 C 
ATOM     18  C   LIG    1       22.773 -19.703   5.617  0.00  0.00    +0.016 C 
ENDBRANCH   7  15
BRANCH   6  19
ATOM     19  O   LIG    1       25.602 -19.660   5.950  0.00  0.00    -0.506 OA
ATOM     20  H   LIG    1       25.666 -19.258   6.814  0.00  0.00    +0.292 HD
ENDBRANCH   6  19
ENDBRANCH   4   9
ENDBRANCH   1   4
BRANCH   1  21
ATOM     21  S   LIG    1       24.230 -27.692   5.508  0.00  0.00    -0.108 S 
BRANCH  21  22
ATOM     22  C   LIG    1       24.992 -29.006   6.438  0.00  0.00    +0.010 A 
ATOM     23  C   LIG    1       25.295 -30.224   5.821  0.00  0.00    +0.022 A 
ATOM     24  C   LIG    1       25.907 -31.278   6.512  0.00  0.00    +0.001 A 
ATOM     25  C   LIG    1       26.161 -31.046   7.897  0.00  0.00    +0.124 A 
ATOM     26  C   LIG    1       25.917 -29.813   8.556  0.00  0.00    +0.001 A 
ATOM     27  C   LIG    1       25.348 -28.792   7.776  0.00  0.00    +0.022 A 
BRANCH  24  28
ATOM     28  C   LIG    1       26.233 -32.595   5.770  0.00  0.00    -0.009 C 
ATOM     29  C   LIG    1       27.648 -33.150   6.030  0.00  0.00    +0.016 C 
ATOM     30  C   LIG    1       26.147 -32.435   4.223  0.00  0.00    +0.016 C 
ATOM     31  C   LIG    1       25.198 -33.664   6.182  0.00  0.00    +0.016 C 
ENDBRANCH  24  28
BRANCH  26  32
ATOM     32  C   LIG    1       26.250 -29.576  10.046  0.00  0.00    -0.009 C 
ATOM     33  C   LIG    1       25.061 -30.007  10.934  0.00  0.00    +0.016 C 
ATOM     34  C   LIG    1       26.573 -28.085  10.311  0.00  0.00    +0.016 C 
ATOM     35  C   LIG    1       27.486 -30.366  10.548  0.00  0.00    +0.016 C 
ENDBRANCH  26  32
BRANCH  25  36
ATOM     36  O   LIG    1       26.641 -32.072   8.657  0.00  0.00    -0.506 OA
ATOM     37  H   LIG    1       27.593 -31.910   8.741  0.00  0.00    +0.292 HD
ENDBRANCH  25  36
ENDBRANCH  21  22
ENDBRANCH   1  21
TORSDOF 10
ENDMDL
MODEL 8
REMARK VINA RESULT:      -6.9      4.477      9.224
REMARK  Name = *****
REMARK                            x       y       z     vdW  Elec       q    Type
REMARK                         _______ _______ _______ _____ _____    ______ ____
ROOT
ATOM      1  C   LIG    1       24.568 -31.068  11.139  0.00  0.00    +0.066 C 
ATOM      2  C   LIG    1       24.640 -32.597  11.207  0.00  0.00    +0.035 C 
ATOM      3  C   LIG    1       24.293 -30.500  12.541  0.00  0.00    +0.035 C 
ENDROOT
BRANCH   1   4
ATOM      4  S   LIG    1       23.113 -30.552  10.070  0.00  0.00    -0.108 S 
BRANCH   4   9
ATOM      5  C   LIG    1       19.796 -30.783  12.461  0.00  0.00    +0.001 A 
ATOM      6  C   LIG    1       19.851 -29.504  13.085  0.00  0.00    +0.124 A 
ATOM      7  C   LIG    1       20.916 -28.588  12.908  0.00  0.00    +0.001 A 
ATOM      8  C   LIG    1       21.918 -28.974  12.003  0.00  0.00    +0.022 A 
ATOM      9  C   LIG    1       21.852 -30.172  11.281  0.00  0.00    +0.010 A 
ATOM     10  C   LIG    1       20.824 -31.075  11.546  0.00  0.00    +0.022 A 
BRANCH   5  12
ATOM     11  C   LIG    1       18.591 -32.108  14.287  0.00  0.00    +0.016 C 
ATOM     12  C   LIG    1       18.700 -31.827  12.777  0.00  0.00    -0.009 C 
ATOM     13  C   LIG    1       17.280 -31.399  12.313  0.00  0.00    +0.016 C 
ATOM     14  C   LIG    1       19.001 -33.152  12.027  0.00  0.00    +0.016 C 
ENDBRANCH   5  12
BRANCH   7  15
ATOM     15  C   LIG    1       21.014 -27.223  13.640  0.00  0.00    -0.009 C 
ATOM     16  C   LIG    1       21.044 -27.418  15.174  0.00  0.00    +0.016 C 
ATOM     17  C   LIG    1       19.829 -26.309  13.261  0.00  0.00    +0.016 C 
ATOM     18  C   LIG    1       22.300 -26.425  13.300  0.00  0.00    +0.016 C 
ENDBRANCH   7  15
BRANCH   6  19
ATOM     19  O   LIG    1       18.798 -29.130  13.876  0.00  0.00    -0.506 OA
ATOM     20  H   LIG    1       19.170 -28.662  14.621  0.00  0.00    +0.292 HD
ENDBRANCH   6  19
ENDBRANCH   4   9
ENDBRANCH   1   4
BRANCH   1  21
ATOM     21  S   LIG    1       26.117 -30.288  10.467  0.00  0.00    -0.108 S 
BRANCH  21  22
ATOM     22  C   LIG    1       25.753 -30.124   8.731  0.00  0.00    +0.010 A 
ATOM     23  C   LIG    1       25.725 -28.862   8.131  0.00  0.00    +0.022 A 
ATOM     24  C   LIG    1       25.457 -28.690   6.766  0.00  0.00    +0.001 A 
ATOM     25  C   LIG    1       25.171 -29.883   6.036  0.00  0.00    +0.124 A 
ATOM     26  C   LIG    1       25.234 -31.189   6.588  0.00  0.00    +0.001 A 
ATOM     27  C   LIG    1       25.559 -31.273   7.952  0.00  0.00    +0.022 A 
BRANCH  24  28
ATOM     28  C   LIG    1       25.457 -27.269   6.157  0.00  0.00    -0.009 C 
ATOM     29  C   LIG    1       24.074 -26.762   5.701  0.00  0.00    +0.016 C 
ATOM     30  C   LIG    1       26.354 -27.173   4.887  0.00  0.00    +0.016 C 
ATOM     31  C   LIG    1       26.027 -26.284   7.200  0.00  0.00    +0.016 C 
ENDBRANCH  24  28
BRANCH  26  32
ATOM     32  C   LIG    1       24.968 -32.465   5.758  0.00  0.00    -0.009 C 
ATOM     33  C   LIG    1       23.448 -32.664   5.559  0.00  0.00    +0.016 C 
ATOM     34  C   LIG    1       25.560 -33.713   6.457  0.00  0.00    +0.016 C 
ATOM     35  C   LIG    1       25.600 -32.439   4.343  0.00  0.00    +0.016 C 
ENDBRANCH  26  32
BRANCH  25  36
ATOM     36  O   LIG    1       24.781 -29.777   4.733  0.00  0.00    -0.506 OA
ATOM     37  H   LIG    1       24.169 -30.513   4.585  0.00  0.00    +0.292 HD
ENDBRANCH  25  36
ENDBRANCH  21  22
ENDBRANCH   1  21
TORSDOF 10
ENDMDL
MODEL 9
REMARK VINA RESULT:      -6.8      0.458      4.386
REMARK  Name = *****
REMARK                            x       y       z     vdW  Elec       q    Type
REMARK                         _______ _______ _______ _____ _____    ______ ____
ROOT
ATOM      1  C   LIG    1       25.550 -26.453   5.670  0.00  0.00    +0.066 C 
ATOM      2  C   LIG    1       26.929 -27.056   5.374  0.00  0.00    +0.035 C 
ATOM      3  C   LIG    1       25.231 -25.359   4.638  0.00  0.00    +0.035 C 
ENDROOT
BRANCH   1   4
ATOM      4  S   LIG    1       25.580 -25.601   7.343  0.00  0.00    -0.108 S 
BRANCH   4   9
ATOM      5  C   LIG    1       26.811 -21.725   6.866  0.00  0.00    +0.001 A 
ATOM      6  C   LIG    1       25.633 -21.158   6.301  0.00  0.00    +0.124 A 
ATOM      7  C   LIG    1       24.491 -21.915   5.943  0.00  0.00    +0.001 A 
ATOM      8  C   LIG    1       24.540 -23.286   6.243  0.00  0.00    +0.022 A 
ATOM      9  C   LIG    1       25.630 -23.869   6.901  0.00  0.00    +0.010 A 
ATOM     10  C   LIG    1       26.762 -23.099   7.164  0.00  0.00    +0.022 A 
BRANCH   5  12
ATOM     11  C   LIG    1       28.550 -20.141   5.861  0.00  0.00    +0.016 C 
ATOM     12  C   LIG    1       28.100 -20.908   7.118  0.00  0.00    -0.009 C 
ATOM     13  C   LIG    1       27.955 -19.847   8.244  0.00  0.00    +0.016 C 
ATOM     14  C   LIG    1       29.241 -21.852   7.581  0.00  0.00    +0.016 C 
ENDBRANCH   5  12
BRANCH   7  15
ATOM     15  C   LIG    1       23.233 -21.313   5.263  0.00  0.00    -0.009 C 
ATOM     16  C   LIG    1       22.009 -22.241   5.443  0.00  0.00    +0.016 C 
ATOM     17  C   LIG    1       23.481 -21.076   3.758  0.00  0.00    +0.016 C 
ATOM     18  C   LIG    1       22.802 -19.944   5.850  0.00  0.00    +0.016 C 
ENDBRANCH   7  15
BRANCH   6  19
ATOM     19  O   LIG    1       25.594 -19.801   6.124  0.00  0.00    -0.506 OA
ATOM     20  H   LIG    1       24.671 -19.557   6.091  0.00  0.00    +0.292 HD
ENDBRANCH   6  19
ENDBRANCH   4   9
ENDBRANCH   1   4
BRANCH   1  21
ATOM     21  S   LIG    1       24.180 -27.711   5.658  0.00  0.00    -0.108 S 
BRANCH  21  22
ATOM     22  C   LIG    1       24.935 -29.121   6.443  0.00  0.00    +0.010 A 
ATOM     23  C   LIG    1       25.185 -29.113   7.818  0.00  0.00    +0.022 A 
ATOM     24  C   LIG    1       25.764 -30.206   8.477  0.00  0.00    +0.001 A 
ATOM     25  C   LIG    1       26.121 -31.311   7.647  0.00  0.00    +0.124 A 
ATOM     26  C   LIG    1       25.843 -31.387   6.258  0.00  0.00    +0.001 A 
ATOM     27  C   LIG    1       25.216 -30.267   5.687  0.00  0.00    +0.022 A 
BRANCH  24  28
ATOM     28  C   LIG    1       26.001 -30.144  10.003  0.00  0.00    -0.009 C 
ATOM     29  C   LIG    1       25.357 -28.932  10.708  0.00  0.00    +0.016 C 
ATOM     30  C   LIG    1       27.515 -30.052  10.361  0.00  0.00    +0.016 C 
ATOM     31  C   LIG    1       25.453 -31.437  10.643  0.00  0.00    +0.016 C 
ENDBRANCH  24  28
BRANCH  26  32
ATOM     32  C   LIG    1       26.196 -32.620   5.396  0.00  0.00    -0.009 C 
ATOM     33  C   LIG    1       26.046 -32.281   3.895  0.00  0.00    +0.016 C 
ATOM     34  C   LIG    1       25.283 -33.819   5.744  0.00  0.00    +0.016 C 
ATOM     35  C   LIG    1       27.648 -33.129   5.591  0.00  0.00    +0.016 C 
ENDBRANCH  26  32
BRANCH  25  36
ATOM     36  O   LIG    1       26.799 -32.357   8.203  0.00  0.00    -0.506 OA
ATOM     37  H   LIG    1       26.310 -32.585   9.007  0.00  0.00    +0.292 HD
ENDBRANCH  25  36
ENDBRANCH  21  22
ENDBRANCH   1  21
TORSDOF 10
ENDMDL
