MODEL 1
REMARK VINA RESULT:      -3.0      0.000      0.000
REMARK  Name = *****
REMARK                            x       y       z     vdW  Elec       q    Type
REMARK                         _______ _______ _______ _____ _____    ______ ____
ROOT
ATOM      1  C   LIG    1       24.426 -19.904   4.797  0.00  0.00    +0.101 C 
ATOM      2  C   LIG    1       24.551 -18.639   3.915  0.00  0.00    +0.047 C 
ATOM      3  C   LIG    1       23.184 -18.095   3.484  0.00  0.00    +0.086 C 
ATOM      4  N   LIG    1       22.249 -17.809   4.573  0.00  0.00    -0.302 NA
ATOM      5  C   LIG    1       22.137 -18.944   5.500  0.00  0.00    +0.086 C 
ATOM      6  C   LIG    1       23.476 -19.541   5.972  0.00  0.00    +0.047 C 
ENDROOT
BRANCH   1   7
ATOM      7  N   LIG    1       25.767 -20.447   5.277  0.00  0.00    -0.289 NA
ATOM      8  C   LIG    1       25.783 -20.873   6.691  0.00  0.00    +0.085 C 
ATOM      9  C   LIG    1       27.098 -21.572   7.059  0.00  0.00    +0.015 C 
ATOM     10  C   LIG    1       28.312 -20.697   6.783  0.00  0.00    +0.002 C 
ATOM     11  C   LIG    1       28.248 -20.120   5.376  0.00  0.00    +0.015 C 
ATOM     12  C   LIG    1       26.883 -19.489   5.071  0.00  0.00    +0.085 C 
ENDBRANCH   1   7
BRANCH   1  16
ATOM     13  N   LIG    1       22.574 -21.572   4.428  0.00  0.00    -0.328 N 
ATOM     14  H   LIG    1       22.294 -21.432   5.388  0.00  0.00    +0.145 HD
ATOM     15  H   LIG    1       22.189 -22.362   3.926  0.00  0.00    +0.145 HD
ATOM     16  C   LIG    1       23.745 -21.053   3.952  0.00  0.00    +0.231 C 
ATOM     17  O   LIG    1       24.232 -21.531   2.929  0.00  0.00    -0.274 OA
ENDBRANCH   1  16
BRANCH   4  18
ATOM     18  C   LIG    1       22.427 -16.519   5.257  0.00  0.00    +0.085 C 
BRANCH  18  19
ATOM     19  C   LIG    1       22.709 -15.304   4.348  0.00  0.00    +0.023 C 
BRANCH  19  20
ATOM     20  C   LIG    1       23.994 -15.380   3.521  0.00  0.00    +0.081 C 
BRANCH  20  21
ATOM     21  C   LIG    1       24.607 -14.046   3.104  0.00  0.00    +0.163 C 
ATOM     22  O   LIG    1       24.058 -13.294   2.308  0.00  0.00    -0.292 OA
BRANCH  21  23
ATOM     23  C   LIG    1       25.880 -13.609   3.787  0.00  0.00    +0.018 A 
ATOM     24  C   LIG    1       25.900 -13.181   5.123  0.00  0.00    +0.014 A 
ATOM     25  C   LIG    1       27.079 -12.713   5.708  0.00  0.00    +0.039 A 
ATOM     26  C   LIG    1       28.245 -12.661   4.957  0.00  0.00    +0.123 A 
ATOM     27  F   LIG    1       29.363 -12.174   5.510  0.00  0.00    -0.205 F 
ATOM     28  C   LIG    1       28.259 -13.099   3.639  0.00  0.00    +0.039 A 
ATOM     29  C   LIG    1       27.080 -13.580   3.053  0.00  0.00    +0.014 A 
ENDBRANCH  21  23
ENDBRANCH  20  21
ENDBRANCH  19  20
ENDBRANCH  18  19
ENDBRANCH   4  18
TORSDOF 7
ENDMDL
MODEL 2
REMARK VINA RESULT:      -1.4      3.403      7.243
REMARK  Name = *****
REMARK                            x       y       z     vdW  Elec       q    Type
REMARK                         _______ _______ _______ _____ _____    ______ ____
ROOT
ATOM      1  C   LIG    1       24.561 -13.799   3.986  0.00  0.00    +0.101 C 
ATOM      2  C   LIG    1       25.350 -14.192   2.715  0.00  0.00    +0.047 C 
ATOM      3  C   LIG    1       26.538 -13.258   2.457  0.00  0.00    +0.086 C 
ATOM      4  N   LIG    1       27.484 -13.123   3.565  0.00  0.00    -0.302 NA
ATOM      5  C   LIG    1       26.796 -12.824   4.829  0.00  0.00    +0.086 C 
ATOM      6  C   LIG    1       25.590 -13.725   5.149  0.00  0.00    +0.047 C 
ENDROOT
BRANCH   1   7
ATOM      7  N   LIG    1       23.397 -14.734   4.295  0.00  0.00    -0.289 NA
ATOM      8  C   LIG    1       22.975 -14.737   5.710  0.00  0.00    +0.085 C 
ATOM      9  C   LIG    1       21.694 -15.554   5.918  0.00  0.00    +0.015 C 
ATOM     10  C   LIG    1       21.839 -16.989   5.432  0.00  0.00    +0.002 C 
ATOM     11  C   LIG    1       22.416 -17.022   4.024  0.00  0.00    +0.015 C 
ATOM     12  C   LIG    1       23.662 -16.137   3.888  0.00  0.00    +0.085 C 
ENDBRANCH   1   7
BRANCH   1  16
ATOM     13  N   LIG    1       23.749 -11.935   2.499  0.00  0.00    -0.328 N 
ATOM     14  H   LIG    1       24.210 -12.390   1.723  0.00  0.00    +0.145 HD
ATOM     15  H   LIG    1       23.433 -10.981   2.376  0.00  0.00    +0.145 HD
ATOM     16  C   LIG    1       23.946 -12.357   3.783  0.00  0.00    +0.231 C 
ATOM     17  O   LIG    1       23.685 -11.587   4.706  0.00  0.00    -0.274 OA
ENDBRANCH   1  16
BRANCH   4  18
ATOM     18  C   LIG    1       28.488 -14.190   3.692  0.00  0.00    +0.085 C 
BRANCH  18  19
ATOM     19  C   LIG    1       28.089 -15.395   4.570  0.00  0.00    +0.023 C 
BRANCH  19  20
ATOM     20  C   LIG    1       27.618 -16.638   3.813  0.00  0.00    +0.081 C 
BRANCH  20  21
ATOM     21  C   LIG    1       27.861 -17.979   4.499  0.00  0.00    +0.163 C 
ATOM     22  O   LIG    1       28.905 -18.232   5.089  0.00  0.00    -0.292 OA
BRANCH  21  23
ATOM     23  C   LIG    1       26.726 -18.972   4.534  0.00  0.00    +0.018 A 
ATOM     24  C   LIG    1       25.665 -18.923   3.616  0.00  0.00    +0.014 A 
ATOM     25  C   LIG    1       24.590 -19.810   3.716  0.00  0.00    +0.039 A 
ATOM     26  C   LIG    1       24.565 -20.747   4.739  0.00  0.00    +0.123 A 
ATOM     27  F   LIG    1       23.513 -21.568   4.855  0.00  0.00    -0.205 F 
ATOM     28  C   LIG    1       25.612 -20.832   5.648  0.00  0.00    +0.039 A 
ATOM     29  C   LIG    1       26.697 -19.951   5.544  0.00  0.00    +0.014 A 
ENDBRANCH  21  23
ENDBRANCH  20  21
ENDBRANCH  19  20
ENDBRANCH  18  19
ENDBRANCH   4  18
TORSDOF 7
ENDMDL
