MODEL 1
REMARK VINA RESULT:      -6.7      0.000      0.000
REMARK  Name = *****
REMARK                            x       y       z     vdW  Elec       q    Type
REMARK                         _______ _______ _______ _____ _____    ______ ____
ROOT
ATOM      1  N   LIG    1       26.179 -20.402   5.681  0.00  0.00    -0.155 NA
ATOM      2  C   LIG    1       27.071 -20.643   6.567  0.00  0.00    +0.184 C 
ATOM      3  N   LIG    1       27.212 -21.362   7.743  0.00  0.00    -0.244 N 
ATOM      4  C   LIG    1       26.180 -22.134   8.408  0.00  0.00    +0.175 C 
ATOM      5  N   LIG    1       28.425 -21.304   8.401  0.00  0.00    -0.141 NA
ATOM      6  C   LIG    1       29.242 -20.556   7.709  0.00  0.00    +0.254 C 
ATOM      7  S   LIG    1       28.632 -19.864   6.224  0.00  0.00    -0.011 S 
ENDROOT
BRANCH   1   9
ATOM      8  C   LIG    1       24.679 -22.125   4.978  0.00  0.00    +0.111 C 
ATOM      9  C   LIG    1       24.905 -20.875   5.785  0.00  0.00    +0.235 C 
ATOM     10  O   LIG    1       23.983 -20.326   6.379  0.00  0.00    -0.274 OA
ENDBRANCH   1   9
BRANCH   6  11
ATOM     11  S   LIG    1       30.901 -20.288   8.294  0.00  0.00    +0.081 S 
ATOM     12  O   LIG    1       30.786 -19.675   9.598  0.00  0.00    -0.151 OA
ATOM     13  O   LIG    1       31.629 -19.683   7.200  0.00  0.00    -0.151 OA
BRANCH  11  14
ATOM     14  N   LIG    1       31.590 -21.819   8.543  0.00  0.00    -0.202 NA
ATOM     15  H   LIG    1       30.871 -22.528   8.696  0.00  0.00    +0.144 HD
ATOM     16  H   LIG    1       32.250 -22.059   7.803  0.00  0.00    +0.144 HD
ENDBRANCH  11  14
ENDBRANCH   6  11
TORSDOF 3
ENDMDL
MODEL 2
REMARK VINA RESULT:      -6.5      1.178      1.269
REMARK  Name = *****
REMARK                            x       y       z     vdW  Elec       q    Type
REMARK                         _______ _______ _______ _____ _____    ______ ____
ROOT
ATOM      1  N   LIG    1       25.772 -20.780   5.421  0.00  0.00    -0.155 NA
ATOM      2  C   LIG    1       26.630 -20.627   6.359  0.00  0.00    +0.184 C 
ATOM      3  N   LIG    1       26.788 -20.953   7.696  0.00  0.00    -0.244 N 
ATOM      4  C   LIG    1       25.825 -21.645   8.532  0.00  0.00    +0.175 C 
ATOM      5  N   LIG    1       27.938 -20.536   8.337  0.00  0.00    -0.141 NA
ATOM      6  C   LIG    1       28.692 -19.907   7.478  0.00  0.00    +0.254 C 
ATOM      7  S   LIG    1       28.093 -19.761   5.842  0.00  0.00    -0.011 S 
ENDROOT
BRANCH   1   9
ATOM      8  C   LIG    1       23.478 -20.403   5.975  0.00  0.00    +0.111 C 
ATOM      9  C   LIG    1       24.567 -21.382   5.627  0.00  0.00    +0.235 C 
ATOM     10  O   LIG    1       24.363 -22.590   5.635  0.00  0.00    -0.274 OA
ENDBRANCH   1   9
BRANCH   6  11
ATOM     11  S   LIG    1       30.261 -19.247   7.999  0.00  0.00    +0.081 S 
ATOM     12  O   LIG    1       30.103 -18.847   9.379  0.00  0.00    -0.151 OA
ATOM     13  O   LIG    1       30.689 -18.337   6.958  0.00  0.00    -0.151 OA
BRANCH  11  14
ATOM     14  N   LIG    1       31.364 -20.537   7.997  0.00  0.00    -0.202 NA
ATOM     15  H   LIG    1       32.235 -20.279   8.461  0.00  0.00    +0.144 HD
ATOM     16  H   LIG    1       30.942 -21.391   8.362  0.00  0.00    +0.144 HD
ENDBRANCH  11  14
ENDBRANCH   6  11
TORSDOF 3
ENDMDL
MODEL 3
REMARK VINA RESULT:      -6.2      1.803      2.286
REMARK  Name = *****
REMARK                            x       y       z     vdW  Elec       q    Type
REMARK                         _______ _______ _______ _____ _____    ______ ____
ROOT
ATOM      1  N   LIG    1       24.305 -20.989   7.629  0.00  0.00    -0.155 NA
ATOM      2  C   LIG    1       25.476 -20.692   7.205  0.00  0.00    +0.184 C 
ATOM      3  N   LIG    1       26.118 -20.417   6.008  0.00  0.00    -0.244 N 
ATOM      4  C   LIG    1       25.519 -20.437   4.687  0.00  0.00    +0.175 C 
ATOM      5  N   LIG    1       27.474 -20.157   6.041  0.00  0.00    -0.141 NA
ATOM      6  C   LIG    1       27.879 -20.202   7.281  0.00  0.00    +0.254 C 
ATOM      7  S   LIG    1       26.682 -20.557   8.504  0.00  0.00    -0.011 S 
ENDROOT
BRANCH   1   9
ATOM      8  C   LIG    1       22.913 -22.633   6.594  0.00  0.00    +0.111 C 
ATOM      9  C   LIG    1       23.252 -21.179   6.785  0.00  0.00    +0.235 C 
ATOM     10  O   LIG    1       22.674 -20.302   6.152  0.00  0.00    -0.274 OA
ENDBRANCH   1   9
BRANCH   6  11
ATOM     11  S   LIG    1       29.592 -19.901   7.659  0.00  0.00    +0.081 S 
ATOM     12  O   LIG    1       29.615 -19.069   8.841  0.00  0.00    -0.151 OA
ATOM     13  O   LIG    1       30.226 -19.520   6.416  0.00  0.00    -0.151 OA
BRANCH  11  14
ATOM     14  N   LIG    1       30.268 -21.391   8.109  0.00  0.00    -0.202 NA
ATOM     15  H   LIG    1       31.288 -21.351   8.105  0.00  0.00    +0.144 HD
ATOM     16  H   LIG    1       29.875 -21.732   8.987  0.00  0.00    +0.144 HD
ENDBRANCH  11  14
ENDBRANCH   6  11
TORSDOF 3
ENDMDL
MODEL 4
REMARK VINA RESULT:      -6.1      2.197      5.822
REMARK  Name = *****
REMARK                            x       y       z     vdW  Elec       q    Type
REMARK                         _______ _______ _______ _____ _____    ______ ____
ROOT
ATOM      1  N   LIG    1       29.755 -20.298   8.227  0.00  0.00    -0.155 NA
ATOM      2  C   LIG    1       28.819 -20.246   7.354  0.00  0.00    +0.184 C 
ATOM      3  N   LIG    1       28.525 -19.586   6.172  0.00  0.00    -0.244 N 
ATOM      4  C   LIG    1       29.339 -18.572   5.528  0.00  0.00    +0.175 C 
ATOM      5  N   LIG    1       27.317 -19.854   5.559  0.00  0.00    -0.141 NA
ATOM      6  C   LIG    1       26.683 -20.754   6.259  0.00  0.00    +0.254 C 
ATOM      7  S   LIG    1       27.472 -21.352   7.700  0.00  0.00    -0.011 S 
ENDROOT
BRANCH   1   9
ATOM      8  C   LIG    1       30.678 -18.202   8.911  0.00  0.00    +0.111 C 
ATOM      9  C   LIG    1       30.855 -19.496   8.163  0.00  0.00    +0.235 C 
ATOM     10  O   LIG    1       31.864 -19.717   7.503  0.00  0.00    -0.274 OA
ENDBRANCH   1   9
BRANCH   6  11
ATOM     11  S   LIG    1       25.084 -21.323   5.722  0.00  0.00    +0.081 S 
ATOM     12  O   LIG    1       24.886 -20.801   4.389  0.00  0.00    -0.151 OA
ATOM     13  O   LIG    1       24.169 -21.063   6.813  0.00  0.00    -0.151 OA
BRANCH  11  14
ATOM     14  N   LIG    1       25.186 -23.010   5.568  0.00  0.00    -0.202 NA
ATOM     15  H   LIG    1       24.425 -23.375   4.993  0.00  0.00    +0.144 HD
ATOM     16  H   LIG    1       26.112 -23.303   5.256  0.00  0.00    +0.144 HD
ENDBRANCH  11  14
ENDBRANCH   6  11
TORSDOF 3
ENDMDL
MODEL 5
REMARK VINA RESULT:      -6.1      2.037      2.497
REMARK  Name = *****
REMARK                            x       y       z     vdW  Elec       q    Type
REMARK                         _______ _______ _______ _____ _____    ______ ____
ROOT
ATOM      1  N   LIG    1       26.009 -22.588   7.218  0.00  0.00    -0.155 NA
ATOM      2  C   LIG    1       26.707 -21.580   6.850  0.00  0.00    +0.184 C 
ATOM      3  N   LIG    1       26.659 -20.558   5.916  0.00  0.00    -0.244 N 
ATOM      4  C   LIG    1       25.634 -20.361   4.909  0.00  0.00    +0.175 C 
ATOM      5  N   LIG    1       27.710 -19.662   5.875  0.00  0.00    -0.141 NA
ATOM      6  C   LIG    1       28.565 -19.977   6.810  0.00  0.00    +0.254 C 
ATOM      7  S   LIG    1       28.188 -21.361   7.809  0.00  0.00    -0.011 S 
ENDROOT
BRANCH   1   9
ATOM      8  C   LIG    1       23.628 -22.376   7.232  0.00  0.00    +0.111 C 
ATOM      9  C   LIG    1       24.859 -22.948   6.582  0.00  0.00    +0.235 C 
ATOM     10  O   LIG    1       24.777 -23.727   5.639  0.00  0.00    -0.274 OA
ENDBRANCH   1   9
BRANCH   6  11
ATOM     11  S   LIG    1       30.037 -19.000   7.022  0.00  0.00    +0.081 S 
ATOM     12  O   LIG    1       29.884 -18.287   8.271  0.00  0.00    -0.151 OA
ATOM     13  O   LIG    1       30.274 -18.335   5.759  0.00  0.00    -0.151 OA
BRANCH  11  14
ATOM     14  N   LIG    1       31.322 -20.086   7.245  0.00  0.00    -0.202 NA
ATOM     15  H   LIG    1       31.012 -21.053   7.139  0.00  0.00    +0.144 HD
ATOM     16  H   LIG    1       32.122 -19.846   6.659  0.00  0.00    +0.144 HD
ENDBRANCH  11  14
ENDBRANCH   6  11
TORSDOF 3
ENDMDL
MODEL 6
REMARK VINA RESULT:      -6.0      4.896      5.887
REMARK  Name = *****
REMARK                            x       y       z     vdW  Elec       q    Type
REMARK                         _______ _______ _______ _____ _____    ______ ____
ROOT
ATOM      1  N   LIG    1       23.120 -22.275   6.809  0.00  0.00    -0.155 NA
ATOM      2  C   LIG    1       24.112 -23.075   6.684  0.00  0.00    +0.184 C 
ATOM      3  N   LIG    1       25.496 -23.039   6.716  0.00  0.00    -0.244 N 
ATOM      4  C   LIG    1       26.322 -21.860   6.896  0.00  0.00    +0.175 C 
ATOM      5  N   LIG    1       26.184 -24.216   6.495  0.00  0.00    -0.141 NA
ATOM      6  C   LIG    1       25.320 -25.179   6.321  0.00  0.00    +0.254 C 
ATOM      7  S   LIG    1       23.625 -24.761   6.405  0.00  0.00    -0.011 S 
ENDROOT
BRANCH   1   9
ATOM      8  C   LIG    1       23.059 -20.146   5.724  0.00  0.00    +0.111 C 
ATOM      9  C   LIG    1       23.284 -20.934   6.987  0.00  0.00    +0.235 C 
ATOM     10  O   LIG    1       23.667 -20.389   8.017  0.00  0.00    -0.274 OA
ENDBRANCH   1   9
BRANCH   6  11
ATOM     11  S   LIG    1       25.897 -26.836   6.019  0.00  0.00    +0.081 S 
ATOM     12  O   LIG    1       27.169 -26.714   5.343  0.00  0.00    -0.151 OA
ATOM     13  O   LIG    1       24.777 -27.565   5.465  0.00  0.00    -0.151 OA
BRANCH  11  14
ATOM     14  N   LIG    1       26.222 -27.529   7.534  0.00  0.00    -0.202 NA
ATOM     15  H   LIG    1       26.419 -26.813   8.234  0.00  0.00    +0.144 HD
ATOM     16  H   LIG    1       25.491 -28.183   7.812  0.00  0.00    +0.144 HD
ENDBRANCH  11  14
ENDBRANCH   6  11
TORSDOF 3
ENDMDL
MODEL 7
REMARK VINA RESULT:      -5.6      4.867      6.191
REMARK  Name = *****
REMARK                            x       y       z     vdW  Elec       q    Type
REMARK                         _______ _______ _______ _____ _____    ______ ____
ROOT
ATOM      1  N   LIG    1       24.946 -21.825   6.773  0.00  0.00    -0.155 NA
ATOM      2  C   LIG    1       24.650 -23.065   6.650  0.00  0.00    +0.184 C 
ATOM      3  N   LIG    1       23.525 -23.869   6.565  0.00  0.00    -0.244 N 
ATOM      4  C   LIG    1       22.145 -23.429   6.646  0.00  0.00    +0.175 C 
ATOM      5  N   LIG    1       23.707 -25.234   6.455  0.00  0.00    -0.141 NA
ATOM      6  C   LIG    1       24.987 -25.485   6.424  0.00  0.00    +0.254 C 
ATOM      7  S   LIG    1       26.075 -24.120   6.523  0.00  0.00    -0.011 S 
ENDROOT
BRANCH   1   9
ATOM      8  C   LIG    1       23.568 -20.250   5.618  0.00  0.00    +0.111 C 
ATOM      9  C   LIG    1       23.995 -20.862   6.926  0.00  0.00    +0.235 C 
ATOM     10  O   LIG    1       23.571 -20.437   7.995  0.00  0.00    -0.274 OA
ENDBRANCH   1   9
BRANCH   6  11
ATOM     11  S   LIG    1       25.553 -27.166   6.279  0.00  0.00    +0.081 S 
ATOM     12  O   LIG    1       24.541 -27.880   5.532  0.00  0.00    -0.151 OA
ATOM     13  O   LIG    1       25.988 -27.568   7.599  0.00  0.00    -0.151 OA
BRANCH  11  14
ATOM     14  N   LIG    1       26.940 -27.138   5.301  0.00  0.00    -0.202 NA
ATOM     15  H   LIG    1       27.681 -27.719   5.694  0.00  0.00    +0.144 HD
ATOM     16  H   LIG    1       26.718 -27.359   4.330  0.00  0.00    +0.144 HD
ENDBRANCH  11  14
ENDBRANCH   6  11
TORSDOF 3
ENDMDL
MODEL 8
REMARK VINA RESULT:      -5.5      5.514      6.809
REMARK  Name = *****
REMARK                            x       y       z     vdW  Elec       q    Type
REMARK                         _______ _______ _______ _____ _____    ______ ____
ROOT
ATOM      1  N   LIG    1       25.677 -22.739   6.932  0.00  0.00    -0.155 NA
ATOM      2  C   LIG    1       25.111 -23.866   6.708  0.00  0.00    +0.184 C 
ATOM      3  N   LIG    1       23.836 -24.384   6.554  0.00  0.00    -0.244 N 
ATOM      4  C   LIG    1       22.590 -23.650   6.665  0.00  0.00    +0.175 C 
ATOM      5  N   LIG    1       23.707 -25.742   6.333  0.00  0.00    -0.141 NA
ATOM      6  C   LIG    1       24.898 -26.273   6.286  0.00  0.00    +0.254 C 
ATOM      7  S   LIG    1       26.263 -25.203   6.500  0.00  0.00    -0.011 S 
ENDROOT
BRANCH   1   9
ATOM      8  C   LIG    1       24.842 -20.733   5.935  0.00  0.00    +0.111 C 
ATOM      9  C   LIG    1       24.965 -21.600   7.160  0.00  0.00    +0.235 C 
ATOM     10  O   LIG    1       24.534 -21.230   8.246  0.00  0.00    -0.274 OA
ENDBRANCH   1   9
BRANCH   6  11
ATOM     11  S   LIG    1       25.072 -28.023   6.006  0.00  0.00    +0.081 S 
ATOM     12  O   LIG    1       25.046 -28.654   7.306  0.00  0.00    -0.151 OA
ATOM     13  O   LIG    1       26.167 -28.182   5.074  0.00  0.00    -0.151 OA
BRANCH  11  14
ATOM     14  N   LIG    1       23.671 -28.534   5.196  0.00  0.00    -0.202 NA
ATOM     15  H   LIG    1       22.959 -27.803   5.190  0.00  0.00    +0.144 HD
ATOM     16  H   LIG    1       23.886 -28.903   4.270  0.00  0.00    +0.144 HD
ENDBRANCH  11  14
ENDBRANCH   6  11
TORSDOF 3
ENDMDL
MODEL 9
REMARK VINA RESULT:      -5.4      2.583      5.997
REMARK  Name = *****
REMARK                            x       y       z     vdW  Elec       q    Type
REMARK                         _______ _______ _______ _____ _____    ______ ____
ROOT
ATOM      1  N   LIG    1       28.298 -20.186   6.585  0.00  0.00    -0.155 NA
ATOM      2  C   LIG    1       27.025 -20.323   6.577  0.00  0.00    +0.184 C 
ATOM      3  N   LIG    1       25.988 -20.520   7.474  0.00  0.00    -0.244 N 
ATOM      4  C   LIG    1       26.112 -20.689   8.910  0.00  0.00    +0.175 C 
ATOM      5  N   LIG    1       24.705 -20.632   6.973  0.00  0.00    -0.141 NA
ATOM      6  C   LIG    1       24.749 -20.490   5.676  0.00  0.00    +0.254 C 
ATOM      7  S   LIG    1       26.315 -20.212   4.951  0.00  0.00    -0.011 S 
ENDROOT
BRANCH   1   9
ATOM      8  C   LIG    1       29.580 -18.953   8.182  0.00  0.00    +0.111 C 
ATOM      9  C   LIG    1       29.033 -20.281   7.728  0.00  0.00    +0.235 C 
ATOM     10  O   LIG    1       29.325 -21.320   8.308  0.00  0.00    -0.274 OA
ENDBRANCH   1   9
BRANCH   6  11
ATOM     11  S   LIG    1       23.244 -20.578   4.730  0.00  0.00    +0.081 S 
ATOM     12  O   LIG    1       23.616 -21.005   3.400  0.00  0.00    -0.151 OA
ATOM     13  O   LIG    1       22.523 -19.351   4.990  0.00  0.00    -0.151 OA
BRANCH  11  14
ATOM     14  N   LIG    1       22.315 -21.833   5.395  0.00  0.00    -0.202 NA
ATOM     15  H   LIG    1       21.872 -21.544   6.267  0.00  0.00    +0.144 HD
ATOM     16  H   LIG    1       21.662 -22.219   4.712  0.00  0.00    +0.144 HD
ENDBRANCH  11  14
ENDBRANCH   6  11
TORSDOF 3
ENDMDL
