MODEL 1
REMARK VINA RESULT:      -2.2      0.000      0.000
REMARK  Name = *****
REMARK                            x       y       z     vdW  Elec       q    Type
REMARK                         _______ _______ _______ _____ _____    ______ ____
ROOT
ATOM      1  C   LIG    1       25.347 -14.896   3.496  0.00  0.00    +0.125 A 
ATOM      2  C   LIG    1       24.071 -14.598   3.976  0.00  0.00    +0.069 A 
ATOM      3 CL   LIG    1       23.470 -12.989   4.154  0.00  0.00    -0.082 Cl
ATOM      4  C   LIG    1       23.210 -15.642   4.356  0.00  0.00    +0.047 A 
ATOM      5  C   LIG    1       23.585 -16.988   4.242  0.00  0.00    +0.057 A 
ATOM      6  N   LIG    1       22.738 -17.968   4.755  0.00  0.00    -0.324 N 
ATOM      7  H   LIG    1       21.750 -17.718   4.692  0.00  0.00    +0.148 HD
ATOM      8  C   LIG    1       22.980 -19.387   4.489  0.00  0.00    +0.192 C 
ATOM      9  N   LIG    1       24.393 -19.676   4.762  0.00  0.00    -0.167 NA
ATOM     10  H   LIG    1       24.598 -20.677   4.743  0.00  0.00    +0.150 HD
ATOM     11  S   LIG    1       25.401 -18.913   3.665  0.00  0.00    +0.062 S 
ATOM     12  O   LIG    1       25.058 -19.411   2.353  0.00  0.00    -0.153 OA
ATOM     13  O   LIG    1       26.744 -19.010   4.189  0.00  0.00    -0.153 OA
ATOM     14  C   LIG    1       24.870 -17.247   3.765  0.00  0.00    +0.128 A 
ATOM     15  C   LIG    1       25.754 -16.228   3.390  0.00  0.00    +0.060 A 
ENDROOT
BRANCH   1  16
ATOM     16  S   LIG    1       26.446 -13.592   3.052  0.00  0.00    +0.057 S 
ATOM     17  O   LIG    1       25.701 -12.582   2.341  0.00  0.00    -0.153 OA
ATOM     18  O   LIG    1       27.309 -13.310   4.176  0.00  0.00    -0.153 OA
BRANCH  16  19
ATOM     19  N   LIG    1       27.465 -14.267   1.893  0.00  0.00    -0.203 NA
ATOM     20  H   LIG    1       27.794 -15.176   2.225  0.00  0.00    +0.144 HD
ATOM     21  H   LIG    1       26.969 -14.322   1.001  0.00  0.00    +0.144 HD
ENDBRANCH  16  19
ENDBRANCH   1  16
BRANCH   8  22
ATOM     22  C   LIG    1       22.073 -20.269   5.407  0.00  0.00    +0.207 C 
ATOM     23 CL   LIG    1       23.041 -21.078   6.678  0.00  0.00    -0.101 Cl
ATOM     24 CL   LIG    1       21.210 -21.515   4.452  0.00  0.00    -0.101 Cl
ENDBRANCH   8  22
TORSDOF 3
ENDMDL
MODEL 2
REMARK VINA RESULT:      -0.9      2.954      6.737
REMARK  Name = *****
REMARK                            x       y       z     vdW  Elec       q    Type
REMARK                         _______ _______ _______ _____ _____    ______ ____
ROOT
ATOM      1  C   LIG    1       24.059 -17.906   3.851  0.00  0.00    +0.125 A 
ATOM      2  C   LIG    1       25.392 -18.231   3.600  0.00  0.00    +0.069 A 
ATOM      3 CL   LIG    1       25.961 -19.852   3.421  0.00  0.00    -0.082 Cl
ATOM      4  C   LIG    1       26.350 -17.207   3.494  0.00  0.00    +0.047 A 
ATOM      5  C   LIG    1       26.000 -15.854   3.608  0.00  0.00    +0.057 A 
ATOM      6  N   LIG    1       27.012 -14.898   3.622  0.00  0.00    -0.324 N 
ATOM      7  H   LIG    1       27.820 -15.159   3.056  0.00  0.00    +0.148 HD
ATOM      8  C   LIG    1       26.701 -13.470   3.539  0.00  0.00    +0.192 C 
ATOM      9  N   LIG    1       25.638 -13.169   4.505  0.00  0.00    -0.167 NA
ATOM     10  H   LIG    1       25.476 -12.165   4.608  0.00  0.00    +0.150 HD
ATOM     11  S   LIG    1       24.191 -13.893   4.076  0.00  0.00    +0.062 S 
ATOM     12  O   LIG    1       23.820 -13.370   2.782  0.00  0.00    -0.153 OA
ATOM     13  O   LIG    1       23.315 -13.791   5.220  0.00  0.00    -0.153 OA
ATOM     14  C   LIG    1       24.660 -15.568   3.866  0.00  0.00    +0.128 A 
ATOM     15  C   LIG    1       23.686 -16.566   3.988  0.00  0.00    +0.060 A 
ENDROOT
BRANCH   1  16
ATOM     16  S   LIG    1       22.858 -19.185   4.021  0.00  0.00    +0.057 S 
ATOM     17  O   LIG    1       21.544 -18.591   3.996  0.00  0.00    -0.153 OA
ATOM     18  O   LIG    1       23.250 -20.301   3.192  0.00  0.00    -0.153 OA
BRANCH  16  19
ATOM     19  N   LIG    1       23.047 -19.742   5.599  0.00  0.00    -0.203 NA
ATOM     20  H   LIG    1       23.662 -20.558   5.596  0.00  0.00    +0.144 HD
ATOM     21  H   LIG    1       23.396 -18.980   6.185  0.00  0.00    +0.144 HD
ENDBRANCH  16  19
ENDBRANCH   1  16
BRANCH   8  22
ATOM     22  C   LIG    1       27.971 -12.620   3.867  0.00  0.00    +0.207 C 
ATOM     23 CL   LIG    1       29.428 -13.317   3.092  0.00  0.00    -0.101 Cl
ATOM     24 CL   LIG    1       28.242 -12.525   5.635  0.00  0.00    -0.101 Cl
ENDBRANCH   8  22
TORSDOF 3
ENDMDL
MODEL 3
REMARK VINA RESULT:      -0.2      2.003      6.210
REMARK  Name = *****
REMARK                            x       y       z     vdW  Elec       q    Type
REMARK                         _______ _______ _______ _____ _____    ______ ____
ROOT
ATOM      1  C   LIG    1       24.226 -18.966   3.976  0.00  0.00    +0.125 A 
ATOM      2  C   LIG    1       22.936 -18.541   4.299  0.00  0.00    +0.069 A 
ATOM      3 CL   LIG    1       21.626 -19.622   4.611  0.00  0.00    -0.082 Cl
ATOM      4  C   LIG    1       22.655 -17.166   4.372  0.00  0.00    +0.047 A 
ATOM      5  C   LIG    1       23.644 -16.197   4.152  0.00  0.00    +0.057 A 
ATOM      6  N   LIG    1       23.273 -14.855   4.112  0.00  0.00    -0.324 N 
ATOM      7  H   LIG    1       22.487 -14.636   4.725  0.00  0.00    +0.148 HD
ATOM      8  C   LIG    1       24.281 -13.795   4.086  0.00  0.00    +0.192 C 
ATOM      9  N   LIG    1       25.278 -14.127   3.061  0.00  0.00    -0.167 NA
ATOM     10  H   LIG    1       25.928 -13.358   2.883  0.00  0.00    +0.150 HD
ATOM     11  S   LIG    1       26.168 -15.480   3.483  0.00  0.00    +0.062 S 
ATOM     12  O   LIG    1       26.844 -15.176   4.723  0.00  0.00    -0.153 OA
ATOM     13  O   LIG    1       26.892 -15.892   2.302  0.00  0.00    -0.153 OA
ATOM     14  C   LIG    1       24.918 -16.658   3.824  0.00  0.00    +0.128 A 
ATOM     15  C   LIG    1       25.227 -18.021   3.733  0.00  0.00    +0.060 A 
ENDROOT
BRANCH   1  16
ATOM     16  S   LIG    1       24.578 -20.688   3.848  0.00  0.00    +0.057 S 
ATOM     17  O   LIG    1       24.128 -21.157   2.561  0.00  0.00    -0.153 OA
ATOM     18  O   LIG    1       25.903 -20.929   4.371  0.00  0.00    -0.153 OA
BRANCH  16  19
ATOM     19  N   LIG    1       23.545 -21.420   4.957  0.00  0.00    -0.203 NA
ATOM     20  H   LIG    1       23.996 -22.255   5.337  0.00  0.00    +0.144 HD
ATOM     21  H   LIG    1       23.289 -20.741   5.677  0.00  0.00    +0.144 HD
ENDBRANCH  16  19
ENDBRANCH   1  16
BRANCH   8  22
ATOM     22  C   LIG    1       23.613 -12.422   3.748  0.00  0.00    +0.207 C 
ATOM     23 CL   LIG    1       24.617 -11.486   2.598  0.00  0.00    -0.101 Cl
ATOM     24 CL   LIG    1       23.362 -11.447   5.230  0.00  0.00    -0.101 Cl
ENDBRANCH   8  22
TORSDOF 3
ENDMDL
