MODEL 1
REMARK VINA RESULT:      -8.1      0.000      0.000
REMARK  Name = *****
REMARK                            x       y       z     vdW  Elec       q    Type
REMARK                         _______ _______ _______ _____ _____    ______ ____
ROOT
ATOM      1  C   LIG    1       25.796 -28.309   7.690  0.00  0.00    +0.221 A 
ATOM      2  N   LIG    1       24.978 -29.004   6.897  0.00  0.00    -0.180 NA
ATOM      3  C   LIG    1       24.327 -28.321   5.970  0.00  0.00    +0.216 A 
ATOM      4  N   LIG    1       24.432 -27.008   5.786  0.00  0.00    -0.214 NA
ATOM      5  C   LIG    1       25.212 -26.304   6.638  0.00  0.00    +0.080 A 
ATOM      6  C   LIG    1       25.922 -26.944   7.642  0.00  0.00    +0.095 A 
ENDROOT
BRANCH   5   7
ATOM      7  C   LIG    1       25.273 -24.839   6.381  0.00  0.00    +0.001 A 
ATOM      8  C   LIG    1       25.888 -23.953   7.291  0.00  0.00    +0.010 A 
ATOM      9  C   LIG    1       25.941 -22.570   7.059  0.00  0.00    +0.004 A 
ATOM     10  C   LIG    1       25.377 -22.022   5.902  0.00  0.00    -0.045 A 
ATOM     11  C   LIG    1       24.761 -22.881   4.992  0.00  0.00    +0.004 A 
ATOM     12  C   LIG    1       24.719 -24.260   5.227  0.00  0.00    +0.010 A 
BRANCH  10  13
ATOM     13  C   LIG    1       25.409 -20.533   5.638  0.00  0.00    +0.065 C 
BRANCH  13  14
ATOM     14  CA  LIG    1       24.710 -20.141   4.328  0.00  0.00    +0.165 C 
BRANCH  14  15
ATOM     15  N   LIG    1       25.549 -19.204   3.536  0.00  0.00    -0.318 NA
ATOM     16  H1  LIG    1       26.118 -18.642   4.171  0.00  0.00    +0.119 HD
ATOM     17  H2  LIG    1       26.231 -19.757   3.007  0.00  0.00    +0.119 HD
ENDBRANCH  14  15
BRANCH  14  18
ATOM     18  C   LIG    1       23.364 -19.483   4.638  0.00  0.00    +0.322 C 
ATOM     19  O   LIG    1       22.856 -18.598   3.932  0.00  0.00    -0.249 OA
BRANCH  18  20
ATOM     20  OXT LIG    1       22.747 -19.955   5.738  0.00  0.00    -0.479 OA
ATOM     21  HXT LIG    1       22.770 -19.342   6.502  0.00  0.00    +0.295 HD
ENDBRANCH  18  20
ENDBRANCH  14  18
ENDBRANCH  13  14
ENDBRANCH  10  13
ENDBRANCH   5   7
BRANCH   3  22
ATOM     22  N   LIG    1       23.571 -29.049   5.076  0.00  0.00    -0.327 N 
ATOM     23  H   LIG    1       22.886 -29.590   5.589  0.00  0.00    +0.145 HD
ATOM     24  H   LIG    1       24.190 -29.562   4.465  0.00  0.00    +0.145 HD
ENDBRANCH   3  22
BRANCH   1  25
ATOM     25  O   LIG    1       26.583 -29.008   8.589  0.00  0.00    -0.459 OA
BRANCH  25  26
ATOM     26  C   LIG    1       25.773 -29.688   9.608  0.00  0.00    +0.311 C 
BRANCH  26  28
ATOM     27  C   LIG    1       24.795 -29.064  11.960  0.00  0.00    +0.074 A 
ATOM     28  C   LIG    1       25.804 -28.944  10.962  0.00  0.00    +0.027 A 
ATOM     29  C   LIG    1       26.834 -27.994  11.195  0.00  0.00    +0.011 A 
ATOM     30  C   LIG    1       26.827 -27.145  12.309  0.00  0.00    +0.020 A 
ATOM     31  C   LIG    1       25.813 -27.252  13.245  0.00  0.00    +0.043 A 
ATOM     32 CL   LIG    1       25.760 -26.182  14.591  0.00  0.00    -0.084 Cl
ATOM     33  C   LIG    1       24.820 -28.212  13.089  0.00  0.00    +0.048 A 
BRANCH  27  37
ATOM     34  C   LIG    1       20.388 -30.804  10.836  0.00  0.00    +0.067 C 
ATOM     35  C   LIG    1       21.754 -30.746  11.412  0.00  0.00    +0.060 A 
ATOM     36  N   LIG    1       22.565 -29.704  11.189  0.00  0.00    -0.172 NA
ATOM     37  N   LIG    1       23.695 -29.976  11.885  0.00  0.00    -0.239 N 
ATOM     38  C   LIG    1       23.604 -31.208  12.503  0.00  0.00    +0.115 A 
ATOM     39  C   LIG    1       22.372 -31.730  12.205  0.00  0.00    +0.044 A 
ENDBRANCH  27  37
ENDBRANCH  26  28
BRANCH  26  40
ATOM     40  C   LIG    1       26.116 -31.197   9.599  0.00  0.00    +0.431 C 
ATOM     41  F   LIG    1       25.059 -31.970   9.241  0.00  0.00    -0.167 F 
ATOM     42  F   LIG    1       26.471 -31.606  10.848  0.00  0.00    -0.167 F 
ATOM     43  F   LIG    1       27.131 -31.523   8.767  0.00  0.00    -0.167 F 
ENDBRANCH  26  40
ENDBRANCH  25  26
ENDBRANCH   1  25
TORSDOF 12
ENDMDL
MODEL 2
REMARK VINA RESULT:      -7.9      2.234      2.994
REMARK  Name = *****
REMARK                            x       y       z     vdW  Elec       q    Type
REMARK                         _______ _______ _______ _____ _____    ______ ____
ROOT
ATOM      1  C   LIG    1       25.057 -30.506   7.950  0.00  0.00    +0.221 A 
ATOM      2  N   LIG    1       25.064 -31.240   6.834  0.00  0.00    -0.180 NA
ATOM      3  C   LIG    1       25.085 -30.578   5.689  0.00  0.00    +0.216 A 
ATOM      4  N   LIG    1       25.093 -29.253   5.581  0.00  0.00    -0.214 NA
ATOM      5  C   LIG    1       25.018 -28.520   6.716  0.00  0.00    +0.080 A 
ATOM      6  C   LIG    1       24.985 -29.136   7.957  0.00  0.00    +0.095 A 
ENDROOT
BRANCH   5   7
ATOM      7  C   LIG    1       25.020 -27.044   6.520  0.00  0.00    +0.001 A 
ATOM      8  C   LIG    1       26.002 -26.221   7.111  0.00  0.00    +0.010 A 
ATOM      9  C   LIG    1       26.005 -24.828   6.938  0.00  0.00    +0.004 A 
ATOM     10  C   LIG    1       25.019 -24.207   6.165  0.00  0.00    -0.045 A 
ATOM     11  C   LIG    1       24.037 -25.003   5.576  0.00  0.00    +0.004 A 
ATOM     12  C   LIG    1       24.045 -26.393   5.746  0.00  0.00    +0.010 A 
BRANCH  10  13
ATOM     13  C   LIG    1       24.994 -22.706   5.977  0.00  0.00    +0.065 C 
BRANCH  13  14
ATOM     14  CA  LIG    1       24.344 -21.965   7.155  0.00  0.00    +0.165 C 
BRANCH  14  15
ATOM     15  N   LIG    1       23.299 -21.022   6.679  0.00  0.00    -0.318 NA
ATOM     16  H1  LIG    1       22.544 -20.980   7.366  0.00  0.00    +0.119 HD
ATOM     17  H2  LIG    1       23.697 -20.078   6.681  0.00  0.00    +0.119 HD
ENDBRANCH  14  15
BRANCH  14  18
ATOM     18  C   LIG    1       25.412 -21.194   7.932  0.00  0.00    +0.322 C 
ATOM     19  O   LIG    1       25.584 -21.308   9.155  0.00  0.00    -0.249 OA
BRANCH  18  20
ATOM     20  OXT LIG    1       26.180 -20.384   7.180  0.00  0.00    -0.479 OA
ATOM     21  HXT LIG    1       27.105 -20.691   7.080  0.00  0.00    +0.295 HD
ENDBRANCH  18  20
ENDBRANCH  14  18
ENDBRANCH  13  14
ENDBRANCH  10  13
ENDBRANCH   5   7
BRANCH   3  22
ATOM     22  N   LIG    1       25.209 -31.329   4.539  0.00  0.00    -0.327 N 
ATOM     23  H   LIG    1       24.760 -30.838   3.776  0.00  0.00    +0.145 HD
ATOM     24  H   LIG    1       24.889 -32.269   4.725  0.00  0.00    +0.145 HD
ENDBRANCH   3  22
BRANCH   1  25
ATOM     25  O   LIG    1       25.157 -31.164   9.163  0.00  0.00    -0.459 OA
BRANCH  25  26
ATOM     26  C   LIG    1       23.847 -31.327   9.805  0.00  0.00    +0.311 C 
BRANCH  26  28
ATOM     27  C   LIG    1       22.422 -30.130  11.653  0.00  0.00    +0.074 A 
ATOM     28  C   LIG    1       23.666 -30.364  11.001  0.00  0.00    +0.027 A 
ATOM     29  C   LIG    1       24.771 -29.572  11.413  0.00  0.00    +0.011 A 
ATOM     30  C   LIG    1       24.641 -28.545  12.357  0.00  0.00    +0.020 A 
ATOM     31  C   LIG    1       23.412 -28.309  12.947  0.00  0.00    +0.043 A 
ATOM     32 CL   LIG    1       23.223 -27.018  14.068  0.00  0.00    -0.084 Cl
ATOM     33  C   LIG    1       22.318 -29.102  12.620  0.00  0.00    +0.048 A 
BRANCH  27  37
ATOM     34  C   LIG    1       18.190 -31.251   9.519  0.00  0.00    +0.067 C 
ATOM     35  C   LIG    1       19.346 -31.338  10.446  0.00  0.00    +0.060 A 
ATOM     36  N   LIG    1       20.381 -30.494  10.356  0.00  0.00    -0.172 NA
ATOM     37  N   LIG    1       21.216 -30.844  11.364  0.00  0.00    -0.239 N 
ATOM     38  C   LIG    1       20.722 -31.936  12.051  0.00  0.00    +0.115 A 
ATOM     39  C   LIG    1       19.527 -32.282  11.473  0.00  0.00    +0.044 A 
ENDBRANCH  27  37
ENDBRANCH  26  28
BRANCH  26  40
ATOM     40  C   LIG    1       23.586 -32.833  10.039  0.00  0.00    +0.431 C 
ATOM     41  F   LIG    1       23.657 -33.178  11.351  0.00  0.00    -0.167 F 
ATOM     42  F   LIG    1       24.533 -33.579   9.406  0.00  0.00    -0.167 F 
ATOM     43  F   LIG    1       22.381 -33.257   9.594  0.00  0.00    -0.167 F 
ENDBRANCH  26  40
ENDBRANCH  25  26
ENDBRANCH   1  25
TORSDOF 12
ENDMDL
MODEL 3
REMARK VINA RESULT:      -7.8      1.584      3.078
REMARK  Name = *****
REMARK                            x       y       z     vdW  Elec       q    Type
REMARK                         _______ _______ _______ _____ _____    ______ ____
ROOT
ATOM      1  C   LIG    1       25.633 -28.356   7.699  0.00  0.00    +0.221 A 
ATOM      2  N   LIG    1       24.906 -29.045   6.816  0.00  0.00    -0.180 NA
ATOM      3  C   LIG    1       24.360 -28.354   5.829  0.00  0.00    +0.216 A 
ATOM      4  N   LIG    1       24.482 -27.039   5.669  0.00  0.00    -0.214 NA
ATOM      5  C   LIG    1       25.165 -26.342   6.607  0.00  0.00    +0.080 A 
ATOM      6  C   LIG    1       25.762 -26.991   7.676  0.00  0.00    +0.095 A 
ENDROOT
BRANCH   5   7
ATOM      7  C   LIG    1       25.252 -24.876   6.370  0.00  0.00    +0.001 A 
ATOM      8  C   LIG    1       25.866 -24.011   7.301  0.00  0.00    +0.010 A 
ATOM      9  C   LIG    1       25.943 -22.626   7.088  0.00  0.00    +0.004 A 
ATOM     10  C   LIG    1       25.405 -22.054   5.931  0.00  0.00    -0.045 A 
ATOM     11  C   LIG    1       24.791 -22.891   5.000  0.00  0.00    +0.004 A 
ATOM     12  C   LIG    1       24.724 -24.273   5.216  0.00  0.00    +0.010 A 
BRANCH  10  13
ATOM     13  C   LIG    1       25.465 -20.562   5.687  0.00  0.00    +0.065 C 
BRANCH  13  14
ATOM     14  CA  LIG    1       24.857 -20.151   4.338  0.00  0.00    +0.165 C 
BRANCH  14  15
ATOM     15  N   LIG    1       25.722 -19.162   3.643  0.00  0.00    -0.318 NA
ATOM     16  H1  LIG    1       25.580 -19.239   2.635  0.00  0.00    +0.119 HD
ATOM     17  H2  LIG    1       25.384 -18.223   3.877  0.00  0.00    +0.119 HD
ENDBRANCH  14  15
BRANCH  14  18
ATOM     18  C   LIG    1       23.469 -19.547   4.560  0.00  0.00    +0.322 C 
ATOM     19  O   LIG    1       22.625 -20.034   5.328  0.00  0.00    -0.249 OA
BRANCH  18  20
ATOM     20  OXT LIG    1       23.229 -18.417   3.868  0.00  0.00    -0.479 OA
ATOM     21  HXT LIG    1       22.652 -18.544   3.086  0.00  0.00    +0.295 HD
ENDBRANCH  18  20
ENDBRANCH  14  18
ENDBRANCH  13  14
ENDBRANCH  10  13
ENDBRANCH   5   7
BRANCH   3  22
ATOM     22  N   LIG    1       23.705 -29.074   4.853  0.00  0.00    -0.327 N 
ATOM     23  H   LIG    1       23.144 -29.791   5.293  0.00  0.00    +0.145 HD
ATOM     24  H   LIG    1       24.379 -29.383   4.167  0.00  0.00    +0.145 HD
ENDBRANCH   3  22
BRANCH   1  25
ATOM     25  O   LIG    1       26.318 -29.063   8.672  0.00  0.00    -0.459 OA
BRANCH  25  26
ATOM     26  C   LIG    1       25.653 -30.333   8.992  0.00  0.00    +0.311 C 
BRANCH  26  28
ATOM     27  C   LIG    1       24.591 -29.666  11.295  0.00  0.00    +0.074 A 
ATOM     28  C   LIG    1       24.462 -30.135   9.956  0.00  0.00    +0.027 A 
ATOM     29  C   LIG    1       23.169 -30.546   9.537  0.00  0.00    +0.011 A 
ATOM     30  C   LIG    1       22.076 -30.576  10.413  0.00  0.00    +0.020 A 
ATOM     31  C   LIG    1       22.235 -30.155  11.721  0.00  0.00    +0.043 A 
ATOM     32 CL   LIG    1       20.917 -30.236  12.824  0.00  0.00    -0.084 Cl
ATOM     33  C   LIG    1       23.468 -29.684  12.156  0.00  0.00    +0.048 A 
BRANCH  27  37
ATOM     34  C   LIG    1       28.703 -29.730  13.903  0.00  0.00    +0.067 C 
ATOM     35  C   LIG    1       27.619 -29.217  13.029  0.00  0.00    +0.060 A 
ATOM     36  N   LIG    1       26.624 -30.009  12.609  0.00  0.00    -0.172 NA
ATOM     37  N   LIG    1       25.817 -29.208  11.872  0.00  0.00    -0.239 N 
ATOM     38  C   LIG    1       26.336 -27.930  11.794  0.00  0.00    +0.115 A 
ATOM     39  C   LIG    1       27.500 -27.912  12.518  0.00  0.00    +0.044 A 
ENDBRANCH  27  37
ENDBRANCH  26  28
BRANCH  26  40
ATOM     40  C   LIG    1       26.727 -31.381   9.369  0.00  0.00    +0.431 C 
ATOM     41  F   LIG    1       27.166 -32.087   8.295  0.00  0.00    -0.167 F 
ATOM     42  F   LIG    1       26.207 -32.299  10.229  0.00  0.00    -0.167 F 
ATOM     43  F   LIG    1       27.824 -30.855   9.959  0.00  0.00    -0.167 F 
ENDBRANCH  26  40
ENDBRANCH  25  26
ENDBRANCH   1  25
TORSDOF 12
ENDMDL
MODEL 4
REMARK VINA RESULT:      -7.4      1.948      2.550
REMARK  Name = *****
REMARK                            x       y       z     vdW  Elec       q    Type
REMARK                         _______ _______ _______ _____ _____    ______ ____
ROOT
ATOM      1  C   LIG    1       25.773 -30.569   7.960  0.00  0.00    +0.221 A 
ATOM      2  N   LIG    1       25.495 -31.337   6.904  0.00  0.00    -0.180 NA
ATOM      3  C   LIG    1       25.147 -30.713   5.791  0.00  0.00    +0.216 A 
ATOM      4  N   LIG    1       25.052 -29.392   5.663  0.00  0.00    -0.214 NA
ATOM      5  C   LIG    1       25.271 -28.627   6.758  0.00  0.00    +0.080 A 
ATOM      6  C   LIG    1       25.633 -29.204   7.964  0.00  0.00    +0.095 A 
ENDROOT
BRANCH   5   7
ATOM      7  C   LIG    1       25.137 -27.161   6.544  0.00  0.00    +0.001 A 
ATOM      8  C   LIG    1       24.048 -26.613   5.832  0.00  0.00    +0.010 A 
ATOM      9  C   LIG    1       23.919 -25.232   5.620  0.00  0.00    +0.004 A 
ATOM     10  C   LIG    1       24.882 -24.345   6.113  0.00  0.00    -0.045 A 
ATOM     11  C   LIG    1       25.967 -24.867   6.816  0.00  0.00    +0.004 A 
ATOM     12  C   LIG    1       26.085 -26.245   7.031  0.00  0.00    +0.010 A 
BRANCH  10  13
ATOM     13  C   LIG    1       24.771 -22.854   5.883  0.00  0.00    +0.065 C 
BRANCH  13  14
ATOM     14  CA  LIG    1       25.018 -22.031   7.157  0.00  0.00    +0.165 C 
BRANCH  14  15
ATOM     15  N   LIG    1       23.756 -21.421   7.649  0.00  0.00    -0.318 NA
ATOM     16  H1  LIG    1       23.902 -21.056   8.592  0.00  0.00    +0.119 HD
ATOM     17  H2  LIG    1       23.562 -20.589   7.083  0.00  0.00    +0.119 HD
ENDBRANCH  14  15
BRANCH  14  18
ATOM     18  C   LIG    1       26.040 -20.930   6.870  0.00  0.00    +0.322 C 
ATOM     19  O   LIG    1       26.554 -20.227   7.754  0.00  0.00    -0.249 OA
BRANCH  18  20
ATOM     20  OXT LIG    1       26.365 -20.787   5.571  0.00  0.00    -0.479 OA
ATOM     21  HXT LIG    1       26.282 -21.611   5.048  0.00  0.00    +0.295 HD
ENDBRANCH  18  20
ENDBRANCH  14  18
ENDBRANCH  13  14
ENDBRANCH  10  13
ENDBRANCH   5   7
BRANCH   3  22
ATOM     22  N   LIG    1       24.971 -31.493   4.669  0.00  0.00    -0.327 N 
ATOM     23  H   LIG    1       24.190 -32.119   4.822  0.00  0.00    +0.145 HD
ATOM     24  H   LIG    1       25.853 -31.920   4.425  0.00  0.00    +0.145 HD
ENDBRANCH   3  22
BRANCH   1  25
ATOM     25  O   LIG    1       26.258 -31.182   9.102  0.00  0.00    -0.459 OA
BRANCH  25  26
ATOM     26  C   LIG    1       25.313 -31.075  10.222  0.00  0.00    +0.311 C 
BRANCH  26  28
ATOM     27  C   LIG    1       24.717 -29.181  11.935  0.00  0.00    +0.074 A 
ATOM     28  C   LIG    1       25.673 -29.910  11.172  0.00  0.00    +0.027 A 
ATOM     29  C   LIG    1       27.017 -29.453  11.212  0.00  0.00    +0.011 A 
ATOM     30  C   LIG    1       27.388 -28.289  11.898  0.00  0.00    +0.020 A 
ATOM     31  C   LIG    1       26.434 -27.574  12.599  0.00  0.00    +0.043 A 
ATOM     32 CL   LIG    1       26.862 -26.114  13.403  0.00  0.00    -0.084 Cl
ATOM     33  C   LIG    1       25.119 -28.021  12.639  0.00  0.00    +0.048 A 
BRANCH  27  37
ATOM     34  C   LIG    1       20.315 -30.713  10.525  0.00  0.00    +0.067 C 
ATOM     35  C   LIG    1       21.383 -30.167  11.398  0.00  0.00    +0.060 A 
ATOM     36  N   LIG    1       22.652 -30.077  10.980  0.00  0.00    -0.172 NA
ATOM     37  N   LIG    1       23.328 -29.512  12.011  0.00  0.00    -0.239 N 
ATOM     38  C   LIG    1       22.488 -29.296  13.086  0.00  0.00    +0.115 A 
ATOM     39  C   LIG    1       21.235 -29.720  12.723  0.00  0.00    +0.044 A 
ENDBRANCH  27  37
ENDBRANCH  26  28
BRANCH  26  40
ATOM     40  C   LIG    1       25.103 -32.478  10.838  0.00  0.00    +0.431 C 
ATOM     41  F   LIG    1       23.897 -33.013  10.517  0.00  0.00    -0.167 F 
ATOM     42  F   LIG    1       25.127 -32.403  12.197  0.00  0.00    -0.167 F 
ATOM     43  F   LIG    1       26.036 -33.384  10.471  0.00  0.00    -0.167 F 
ENDBRANCH  26  40
ENDBRANCH  25  26
ENDBRANCH   1  25
TORSDOF 12
ENDMDL
MODEL 5
REMARK VINA RESULT:      -7.4      2.315      3.653
REMARK  Name = *****
REMARK                            x       y       z     vdW  Elec       q    Type
REMARK                         _______ _______ _______ _____ _____    ______ ____
ROOT
ATOM      1  C   LIG    1       25.419 -30.278   8.069  0.00  0.00    +0.221 A 
ATOM      2  N   LIG    1       25.368 -31.049   6.980  0.00  0.00    -0.180 NA
ATOM      3  C   LIG    1       25.262 -30.427   5.817  0.00  0.00    +0.216 A 
ATOM      4  N   LIG    1       25.198 -29.106   5.669  0.00  0.00    -0.214 NA
ATOM      5  C   LIG    1       25.183 -28.339   6.784  0.00  0.00    +0.080 A 
ATOM      6  C   LIG    1       25.283 -28.913   8.041  0.00  0.00    +0.095 A 
ENDROOT
BRANCH   5   7
ATOM      7  C   LIG    1       25.098 -26.873   6.544  0.00  0.00    +0.001 A 
ATOM      8  C   LIG    1       26.059 -25.981   7.066  0.00  0.00    +0.010 A 
ATOM      9  C   LIG    1       25.981 -24.596   6.852  0.00  0.00    +0.004 A 
ATOM     10  C   LIG    1       24.931 -24.052   6.104  0.00  0.00    -0.045 A 
ATOM     11  C   LIG    1       23.969 -24.917   5.582  0.00  0.00    +0.004 A 
ATOM     12  C   LIG    1       24.058 -26.298   5.794  0.00  0.00    +0.010 A 
BRANCH  10  13
ATOM     13  C   LIG    1       24.819 -22.562   5.872  0.00  0.00    +0.065 C 
BRANCH  13  14
ATOM     14  CA  LIG    1       24.410 -21.788   7.135  0.00  0.00    +0.165 C 
BRANCH  14  15
ATOM     15  N   LIG    1       23.287 -20.858   6.849  0.00  0.00    -0.318 NA
ATOM     16  H1  LIG    1       22.848 -20.577   7.728  0.00  0.00    +0.119 HD
ATOM     17  H2  LIG    1       23.681 -19.989   6.473  0.00  0.00    +0.119 HD
ENDBRANCH  14  15
BRANCH  14  18
ATOM     18  C   LIG    1       25.607 -20.996   7.665  0.00  0.00    +0.322 C 
ATOM     19  O   LIG    1       26.588 -20.692   6.970  0.00  0.00    -0.249 OA
BRANCH  18  20
ATOM     20  OXT LIG    1       25.509 -20.626   8.956  0.00  0.00    -0.479 OA
ATOM     21  HXT LIG    1       25.101 -21.303   9.534  0.00  0.00    +0.295 HD
ENDBRANCH  18  20
ENDBRANCH  14  18
ENDBRANCH  13  14
ENDBRANCH  10  13
ENDBRANCH   5   7
BRANCH   3  22
ATOM     22  N   LIG    1       25.325 -31.210   4.685  0.00  0.00    -0.327 N 
ATOM     23  H   LIG    1       25.618 -32.143   4.945  0.00  0.00    +0.145 HD
ATOM     24  H   LIG    1       25.885 -30.736   3.989  0.00  0.00    +0.145 HD
ENDBRANCH   3  22
BRANCH   1  25
ATOM     25  O   LIG    1       25.652 -30.889   9.289  0.00  0.00    -0.459 OA
BRANCH  25  26
ATOM     26  C   LIG    1       24.460 -31.588   9.786  0.00  0.00    +0.311 C 
BRANCH  26  28
ATOM     27  C   LIG    1       23.965 -29.735  11.574  0.00  0.00    +0.074 A 
ATOM     28  C   LIG    1       23.522 -30.643  10.571  0.00  0.00    +0.027 A 
ATOM     29  C   LIG    1       22.120 -30.755  10.373  0.00  0.00    +0.011 A 
ATOM     30  C   LIG    1       21.197 -30.073  11.178  0.00  0.00    +0.020 A 
ATOM     31  C   LIG    1       21.652 -29.228  12.174  0.00  0.00    +0.043 A 
ATOM     32 CL   LIG    1       20.533 -28.424  13.205  0.00  0.00    -0.084 Cl
ATOM     33  C   LIG    1       23.016 -29.040  12.360  0.00  0.00    +0.048 A 
BRANCH  27  37
ATOM     34  C   LIG    1       28.233 -30.101  13.891  0.00  0.00    +0.067 C 
ATOM     35  C   LIG    1       27.216 -29.637  12.915  0.00  0.00    +0.060 A 
ATOM     36  N   LIG    1       25.994 -30.181  12.864  0.00  0.00    -0.172 NA
ATOM     37  N   LIG    1       25.339 -29.498  11.894  0.00  0.00    -0.239 N 
ATOM     38  C   LIG    1       26.170 -28.562  11.309  0.00  0.00    +0.115 A 
ATOM     39  C   LIG    1       27.386 -28.639  11.938  0.00  0.00    +0.044 A 
ENDBRANCH  27  37
ENDBRANCH  26  28
BRANCH  26  40
ATOM     40  C   LIG    1       24.896 -32.908  10.464  0.00  0.00    +0.431 C 
ATOM     41  F   LIG    1       23.879 -33.515  11.127  0.00  0.00    -0.167 F 
ATOM     42  F   LIG    1       25.856 -32.662  11.397  0.00  0.00    -0.167 F 
ATOM     43  F   LIG    1       25.398 -33.825   9.606  0.00  0.00    -0.167 F 
ENDBRANCH  26  40
ENDBRANCH  25  26
ENDBRANCH   1  25
TORSDOF 12
ENDMDL
MODEL 6
REMARK VINA RESULT:      -7.4      5.092     10.065
REMARK  Name = *****
REMARK                            x       y       z     vdW  Elec       q    Type
REMARK                         _______ _______ _______ _____ _____    ______ ____
ROOT
ATOM      1  C   LIG    1       25.569 -23.997   6.948  0.00  0.00    +0.221 A 
ATOM      2  N   LIG    1       24.349 -23.493   6.751  0.00  0.00    -0.180 NA
ATOM      3  C   LIG    1       23.392 -24.356   6.450  0.00  0.00    +0.216 A 
ATOM      4  N   LIG    1       23.568 -25.668   6.328  0.00  0.00    -0.214 NA
ATOM      5  C   LIG    1       24.822 -26.159   6.463  0.00  0.00    +0.080 A 
ATOM      6  C   LIG    1       25.882 -25.321   6.771  0.00  0.00    +0.095 A 
ENDROOT
BRANCH   5   7
ATOM      7  C   LIG    1       24.947 -27.633   6.302  0.00  0.00    +0.001 A 
ATOM      8  C   LIG    1       24.896 -28.506   7.410  0.00  0.00    +0.010 A 
ATOM      9  C   LIG    1       25.023 -29.896   7.267  0.00  0.00    +0.004 A 
ATOM     10  C   LIG    1       25.206 -30.465   6.003  0.00  0.00    -0.045 A 
ATOM     11  C   LIG    1       25.263 -29.620   4.895  0.00  0.00    +0.004 A 
ATOM     12  C   LIG    1       25.129 -28.234   5.045  0.00  0.00    +0.010 A 
BRANCH  10  13
ATOM     13  C   LIG    1       25.359 -31.960   5.826  0.00  0.00    +0.065 C 
BRANCH  13  14
ATOM     14  CA  LIG    1       25.589 -32.370   4.363  0.00  0.00    +0.165 C 
BRANCH  14  15
ATOM     15  N   LIG    1       24.448 -33.172   3.849  0.00  0.00    -0.318 NA
ATOM     16  H1  LIG    1       23.742 -32.544   3.461  0.00  0.00    +0.119 HD
ATOM     17  H2  LIG    1       24.777 -33.713   3.044  0.00  0.00    +0.119 HD
ENDBRANCH  14  15
BRANCH  14  18
ATOM     18  C   LIG    1       26.878 -33.187   4.253  0.00  0.00    +0.322 C 
ATOM     19  O   LIG    1       27.388 -33.517   3.171  0.00  0.00    -0.249 OA
BRANCH  18  20
ATOM     20  OXT LIG    1       27.443 -33.510   5.431  0.00  0.00    -0.479 OA
ATOM     21  HXT LIG    1       27.775 -34.430   5.475  0.00  0.00    +0.295 HD
ENDBRANCH  18  20
ENDBRANCH  14  18
ENDBRANCH  13  14
ENDBRANCH  10  13
ENDBRANCH   5   7
BRANCH   3  22
ATOM     22  N   LIG    1       22.110 -23.856   6.359  0.00  0.00    -0.327 N 
ATOM     23  H   LIG    1       21.686 -24.193   5.505  0.00  0.00    +0.145 HD
ATOM     24  H   LIG    1       22.139 -22.855   6.488  0.00  0.00    +0.145 HD
ENDBRANCH   3  22
BRANCH   1  25
ATOM     25  O   LIG    1       26.566 -23.141   7.383  0.00  0.00    -0.459 OA
BRANCH  25  26
ATOM     26  C   LIG    1       26.104 -21.748   7.432  0.00  0.00    +0.311 C 
BRANCH  26  28
ATOM     27  C   LIG    1       26.940 -19.967   5.699  0.00  0.00    +0.074 A 
ATOM     28  C   LIG    1       27.152 -20.770   6.855  0.00  0.00    +0.027 A 
ATOM     29  C   LIG    1       28.450 -20.743   7.433  0.00  0.00    +0.011 A 
ATOM     30  C   LIG    1       29.508 -20.029   6.854  0.00  0.00    +0.020 A 
ATOM     31  C   LIG    1       29.287 -19.289   5.707  0.00  0.00    +0.043 A 
ATOM     32 CL   LIG    1       30.588 -18.450   4.954  0.00  0.00    -0.084 Cl
ATOM     33  C   LIG    1       28.018 -19.237   5.144  0.00  0.00    +0.048 A 
BRANCH  27  37
ATOM     34  C   LIG    1       22.187 -20.486   4.774  0.00  0.00    +0.067 C 
ATOM     35  C   LIG    1       23.609 -20.112   4.576  0.00  0.00    +0.060 A 
ATOM     36  N   LIG    1       24.522 -20.291   5.539  0.00  0.00    -0.172 NA
ATOM     37  N   LIG    1       25.694 -19.874   5.002  0.00  0.00    -0.239 N 
ATOM     38  C   LIG    1       25.501 -19.393   3.722  0.00  0.00    +0.115 A 
ATOM     39  C   LIG    1       24.168 -19.522   3.428  0.00  0.00    +0.044 A 
ENDBRANCH  27  37
ENDBRANCH  26  28
BRANCH  26  40
ATOM     40  C   LIG    1       25.536 -21.456   8.841  0.00  0.00    +0.431 C 
ATOM     41  F   LIG    1       25.855 -22.421   9.742  0.00  0.00    -0.167 F 
ATOM     42  F   LIG    1       24.175 -21.419   8.802  0.00  0.00    -0.167 F 
ATOM     43  F   LIG    1       25.953 -20.284   9.369  0.00  0.00    -0.167 F 
ENDBRANCH  26  40
ENDBRANCH  25  26
ENDBRANCH   1  25
TORSDOF 12
ENDMDL
MODEL 7
REMARK VINA RESULT:      -7.2      4.230     10.110
REMARK  Name = *****
REMARK                            x       y       z     vdW  Elec       q    Type
REMARK                         _______ _______ _______ _____ _____    ______ ____
ROOT
ATOM      1  C   LIG    1       25.681 -25.104   6.702  0.00  0.00    +0.221 A 
ATOM      2  N   LIG    1       25.750 -25.071   5.369  0.00  0.00    -0.180 NA
ATOM      3  C   LIG    1       25.577 -26.220   4.737  0.00  0.00    +0.216 A 
ATOM      4  N   LIG    1       25.350 -27.386   5.337  0.00  0.00    -0.214 NA
ATOM      5  C   LIG    1       25.349 -27.418   6.690  0.00  0.00    +0.080 A 
ATOM      6  C   LIG    1       25.530 -26.259   7.426  0.00  0.00    +0.095 A 
ENDROOT
BRANCH   5   7
ATOM      7  C   LIG    1       25.100 -28.756   7.292  0.00  0.00    +0.001 A 
ATOM      8  C   LIG    1       24.408 -29.767   6.590  0.00  0.00    +0.010 A 
ATOM      9  C   LIG    1       24.162 -31.027   7.155  0.00  0.00    +0.004 A 
ATOM     10  C   LIG    1       24.600 -31.323   8.450  0.00  0.00    -0.045 A 
ATOM     11  C   LIG    1       25.282 -30.336   9.162  0.00  0.00    +0.004 A 
ATOM     12  C   LIG    1       25.531 -29.083   8.589  0.00  0.00    +0.010 A 
BRANCH  10  13
ATOM     13  C   LIG    1       24.333 -32.670   9.085  0.00  0.00    +0.065 C 
BRANCH  13  14
ATOM     14  CA  LIG    1       23.432 -32.579  10.326  0.00  0.00    +0.165 C 
BRANCH  14  15
ATOM     15  N   LIG    1       23.510 -33.825  11.132  0.00  0.00    -0.318 NA
ATOM     16  H1  LIG    1       24.355 -33.805  11.705  0.00  0.00    +0.119 HD
ATOM     17  H2  LIG    1       22.743 -33.813  11.812  0.00  0.00    +0.119 HD
ENDBRANCH  14  15
BRANCH  14  18
ATOM     18  C   LIG    1       21.984 -32.339   9.896  0.00  0.00    +0.322 C 
ATOM     19  O   LIG    1       21.452 -31.218   9.881  0.00  0.00    -0.249 OA
BRANCH  18  20
ATOM     20  OXT LIG    1       21.321 -33.444   9.507  0.00  0.00    -0.479 OA
ATOM     21  HXT LIG    1       20.624 -33.732  10.133  0.00  0.00    +0.295 HD
ENDBRANCH  18  20
ENDBRANCH  14  18
ENDBRANCH  13  14
ENDBRANCH  10  13
ENDBRANCH   5   7
BRANCH   3  22
ATOM     22  N   LIG    1       25.532 -26.173   3.361  0.00  0.00    -0.327 N 
ATOM     23  H   LIG    1       24.680 -26.617   3.043  0.00  0.00    +0.145 HD
ATOM     24  H   LIG    1       26.399 -26.540   2.992  0.00  0.00    +0.145 HD
ENDBRANCH   3  22
BRANCH   1  25
ATOM     25  O   LIG    1       25.736 -23.902   7.387  0.00  0.00    -0.459 OA
BRANCH  25  26
ATOM     26  C   LIG    1       25.324 -22.774   6.542  0.00  0.00    +0.311 C 
BRANCH  26  28
ATOM     27  C   LIG    1       26.326 -20.517   5.659  0.00  0.00    +0.074 A 
ATOM     28  C   LIG    1       26.388 -21.654   6.515  0.00  0.00    +0.027 A 
ATOM     29  C   LIG    1       27.561 -21.808   7.301  0.00  0.00    +0.011 A 
ATOM     30  C   LIG    1       28.653 -20.937   7.190  0.00  0.00    +0.020 A 
ATOM     31  C   LIG    1       28.585 -19.863   6.320  0.00  0.00    +0.043 A 
ATOM     32 CL   LIG    1       29.937 -18.815   6.132  0.00  0.00    -0.084 Cl
ATOM     33  C   LIG    1       27.432 -19.638   5.579  0.00  0.00    +0.048 A 
BRANCH  27  37
ATOM     34  C   LIG    1       22.057 -18.657   4.234  0.00  0.00    +0.067 C 
ATOM     35  C   LIG    1       23.333 -19.412   4.177  0.00  0.00    +0.060 A 
ATOM     36  N   LIG    1       24.202 -19.399   5.196  0.00  0.00    -0.172 NA
ATOM     37  N   LIG    1       25.216 -20.210   4.810  0.00  0.00    -0.239 N 
ATOM     38  C   LIG    1       25.000 -20.690   3.533  0.00  0.00    +0.115 A 
ATOM     39  C   LIG    1       23.803 -20.182   3.098  0.00  0.00    +0.044 A 
ENDBRANCH  27  37
ENDBRANCH  26  28
BRANCH  26  40
ATOM     40  C   LIG    1       23.869 -22.386   6.896  0.00  0.00    +0.431 C 
ATOM     41  F   LIG    1       23.232 -23.347   7.614  0.00  0.00    -0.167 F 
ATOM     42  F   LIG    1       23.136 -22.223   5.760  0.00  0.00    -0.167 F 
ATOM     43  F   LIG    1       23.764 -21.241   7.607  0.00  0.00    -0.167 F 
ENDBRANCH  26  40
ENDBRANCH  25  26
ENDBRANCH   1  25
TORSDOF 12
ENDMDL
MODEL 8
REMARK VINA RESULT:      -7.2      5.103     10.156
REMARK  Name = *****
REMARK                            x       y       z     vdW  Elec       q    Type
REMARK                         _______ _______ _______ _____ _____    ______ ____
ROOT
ATOM      1  C   LIG    1       25.646 -23.861   7.119  0.00  0.00    +0.221 A 
ATOM      2  N   LIG    1       24.458 -23.306   6.867  0.00  0.00    -0.180 NA
ATOM      3  C   LIG    1       23.492 -24.123   6.481  0.00  0.00    +0.216 A 
ATOM      4  N   LIG    1       23.629 -25.437   6.326  0.00  0.00    -0.214 NA
ATOM      5  C   LIG    1       24.854 -25.977   6.519  0.00  0.00    +0.080 A 
ATOM      6  C   LIG    1       25.922 -25.190   6.918  0.00  0.00    +0.095 A 
ENDROOT
BRANCH   5   7
ATOM      7  C   LIG    1       24.937 -27.450   6.317  0.00  0.00    +0.001 A 
ATOM      8  C   LIG    1       24.948 -28.347   7.406  0.00  0.00    +0.010 A 
ATOM      9  C   LIG    1       25.035 -29.736   7.223  0.00  0.00    +0.004 A 
ATOM     10  C   LIG    1       25.116 -30.278   5.937  0.00  0.00    -0.045 A 
ATOM     11  C   LIG    1       25.110 -29.408   4.847  0.00  0.00    +0.004 A 
ATOM     12  C   LIG    1       25.016 -28.024   5.037  0.00  0.00    +0.010 A 
BRANCH  10  13
ATOM     13  C   LIG    1       25.225 -31.771   5.716  0.00  0.00    +0.065 C 
BRANCH  13  14
ATOM     14  CA  LIG    1       24.556 -32.592   6.829  0.00  0.00    +0.165 C 
BRANCH  14  15
ATOM     15  N   LIG    1       25.403 -33.748   7.220  0.00  0.00    -0.318 NA
ATOM     16  H1  LIG    1       24.816 -34.578   7.322  0.00  0.00    +0.119 HD
ATOM     17  H2  LIG    1       26.022 -33.970   6.435  0.00  0.00    +0.119 HD
ENDBRANCH  14  15
BRANCH  14  18
ATOM     18  C   LIG    1       23.193 -33.096   6.349  0.00  0.00    +0.322 C 
ATOM     19  O   LIG    1       22.400 -33.716   7.074  0.00  0.00    -0.249 OA
BRANCH  18  20
ATOM     20  OXT LIG    1       22.900 -32.796   5.070  0.00  0.00    -0.479 OA
ATOM     21  HXT LIG    1       22.357 -31.989   4.964  0.00  0.00    +0.295 HD
ENDBRANCH  18  20
ENDBRANCH  14  18
ENDBRANCH  13  14
ENDBRANCH  10  13
ENDBRANCH   5   7
BRANCH   3  22
ATOM     22  N   LIG    1       22.236 -23.574   6.331  0.00  0.00    -0.327 N 
ATOM     23  H   LIG    1       22.268 -22.873   5.601  0.00  0.00    +0.145 HD
ATOM     24  H   LIG    1       21.900 -23.272   7.235  0.00  0.00    +0.145 HD
ENDBRANCH   3  22
BRANCH   1  25
ATOM     25  O   LIG    1       26.644 -23.056   7.641  0.00  0.00    -0.459 OA
BRANCH  25  26
ATOM     26  C   LIG    1       26.361 -21.631   7.429  0.00  0.00    +0.311 C 
BRANCH  26  28
ATOM     27  C   LIG    1       27.873 -19.942   6.110  0.00  0.00    +0.074 A 
ATOM     28  C   LIG    1       27.654 -20.811   7.216  0.00  0.00    +0.027 A 
ATOM     29  C   LIG    1       28.742 -21.010   8.107  0.00  0.00    +0.011 A 
ATOM     30  C   LIG    1       30.006 -20.452   7.875  0.00  0.00    +0.020 A 
ATOM     31  C   LIG    1       30.206 -19.645   6.770  0.00  0.00    +0.043 A 
ATOM     32 CL   LIG    1       31.765 -18.995   6.442  0.00  0.00    -0.084 Cl
ATOM     33  C   LIG    1       29.152 -19.372   5.907  0.00  0.00    +0.048 A 
BRANCH  27  37
ATOM     34  C   LIG    1       23.931 -20.437   3.292  0.00  0.00    +0.067 C 
ATOM     35  C   LIG    1       25.162 -19.841   3.870  0.00  0.00    +0.060 A 
ATOM     36  N   LIG    1       25.807 -20.419   4.891  0.00  0.00    -0.172 NA
ATOM     37  N   LIG    1       26.882 -19.628   5.126  0.00  0.00    -0.239 N 
ATOM     38  C   LIG    1       26.878 -18.534   4.282  0.00  0.00    +0.115 A 
ATOM     39  C   LIG    1       25.776 -18.640   3.473  0.00  0.00    +0.044 A 
ENDBRANCH  27  37
ENDBRANCH  26  28
BRANCH  26  40
ATOM     40  C   LIG    1       25.363 -21.149   8.508  0.00  0.00    +0.431 C 
ATOM     41  F   LIG    1       24.178 -20.747   7.981  0.00  0.00    -0.167 F 
ATOM     42  F   LIG    1       25.866 -20.067   9.164  0.00  0.00    -0.167 F 
ATOM     43  F   LIG    1       25.072 -22.083   9.442  0.00  0.00    -0.167 F 
ENDBRANCH  26  40
ENDBRANCH  25  26
ENDBRANCH   1  25
TORSDOF 12
ENDMDL
MODEL 9
REMARK VINA RESULT:      -7.1      4.418     10.037
REMARK  Name = *****
REMARK                            x       y       z     vdW  Elec       q    Type
REMARK                         _______ _______ _______ _____ _____    ______ ____
ROOT
ATOM      1  C   LIG    1       25.360 -25.447   6.542  0.00  0.00    +0.221 A 
ATOM      2  N   LIG    1       25.580 -25.272   5.236  0.00  0.00    -0.180 NA
ATOM      3  C   LIG    1       25.571 -26.359   4.483  0.00  0.00    +0.216 A 
ATOM      4  N   LIG    1       25.367 -27.593   4.937  0.00  0.00    -0.214 NA
ATOM      5  C   LIG    1       25.212 -27.764   6.270  0.00  0.00    +0.080 A 
ATOM      6  C   LIG    1       25.215 -26.678   7.130  0.00  0.00    +0.095 A 
ENDROOT
BRANCH   5   7
ATOM      7  C   LIG    1       24.999 -29.171   6.708  0.00  0.00    +0.001 A 
ATOM      8  C   LIG    1       24.421 -29.476   7.959  0.00  0.00    +0.010 A 
ATOM      9  C   LIG    1       24.225 -30.800   8.383  0.00  0.00    +0.004 A 
ATOM     10  C   LIG    1       24.604 -31.870   7.566  0.00  0.00    -0.045 A 
ATOM     11  C   LIG    1       25.180 -31.589   6.327  0.00  0.00    +0.004 A 
ATOM     12  C   LIG    1       25.365 -30.266   5.908  0.00  0.00    +0.010 A 
BRANCH  10  13
ATOM     13  C   LIG    1       24.416 -33.304   8.008  0.00  0.00    +0.065 C 
BRANCH  13  14
ATOM     14  CA  LIG    1       25.374 -33.714   9.136  0.00  0.00    +0.165 C 
BRANCH  14  15
ATOM     15  N   LIG    1       24.985 -33.081  10.422  0.00  0.00    -0.318 NA
ATOM     16  H1  LIG    1       25.675 -33.316  11.138  0.00  0.00    +0.119 HD
ATOM     17  H2  LIG    1       25.067 -32.065  10.315  0.00  0.00    +0.119 HD
ENDBRANCH  14  15
BRANCH  14  18
ATOM     18  C   LIG    1       26.803 -33.301   8.775  0.00  0.00    +0.322 C 
ATOM     19  O   LIG    1       27.456 -33.825   7.860  0.00  0.00    -0.249 OA
BRANCH  18  20
ATOM     20  OXT LIG    1       27.303 -32.298   9.520  0.00  0.00    -0.479 OA
ATOM     21  HXT LIG    1       27.288 -32.471  10.484  0.00  0.00    +0.295 HD
ENDBRANCH  18  20
ENDBRANCH  14  18
ENDBRANCH  13  14
ENDBRANCH  10  13
ENDBRANCH   5   7
BRANCH   3  22
ATOM     22  N   LIG    1       25.684 -26.174   3.122  0.00  0.00    -0.327 N 
ATOM     23  H   LIG    1       26.065 -27.014   2.705  0.00  0.00    +0.145 HD
ATOM     24  H   LIG    1       26.185 -25.314   2.948  0.00  0.00    +0.145 HD
ENDBRANCH   3  22
BRANCH   1  25
ATOM     25  O   LIG    1       25.242 -24.321   7.339  0.00  0.00    -0.459 OA
BRANCH  25  26
ATOM     26  C   LIG    1       24.930 -23.124   6.548  0.00  0.00    +0.311 C 
BRANCH  26  28
ATOM     27  C   LIG    1       26.039 -20.823   5.953  0.00  0.00    +0.074 A 
ATOM     28  C   LIG    1       26.004 -22.025   6.716  0.00  0.00    +0.027 A 
ATOM     29  C   LIG    1       27.091 -22.263   7.598  0.00  0.00    +0.011 A 
ATOM     30  C   LIG    1       28.198 -21.406   7.665  0.00  0.00    +0.020 A 
ATOM     31  C   LIG    1       28.228 -20.265   6.883  0.00  0.00    +0.043 A 
ATOM     32 CL   LIG    1       29.603 -19.231   6.914  0.00  0.00    -0.084 Cl
ATOM     33  C   LIG    1       27.157 -19.961   6.053  0.00  0.00    +0.048 A 
BRANCH  27  37
ATOM     34  C   LIG    1       21.978 -18.734   4.261  0.00  0.00    +0.067 C 
ATOM     35  C   LIG    1       23.231 -19.530   4.274  0.00  0.00    +0.060 A 
ATOM     36  N   LIG    1       24.002 -19.605   5.367  0.00  0.00    -0.172 NA
ATOM     37  N   LIG    1       25.023 -20.429   5.026  0.00  0.00    -0.239 N 
ATOM     38  C   LIG    1       24.911 -20.827   3.708  0.00  0.00    +0.115 A 
ATOM     39  C   LIG    1       23.775 -20.253   3.198  0.00  0.00    +0.044 A 
ENDBRANCH  27  37
ENDBRANCH  26  28
BRANCH  26  40
ATOM     40  C   LIG    1       23.451 -22.737   6.783  0.00  0.00    +0.431 C 
ATOM     41  F   LIG    1       23.309 -21.760   7.715  0.00  0.00    -0.167 F 
ATOM     42  F   LIG    1       22.754 -23.807   7.256  0.00  0.00    -0.167 F 
ATOM     43  F   LIG    1       22.814 -22.305   5.671  0.00  0.00    -0.167 F 
ENDBRANCH  26  40
ENDBRANCH  25  26
ENDBRANCH   1  25
TORSDOF 12
ENDMDL
