MODEL 1
REMARK VINA RESULT:      -8.5      0.000      0.000
REMARK  Name = *****
REMARK                            x       y       z     vdW  Elec       q    Type
REMARK                         _______ _______ _______ _____ _____    ______ ____
ROOT
ATOM      1  N   LIG    1       25.912 -28.054   6.969  0.00  0.00    -0.283 NA
ENDROOT
BRANCH   1   2
ATOM      2  C   LIG    1       25.945 -26.559   7.281  0.00  0.00    +0.181 C 
BRANCH   2   5
ATOM      3  C   LIG    1       26.320 -23.608   7.236  0.00  0.00    +0.132 C 
ATOM      4  N   LIG    1       25.010 -24.103   6.825  0.00  0.00    -0.298 N 
ATOM      5  C   LIG    1       24.839 -25.529   6.634  0.00  0.00    +0.230 C 
ATOM      6  O   LIG    1       23.842 -25.943   6.125  0.00  0.00    -0.274 OA
BRANCH   4   7
ATOM      7  C   LIG    1       23.922 -22.935   6.459  0.00  0.00    +0.035 C 
ATOM      8  C   LIG    1       24.130 -21.754   7.464  0.00  0.00    +0.032 C 
ATOM      9  C   LIG    1       22.436 -23.348   6.665  0.00  0.00    +0.032 C 
BRANCH   7  10
ATOM     10  C   LIG    1       24.135 -22.340   4.995  0.00  0.00    +0.060 C 
BRANCH  10  11
ATOM     11  C   LIG    1       23.718 -20.903   4.585  0.00  0.00    -0.045 A 
ATOM     12  C   LIG    1       24.620 -20.061   3.902  0.00  0.00    +0.003 A 
ATOM     13  C   LIG    1       24.299 -18.727   3.584  0.00  0.00    +0.000 A 
ATOM     14  C   LIG    1       23.088 -18.177   3.989  0.00  0.00    +0.000 A 
ATOM     15  C   LIG    1       22.202 -18.965   4.717  0.00  0.00    +0.000 A 
ATOM     16  C   LIG    1       22.507 -20.315   5.000  0.00  0.00    +0.003 A 
ENDBRANCH  10  11
ENDBRANCH   7  10
ENDBRANCH   4   7
ENDBRANCH   2   5
ENDBRANCH   1   2
BRANCH   1  17
ATOM     17  C   LIG    1       25.280 -28.708   8.167  0.00  0.00    +0.181 C 
BRANCH  17  18
ATOM     18  C   LIG    1       24.586 -30.060   8.191  0.00  0.00    +0.230 C 
ATOM     19  N   LIG    1       24.672 -30.688   9.467  0.00  0.00    -0.298 N 
ATOM     20  C   LIG    1       24.038 -32.038   9.463  0.00  0.00    +0.132 C 
ATOM     21  O   LIG    1       23.865 -30.403   7.327  0.00  0.00    -0.274 OA
BRANCH  19  22
ATOM     22  C   LIG    1       25.707 -30.306  10.540  0.00  0.00    +0.035 C 
ATOM     23  C   LIG    1       27.138 -30.460   9.847  0.00  0.00    +0.032 C 
ATOM     24  C   LIG    1       25.729 -31.470  11.592  0.00  0.00    +0.032 C 
BRANCH  22  25
ATOM     25  C   LIG    1       25.358 -28.866  11.686  0.00  0.00    +0.060 C 
BRANCH  25  26
ATOM     26  C   LIG    1       24.014 -28.167  12.641  0.00  0.00    -0.045 A 
ATOM     27  C   LIG    1       22.666 -28.614  12.583  0.00  0.00    +0.003 A 
ATOM     28  C   LIG    1       21.563 -27.764  12.949  0.00  0.00    +0.000 A 
ATOM     29  C   LIG    1       21.731 -26.519  13.547  0.00  0.00    +0.000 A 
ATOM     30  C   LIG    1       23.012 -26.124  13.813  0.00  0.00    +0.000 A 
ATOM     31  C   LIG    1       24.096 -26.966  13.458  0.00  0.00    +0.003 A 
ENDBRANCH  25  26
ENDBRANCH  22  25
ENDBRANCH  19  22
ENDBRANCH  17  18
ENDBRANCH   1  17
BRANCH   1  32
ATOM     32  C   LIG    1       25.687 -28.437   5.502  0.00  0.00    +0.113 C 
BRANCH  32  33
ATOM     33  C   LIG    1       24.421 -28.930   4.525  0.00  0.00    +0.171 C 
BRANCH  33  34
ATOM     34  O   LIG    1       23.124 -29.087   5.095  0.00  0.00    -0.394 OA
ATOM     35  H   LIG    1       22.867 -28.227   5.487  0.00  0.00    +0.209 HD
ENDBRANCH  33  34
ENDBRANCH  32  33
ENDBRANCH   1  32
TORSDOF 13
ENDMDL
MODEL 2
REMARK VINA RESULT:      -8.4      2.360      3.994
REMARK  Name = *****
REMARK                            x       y       z     vdW  Elec       q    Type
REMARK                         _______ _______ _______ _____ _____    ______ ____
ROOT
ATOM      1  N   LIG    1       24.907 -31.478   8.440  0.00  0.00    -0.283 NA
ENDROOT
BRANCH   1   2
ATOM      2  C   LIG    1       24.158 -30.154   8.302  0.00  0.00    +0.181 C 
BRANCH   2   5
ATOM      3  C   LIG    1       26.249 -28.039   8.233  0.00  0.00    +0.132 C 
ATOM      4  N   LIG    1       25.299 -28.051   7.125  0.00  0.00    -0.298 N 
ATOM      5  C   LIG    1       24.392 -29.174   7.003  0.00  0.00    +0.230 C 
ATOM      6  O   LIG    1       23.737 -29.302   6.014  0.00  0.00    -0.274 OA
BRANCH   4   7
ATOM      7  C   LIG    1       25.503 -26.842   6.039  0.00  0.00    +0.035 C 
ATOM      8  C   LIG    1       24.115 -26.554   5.377  0.00  0.00    +0.032 C 
ATOM      9  C   LIG    1       26.425 -27.201   4.838  0.00  0.00    +0.032 C 
BRANCH   7  10
ATOM     10  C   LIG    1       25.982 -25.483   6.722  0.00  0.00    +0.060 C 
BRANCH  10  11
ATOM     11  C   LIG    1       25.078 -24.231   6.865  0.00  0.00    -0.045 A 
ATOM     12  C   LIG    1       25.596 -23.025   7.380  0.00  0.00    +0.003 A 
ATOM     13  C   LIG    1       24.784 -21.895   7.595  0.00  0.00    +0.000 A 
ATOM     14  C   LIG    1       23.416 -21.953   7.353  0.00  0.00    +0.000 A 
ATOM     15  C   LIG    1       22.864 -23.148   6.901  0.00  0.00    +0.000 A 
ATOM     16  C   LIG    1       23.686 -24.269   6.647  0.00  0.00    +0.003 A 
ENDBRANCH  10  11
ENDBRANCH   7  10
ENDBRANCH   4   7
ENDBRANCH   2   5
ENDBRANCH   1   2
BRANCH   1  17
ATOM     17  C   LIG    1       24.082 -32.319   9.375  0.00  0.00    +0.181 C 
BRANCH  17  18
ATOM     18  C   LIG    1       22.869 -33.154   9.000  0.00  0.00    +0.230 C 
ATOM     19  N   LIG    1       21.726 -32.830   9.787  0.00  0.00    -0.298 N 
ATOM     20  C   LIG    1       20.558 -33.695   9.449  0.00  0.00    +0.132 C 
ATOM     21  O   LIG    1       22.839 -33.799   8.016  0.00  0.00    -0.274 OA
BRANCH  19  22
ATOM     22  C   LIG    1       21.798 -32.093  11.136  0.00  0.00    +0.035 C 
ATOM     23  C   LIG    1       22.653 -33.032  12.106  0.00  0.00    +0.032 C 
ATOM     24  C   LIG    1       20.370 -32.175  11.780  0.00  0.00    +0.032 C 
BRANCH  22  25
ATOM     25  C   LIG    1       22.037 -30.235  11.160  0.00  0.00    +0.060 C 
BRANCH  25  26
ATOM     26  C   LIG    1       22.316 -28.903  12.324  0.00  0.00    -0.045 A 
ATOM     27  C   LIG    1       21.313 -28.003  12.775  0.00  0.00    +0.003 A 
ATOM     28  C   LIG    1       21.633 -26.697  13.288  0.00  0.00    +0.000 A 
ATOM     29  C   LIG    1       22.936 -26.281  13.544  0.00  0.00    +0.000 A 
ATOM     30  C   LIG    1       23.935 -27.187  13.318  0.00  0.00    +0.000 A 
ATOM     31  C   LIG    1       23.615 -28.475  12.820  0.00  0.00    +0.003 A 
ENDBRANCH  25  26
ENDBRANCH  22  25
ENDBRANCH  19  22
ENDBRANCH  17  18
ENDBRANCH   1  17
BRANCH   1  32
ATOM     32  C   LIG    1       25.650 -31.972   7.193  0.00  0.00    +0.113 C 
BRANCH  32  33
ATOM     33  C   LIG    1       25.279 -32.476   5.641  0.00  0.00    +0.171 C 
BRANCH  33  34
ATOM     34  O   LIG    1       23.929 -32.396   5.189  0.00  0.00    -0.394 OA
ATOM     35  H   LIG    1       23.431 -31.860   5.839  0.00  0.00    +0.209 HD
ENDBRANCH  33  34
ENDBRANCH  32  33
ENDBRANCH   1  32
TORSDOF 13
ENDMDL
MODEL 3
REMARK VINA RESULT:      -8.3      5.199      8.471
REMARK  Name = *****
REMARK                            x       y       z     vdW  Elec       q    Type
REMARK                         _______ _______ _______ _____ _____    ______ ____
ROOT
ATOM      1  N   LIG    1       25.628 -20.646   4.719  0.00  0.00    -0.283 NA
ENDROOT
BRANCH   1   2
ATOM      2  C   LIG    1       26.298 -20.478   6.081  0.00  0.00    +0.181 C 
BRANCH   2   5
ATOM      3  C   LIG    1       28.198 -21.342   8.202  0.00  0.00    +0.132 C 
ATOM      4  N   LIG    1       28.611 -20.207   7.381  0.00  0.00    -0.298 N 
ATOM      5  C   LIG    1       27.822 -19.875   6.212  0.00  0.00    +0.230 C 
ATOM      6  O   LIG    1       28.235 -19.077   5.427  0.00  0.00    -0.274 OA
BRANCH   4   7
ATOM      7  C   LIG    1       30.047 -19.543   7.807  0.00  0.00    +0.035 C 
ATOM      8  C   LIG    1       30.874 -19.312   6.500  0.00  0.00    +0.032 C 
ATOM      9  C   LIG    1       30.955 -20.467   8.669  0.00  0.00    +0.032 C 
BRANCH   7  10
ATOM     10  C   LIG    1       29.877 -18.121   8.507  0.00  0.00    +0.060 C 
BRANCH  10  11
ATOM     11  C   LIG    1       30.895 -17.539   9.523  0.00  0.00    -0.045 A 
ATOM     12  C   LIG    1       30.559 -17.417  10.887  0.00  0.00    +0.003 A 
ATOM     13  C   LIG    1       31.430 -16.823  11.821  0.00  0.00    +0.000 A 
ATOM     14  C   LIG    1       32.643 -16.281  11.408  0.00  0.00    +0.000 A 
ATOM     15  C   LIG    1       32.976 -16.333  10.057  0.00  0.00    +0.000 A 
ATOM     16  C   LIG    1       32.120 -16.965   9.129  0.00  0.00    +0.003 A 
ENDBRANCH  10  11
ENDBRANCH   7  10
ENDBRANCH   4   7
ENDBRANCH   2   5
ENDBRANCH   1   2
BRANCH   1  17
ATOM     17  C   LIG    1       24.873 -21.944   4.792  0.00  0.00    +0.181 C 
BRANCH  17  18
ATOM     18  C   LIG    1       23.582 -22.191   5.556  0.00  0.00    +0.230 C 
ATOM     19  N   LIG    1       23.640 -23.376   6.345  0.00  0.00    -0.298 N 
ATOM     20  C   LIG    1       22.349 -23.639   7.044  0.00  0.00    +0.132 C 
ATOM     21  O   LIG    1       22.753 -21.362   5.659  0.00  0.00    -0.274 OA
BRANCH  19  22
ATOM     22  C   LIG    1       24.656 -24.508   6.114  0.00  0.00    +0.035 C 
ATOM     23  C   LIG    1       26.021 -24.021   6.788  0.00  0.00    +0.032 C 
ATOM     24  C   LIG    1       25.023 -24.491   4.589  0.00  0.00    +0.032 C 
BRANCH  22  25
ATOM     25  C   LIG    1       24.103 -26.290   6.275  0.00  0.00    +0.060 C 
BRANCH  25  26
ATOM     26  C   LIG    1       24.796 -27.928   6.488  0.00  0.00    -0.045 A 
ATOM     27  C   LIG    1       24.784 -28.945   5.495  0.00  0.00    +0.003 A 
ATOM     28  C   LIG    1       24.883 -30.341   5.829  0.00  0.00    +0.000 A 
ATOM     29  C   LIG    1       25.168 -30.795   7.113  0.00  0.00    +0.000 A 
ATOM     30  C   LIG    1       25.391 -29.848   8.073  0.00  0.00    +0.000 A 
ATOM     31  C   LIG    1       25.301 -28.473   7.738  0.00  0.00    +0.003 A 
ENDBRANCH  25  26
ENDBRANCH  22  25
ENDBRANCH  19  22
ENDBRANCH  17  18
ENDBRANCH   1  17
BRANCH   1  32
ATOM     32  C   LIG    1       25.157 -19.359   4.029  0.00  0.00    +0.113 C 
BRANCH  32  33
ATOM     33  C   LIG    1       23.711 -18.627   3.617  0.00  0.00    +0.171 C 
BRANCH  33  34
ATOM     34  O   LIG    1       22.603 -18.724   4.510  0.00  0.00    -0.394 OA
ATOM     35  H   LIG    1       21.876 -19.171   4.031  0.00  0.00    +0.209 HD
ENDBRANCH  33  34
ENDBRANCH  32  33
ENDBRANCH   1  32
TORSDOF 13
ENDMDL
MODEL 4
REMARK VINA RESULT:      -8.2      5.396     10.971
REMARK  Name = *****
REMARK                            x       y       z     vdW  Elec       q    Type
REMARK                         _______ _______ _______ _____ _____    ______ ____
ROOT
ATOM      1  N   LIG    1       25.572 -22.122   6.952  0.00  0.00    -0.283 NA
ENDROOT
BRANCH   1   2
ATOM      2  C   LIG    1       27.087 -22.221   6.786  0.00  0.00    +0.181 C 
BRANCH   2   5
ATOM      3  C   LIG    1       28.849 -20.028   5.817  0.00  0.00    +0.132 C 
ATOM      4  N   LIG    1       29.064 -20.477   7.188  0.00  0.00    -0.298 N 
ATOM      5  C   LIG    1       28.107 -21.394   7.774  0.00  0.00    +0.230 C 
ATOM      6  O   LIG    1       28.155 -21.632   8.943  0.00  0.00    -0.274 OA
BRANCH   4   7
ATOM      7  C   LIG    1       30.300 -19.732   7.964  0.00  0.00    +0.035 C 
ATOM      8  C   LIG    1       31.334 -19.270   6.886  0.00  0.00    +0.032 C 
ATOM      9  C   LIG    1       31.125 -20.659   8.904  0.00  0.00    +0.032 C 
BRANCH   7  10
ATOM     10  C   LIG    1       29.829 -18.425   8.746  0.00  0.00    +0.060 C 
BRANCH  10  11
ATOM     11  C   LIG    1       30.755 -17.610   9.686  0.00  0.00    -0.045 A 
ATOM     12  C   LIG    1       31.886 -16.938   9.177  0.00  0.00    +0.003 A 
ATOM     13  C   LIG    1       32.788 -16.254  10.015  0.00  0.00    +0.000 A 
ATOM     14  C   LIG    1       32.617 -16.267  11.395  0.00  0.00    +0.000 A 
ATOM     15  C   LIG    1       31.544 -16.972  11.932  0.00  0.00    +0.000 A 
ATOM     16  C   LIG    1       30.617 -17.623  11.089  0.00  0.00    +0.003 A 
ENDBRANCH  10  11
ENDBRANCH   7  10
ENDBRANCH   4   7
ENDBRANCH   2   5
ENDBRANCH   1   2
BRANCH   1  17
ATOM     17  C   LIG    1       25.128 -21.031   6.017  0.00  0.00    +0.181 C 
BRANCH  17  18
ATOM     18  C   LIG    1       23.789 -20.311   6.046  0.00  0.00    +0.230 C 
ATOM     19  N   LIG    1       23.518 -19.626   4.826  0.00  0.00    -0.298 N 
ATOM     20  C   LIG    1       22.229 -18.877   4.887  0.00  0.00    +0.132 C 
ATOM     21  O   LIG    1       22.991 -20.519   6.885  0.00  0.00    -0.274 OA
BRANCH  19  22
ATOM     22  C   LIG    1       24.599 -19.254   3.796  0.00  0.00    +0.035 C 
ATOM     23  C   LIG    1       24.693 -20.490   2.788  0.00  0.00    +0.032 C 
ATOM     24  C   LIG    1       25.981 -19.330   4.534  0.00  0.00    +0.032 C 
BRANCH  22  25
ATOM     25  C   LIG    1       24.693 -17.497   3.154  0.00  0.00    +0.060 C 
BRANCH  25  26
ATOM     26  C   LIG    1       25.560 -15.963   3.476  0.00  0.00    -0.045 A 
ATOM     27  C   LIG    1       26.974 -15.824   3.494  0.00  0.00    +0.003 A 
ATOM     28  C   LIG    1       27.628 -14.763   4.214  0.00  0.00    +0.000 A 
ATOM     29  C   LIG    1       26.939 -13.703   4.795  0.00  0.00    +0.000 A 
ATOM     30  C   LIG    1       25.581 -13.679   4.633  0.00  0.00    +0.000 A 
ATOM     31  C   LIG    1       24.941 -14.722   3.917  0.00  0.00    +0.003 A 
ENDBRANCH  25  26
ENDBRANCH  22  25
ENDBRANCH  19  22
ENDBRANCH  17  18
ENDBRANCH   1  17
BRANCH   1  32
ATOM     32  C   LIG    1       24.831 -23.436   7.229  0.00  0.00    +0.113 C 
BRANCH  32  33
ATOM     33  C   LIG    1       23.597 -24.337   6.547  0.00  0.00    +0.171 C 
BRANCH  33  34
ATOM     34  O   LIG    1       22.250 -23.894   6.697  0.00  0.00    -0.394 OA
ATOM     35  H   LIG    1       21.799 -24.024   5.838  0.00  0.00    +0.209 HD
ENDBRANCH  33  34
ENDBRANCH  32  33
ENDBRANCH   1  32
TORSDOF 13
ENDMDL
MODEL 5
REMARK VINA RESULT:      -8.1      2.139      3.169
REMARK  Name = *****
REMARK                            x       y       z     vdW  Elec       q    Type
REMARK                         _______ _______ _______ _____ _____    ______ ____
ROOT
ATOM      1  N   LIG    1       25.314 -27.205   6.388  0.00  0.00    -0.283 NA
ENDROOT
BRANCH   1   2
ATOM      2  C   LIG    1       24.369 -26.024   6.604  0.00  0.00    +0.181 C 
BRANCH   2   5
ATOM      3  C   LIG    1       22.556 -23.672   6.766  0.00  0.00    +0.132 C 
ATOM      4  N   LIG    1       23.946 -23.398   6.418  0.00  0.00    -0.298 N 
ATOM      5  C   LIG    1       24.911 -24.475   6.524  0.00  0.00    +0.230 C 
ATOM      6  O   LIG    1       26.076 -24.237   6.425  0.00  0.00    -0.274 OA
BRANCH   4   7
ATOM      7  C   LIG    1       24.275 -21.824   6.107  0.00  0.00    +0.035 C 
ATOM      8  C   LIG    1       22.925 -21.035   6.150  0.00  0.00    +0.032 C 
ATOM      9  C   LIG    1       24.827 -21.548   4.678  0.00  0.00    +0.032 C 
BRANCH   7  10
ATOM     10  C   LIG    1       25.228 -21.172   7.207  0.00  0.00    +0.060 C 
BRANCH  10  11
ATOM     11  C   LIG    1       26.740 -20.907   6.981  0.00  0.00    -0.045 A 
ATOM     12  C   LIG    1       27.705 -21.478   7.837  0.00  0.00    +0.003 A 
ATOM     13  C   LIG    1       29.079 -21.195   7.707  0.00  0.00    +0.000 A 
ATOM     14  C   LIG    1       29.524 -20.289   6.751  0.00  0.00    +0.000 A 
ATOM     15  C   LIG    1       28.590 -19.664   5.931  0.00  0.00    +0.000 A 
ATOM     16  C   LIG    1       27.217 -19.978   6.035  0.00  0.00    +0.003 A 
ENDBRANCH  10  11
ENDBRANCH   7  10
ENDBRANCH   4   7
ENDBRANCH   2   5
ENDBRANCH   1   2
BRANCH   1  17
ATOM     17  C   LIG    1       24.719 -28.352   7.157  0.00  0.00    +0.181 C 
BRANCH  17  18
ATOM     18  C   LIG    1       24.938 -29.831   6.880  0.00  0.00    +0.230 C 
ATOM     19  N   LIG    1       25.020 -30.598   8.077  0.00  0.00    -0.298 N 
ATOM     20  C   LIG    1       25.293 -32.037   7.794  0.00  0.00    +0.132 C 
ATOM     21  O   LIG    1       24.802 -30.287   5.803  0.00  0.00    -0.274 OA
BRANCH  19  22
ATOM     22  C   LIG    1       25.323 -29.995   9.460  0.00  0.00    +0.035 C 
ATOM     23  C   LIG    1       26.365 -28.811   9.207  0.00  0.00    +0.032 C 
ATOM     24  C   LIG    1       26.200 -31.040  10.234  0.00  0.00    +0.032 C 
BRANCH  22  25
ATOM     25  C   LIG    1       23.933 -29.787  10.699  0.00  0.00    +0.060 C 
BRANCH  25  26
ATOM     26  C   LIG    1       23.469 -28.740  12.077  0.00  0.00    -0.045 A 
ATOM     27  C   LIG    1       22.130 -28.474  12.471  0.00  0.00    +0.003 A 
ATOM     28  C   LIG    1       21.774 -27.296  13.218  0.00  0.00    +0.000 A 
ATOM     29  C   LIG    1       22.716 -26.426  13.757  0.00  0.00    +0.000 A 
ATOM     30  C   LIG    1       24.033 -26.747  13.579  0.00  0.00    +0.000 A 
ATOM     31  C   LIG    1       24.380 -27.912  12.850  0.00  0.00    +0.003 A 
ENDBRANCH  25  26
ENDBRANCH  22  25
ENDBRANCH  19  22
ENDBRANCH  17  18
ENDBRANCH   1  17
BRANCH   1  32
ATOM     32  C   LIG    1       25.996 -27.288   5.017  0.00  0.00    +0.113 C 
BRANCH  32  33
ATOM     33  C   LIG    1       27.550 -27.370   4.402  0.00  0.00    +0.171 C 
BRANCH  33  34
ATOM     34  O   LIG    1       28.645 -26.981   5.229  0.00  0.00    -0.394 OA
ATOM     35  H   LIG    1       28.664 -26.002   5.251  0.00  0.00    +0.209 HD
ENDBRANCH  33  34
ENDBRANCH  32  33
ENDBRANCH   1  32
TORSDOF 13
ENDMDL
MODEL 6
REMARK VINA RESULT:      -8.1      5.705      9.498
REMARK  Name = *****
REMARK                            x       y       z     vdW  Elec       q    Type
REMARK                         _______ _______ _______ _____ _____    ______ ____
ROOT
ATOM      1  N   LIG    1       26.087 -19.824   4.752  0.00  0.00    -0.283 NA
ENDROOT
BRANCH   1   2
ATOM      2  C   LIG    1       27.108 -20.503   5.662  0.00  0.00    +0.181 C 
BRANCH   2   5
ATOM      3  C   LIG    1       28.854 -21.461   7.872  0.00  0.00    +0.132 C 
ATOM      4  N   LIG    1       29.193 -20.166   7.290  0.00  0.00    -0.298 N 
ATOM      5  C   LIG    1       28.506 -19.748   6.085  0.00  0.00    +0.230 C 
ATOM      6  O   LIG    1       28.888 -18.788   5.488  0.00  0.00    -0.274 OA
BRANCH   4   7
ATOM      7  C   LIG    1       30.461 -19.410   7.999  0.00  0.00    +0.035 C 
ATOM      8  C   LIG    1       31.549 -19.167   6.902  0.00  0.00    +0.032 C 
ATOM      9  C   LIG    1       31.198 -20.256   9.078  0.00  0.00    +0.032 C 
BRANCH   7  10
ATOM     10  C   LIG    1       30.068 -17.981   8.587  0.00  0.00    +0.060 C 
BRANCH  10  11
ATOM     11  C   LIG    1       30.924 -17.220   9.634  0.00  0.00    -0.045 A 
ATOM     12  C   LIG    1       32.112 -16.564   9.251  0.00  0.00    +0.003 A 
ATOM     13  C   LIG    1       32.950 -15.930  10.188  0.00  0.00    +0.000 A 
ATOM     14  C   LIG    1       32.655 -15.981  11.546  0.00  0.00    +0.000 A 
ATOM     15  C   LIG    1       31.520 -16.673  11.961  0.00  0.00    +0.000 A 
ATOM     16  C   LIG    1       30.658 -17.273  11.017  0.00  0.00    +0.003 A 
ENDBRANCH  10  11
ENDBRANCH   7  10
ENDBRANCH   4   7
ENDBRANCH   2   5
ENDBRANCH   1   2
BRANCH   1  17
ATOM     17  C   LIG    1       24.757 -19.989   5.435  0.00  0.00    +0.181 C 
BRANCH  17  18
ATOM     18  C   LIG    1       23.408 -20.146   4.751  0.00  0.00    +0.230 C 
ATOM     19  N   LIG    1       22.611 -21.160   5.357  0.00  0.00    -0.298 N 
ATOM     20  C   LIG    1       21.314 -21.345   4.643  0.00  0.00    +0.132 C 
ATOM     21  O   LIG    1       23.004 -19.350   3.984  0.00  0.00    -0.274 OA
BRANCH  19  22
ATOM     22  C   LIG    1       23.179 -22.268   6.260  0.00  0.00    +0.035 C 
ATOM     23  C   LIG    1       21.915 -23.053   6.845  0.00  0.00    +0.032 C 
ATOM     24  C   LIG    1       23.748 -21.569   7.543  0.00  0.00    +0.032 C 
BRANCH  22  25
ATOM     25  C   LIG    1       24.709 -23.204   5.719  0.00  0.00    +0.060 C 
BRANCH  25  26
ATOM     26  C   LIG    1       25.359 -24.873   5.695  0.00  0.00    -0.045 A 
ATOM     27  C   LIG    1       25.271 -25.757   4.586  0.00  0.00    +0.003 A 
ATOM     28  C   LIG    1       25.341 -27.186   4.740  0.00  0.00    +0.000 A 
ATOM     29  C   LIG    1       25.669 -27.804   5.942  0.00  0.00    +0.000 A 
ATOM     30  C   LIG    1       25.964 -26.990   7.001  0.00  0.00    +0.000 A 
ATOM     31  C   LIG    1       25.902 -25.582   6.843  0.00  0.00    +0.003 A 
ENDBRANCH  25  26
ENDBRANCH  22  25
ENDBRANCH  19  22
ENDBRANCH  17  18
ENDBRANCH   1  17
BRANCH   1  32
ATOM     32  C   LIG    1       26.570 -18.581   3.995  0.00  0.00    +0.113 C 
BRANCH  32  33
ATOM     33  C   LIG    1       25.902 -17.247   3.237  0.00  0.00    +0.171 C 
BRANCH  33  34
ATOM     34  O   LIG    1       26.609 -16.009   3.259  0.00  0.00    -0.394 OA
ATOM     35  H   LIG    1       26.133 -15.408   3.868  0.00  0.00    +0.209 HD
ENDBRANCH  33  34
ENDBRANCH  32  33
ENDBRANCH   1  32
TORSDOF 13
ENDMDL
MODEL 7
REMARK VINA RESULT:      -7.8      2.392      3.980
REMARK  Name = *****
REMARK                            x       y       z     vdW  Elec       q    Type
REMARK                         _______ _______ _______ _____ _____    ______ ____
ROOT
ATOM      1  N   LIG    1       25.342 -26.733   6.730  0.00  0.00    -0.283 NA
ENDROOT
BRANCH   1   2
ATOM      2  C   LIG    1       24.337 -25.609   6.482  0.00  0.00    +0.181 C 
BRANCH   2   5
ATOM      3  C   LIG    1       22.485 -23.297   6.753  0.00  0.00    +0.132 C 
ATOM      4  N   LIG    1       23.831 -23.000   6.275  0.00  0.00    -0.298 N 
ATOM      5  C   LIG    1       24.829 -24.049   6.318  0.00  0.00    +0.230 C 
ATOM      6  O   LIG    1       25.974 -23.787   6.109  0.00  0.00    -0.274 OA
BRANCH   4   7
ATOM      7  C   LIG    1       24.090 -21.426   5.901  0.00  0.00    +0.035 C 
ATOM      8  C   LIG    1       22.708 -20.694   5.925  0.00  0.00    +0.032 C 
ATOM      9  C   LIG    1       24.619 -21.183   4.457  0.00  0.00    +0.032 C 
BRANCH   7  10
ATOM     10  C   LIG    1       25.023 -20.692   6.965  0.00  0.00    +0.060 C 
BRANCH  10  11
ATOM     11  C   LIG    1       26.570 -20.652   6.865  0.00  0.00    -0.045 A 
ATOM     12  C   LIG    1       27.371 -21.244   7.864  0.00  0.00    +0.003 A 
ATOM     13  C   LIG    1       28.776 -21.158   7.842  0.00  0.00    +0.000 A 
ATOM     14  C   LIG    1       29.423 -20.430   6.850  0.00  0.00    +0.000 A 
ATOM     15  C   LIG    1       28.658 -19.785   5.883  0.00  0.00    +0.000 A 
ATOM     16  C   LIG    1       27.251 -19.905   5.882  0.00  0.00    +0.003 A 
ENDBRANCH  10  11
ENDBRANCH   7  10
ENDBRANCH   4   7
ENDBRANCH   2   5
ENDBRANCH   1   2
BRANCH   1  17
ATOM     17  C   LIG    1       24.520 -27.956   7.034  0.00  0.00    +0.181 C 
BRANCH  17  18
ATOM     18  C   LIG    1       24.423 -29.209   6.180  0.00  0.00    +0.230 C 
ATOM     19  N   LIG    1       24.391 -30.398   6.966  0.00  0.00    -0.298 N 
ATOM     20  C   LIG    1       24.354 -31.623   6.115  0.00  0.00    +0.132 C 
ATOM     21  O   LIG    1       24.156 -29.160   5.034  0.00  0.00    -0.274 OA
BRANCH  19  22
ATOM     22  C   LIG    1       24.863 -30.468   8.429  0.00  0.00    +0.035 C 
ATOM     23  C   LIG    1       25.046 -32.020   8.760  0.00  0.00    +0.032 C 
ATOM     24  C   LIG    1       23.633 -30.088   9.326  0.00  0.00    +0.032 C 
BRANCH  22  25
ATOM     25  C   LIG    1       26.100 -29.211   9.060  0.00  0.00    +0.060 C 
BRANCH  25  26
ATOM     26  C   LIG    1       26.938 -28.752  10.575  0.00  0.00    -0.045 A 
ATOM     27  C   LIG    1       27.909 -29.553  11.234  0.00  0.00    +0.003 A 
ATOM     28  C   LIG    1       28.188 -29.414  12.639  0.00  0.00    +0.000 A 
ATOM     29  C   LIG    1       27.668 -28.385  13.417  0.00  0.00    +0.000 A 
ATOM     30  C   LIG    1       26.883 -27.461  12.785  0.00  0.00    +0.000 A 
ATOM     31  C   LIG    1       26.616 -27.597  11.399  0.00  0.00    +0.003 A 
ENDBRANCH  25  26
ENDBRANCH  22  25
ENDBRANCH  19  22
ENDBRANCH  17  18
ENDBRANCH   1  17
BRANCH   1  32
ATOM     32  C   LIG    1       26.630 -26.690   5.899  0.00  0.00    +0.113 C 
BRANCH  32  33
ATOM     33  C   LIG    1       27.268 -27.449   4.552  0.00  0.00    +0.171 C 
BRANCH  33  34
ATOM     34  O   LIG    1       28.679 -27.432   4.349  0.00  0.00    -0.394 OA
ATOM     35  H   LIG    1       28.975 -26.501   4.406  0.00  0.00    +0.209 HD
ENDBRANCH  33  34
ENDBRANCH  32  33
ENDBRANCH   1  32
TORSDOF 13
ENDMDL
MODEL 8
REMARK VINA RESULT:      -7.8      3.812      6.420
REMARK  Name = *****
REMARK                            x       y       z     vdW  Elec       q    Type
REMARK                         _______ _______ _______ _____ _____    ______ ____
ROOT
ATOM      1  N   LIG    1       25.914 -31.426  11.696  0.00  0.00    -0.283 NA
ENDROOT
BRANCH   1   2
ATOM      2  C   LIG    1       26.351 -30.941  10.315  0.00  0.00    +0.181 C 
BRANCH   2   5
ATOM      3  C   LIG    1       26.820 -32.061   7.599  0.00  0.00    +0.132 C 
ATOM      4  N   LIG    1       25.660 -31.189   7.752  0.00  0.00    -0.298 N 
ATOM      5  C   LIG    1       25.270 -30.783   9.087  0.00  0.00    +0.230 C 
ATOM      6  O   LIG    1       24.227 -30.227   9.256  0.00  0.00    -0.274 OA
BRANCH   4   7
ATOM      7  C   LIG    1       24.826 -30.915   6.369  0.00  0.00    +0.035 C 
ATOM      8  C   LIG    1       23.734 -32.028   6.238  0.00  0.00    +0.032 C 
ATOM      9  C   LIG    1       25.667 -31.058   5.067  0.00  0.00    +0.032 C 
BRANCH   7  10
ATOM     10  C   LIG    1       24.061 -29.516   6.385  0.00  0.00    +0.060 C 
BRANCH  10  11
ATOM     11  C   LIG    1       24.774 -28.148   6.211  0.00  0.00    -0.045 A 
ATOM     12  C   LIG    1       25.589 -27.627   7.237  0.00  0.00    +0.003 A 
ATOM     13  C   LIG    1       26.187 -26.355   7.141  0.00  0.00    +0.000 A 
ATOM     14  C   LIG    1       25.942 -25.542   6.040  0.00  0.00    +0.000 A 
ATOM     15  C   LIG    1       25.093 -26.004   5.039  0.00  0.00    +0.000 A 
ATOM     16  C   LIG    1       24.527 -27.296   5.116  0.00  0.00    +0.003 A 
ENDBRANCH  10  11
ENDBRANCH   7  10
ENDBRANCH   4   7
ENDBRANCH   2   5
ENDBRANCH   1   2
BRANCH   1  17
ATOM     17  C   LIG    1       26.083 -30.249  12.616  0.00  0.00    +0.181 C 
BRANCH  17  18
ATOM     18  C   LIG    1       27.287 -29.962  13.498  0.00  0.00    +0.230 C 
ATOM     19  N   LIG    1       27.345 -28.598  13.907  0.00  0.00    -0.298 N 
ATOM     20  C   LIG    1       28.561 -28.317  14.724  0.00  0.00    +0.132 C 
ATOM     21  O   LIG    1       27.930 -30.827  13.972  0.00  0.00    -0.274 OA
BRANCH  19  22
ATOM     22  C   LIG    1       26.592 -27.460  13.196  0.00  0.00    +0.035 C 
ATOM     23  C   LIG    1       27.011 -27.548  11.656  0.00  0.00    +0.032 C 
ATOM     24  C   LIG    1       27.267 -26.116  13.639  0.00  0.00    +0.032 C 
BRANCH  22  25
ATOM     25  C   LIG    1       24.821 -27.085  13.677  0.00  0.00    +0.060 C 
BRANCH  25  26
ATOM     26  C   LIG    1       23.150 -27.399  13.113  0.00  0.00    -0.045 A 
ATOM     27  C   LIG    1       22.069 -26.486  13.246  0.00  0.00    +0.003 A 
ATOM     28  C   LIG    1       20.697 -26.921  13.250  0.00  0.00    +0.000 A 
ATOM     29  C   LIG    1       20.315 -28.225  12.953  0.00  0.00    +0.000 A 
ATOM     30  C   LIG    1       21.307 -29.104  12.617  0.00  0.00    +0.000 A 
ATOM     31  C   LIG    1       22.657 -28.670  12.607  0.00  0.00    +0.003 A 
ENDBRANCH  25  26
ENDBRANCH  22  25
ENDBRANCH  19  22
ENDBRANCH  17  18
ENDBRANCH   1  17
BRANCH   1  32
ATOM     32  C   LIG    1       24.769 -32.445  11.728  0.00  0.00    +0.113 C 
BRANCH  32  33
ATOM     33  C   LIG    1       23.098 -32.437  11.817  0.00  0.00    +0.171 C 
BRANCH  33  34
ATOM     34  O   LIG    1       22.347 -31.923  10.720  0.00  0.00    -0.394 OA
ATOM     35  H   LIG    1       21.435 -32.271  10.797  0.00  0.00    +0.209 HD
ENDBRANCH  33  34
ENDBRANCH  32  33
ENDBRANCH   1  32
TORSDOF 13
ENDMDL
MODEL 9
REMARK VINA RESULT:      -7.7      3.915      8.532
REMARK  Name = *****
REMARK                            x       y       z     vdW  Elec       q    Type
REMARK                         _______ _______ _______ _____ _____    ______ ____
ROOT
ATOM      1  N   LIG    1       26.093 -31.063  10.994  0.00  0.00    -0.283 NA
ENDROOT
BRANCH   1   2
ATOM      2  C   LIG    1       24.983 -31.319  12.012  0.00  0.00    +0.181 C 
BRANCH   2   5
ATOM      3  C   LIG    1       22.509 -29.705  11.656  0.00  0.00    +0.132 C 
ATOM      4  N   LIG    1       23.408 -29.289  12.728  0.00  0.00    -0.298 N 
ATOM      5  C   LIG    1       24.518 -30.154  13.075  0.00  0.00    +0.230 C 
ATOM      6  O   LIG    1       25.156 -29.933  14.059  0.00  0.00    -0.274 OA
BRANCH   4   7
ATOM      7  C   LIG    1       22.934 -27.944  13.534  0.00  0.00    +0.035 C 
ATOM      8  C   LIG    1       24.067 -26.876  13.392  0.00  0.00    +0.032 C 
ATOM      9  C   LIG    1       22.784 -28.132  15.072  0.00  0.00    +0.032 C 
BRANCH   7  10
ATOM     10  C   LIG    1       21.611 -27.301  12.920  0.00  0.00    +0.060 C 
BRANCH  10  11
ATOM     11  C   LIG    1       20.213 -27.421  13.582  0.00  0.00    -0.045 A 
ATOM     12  C   LIG    1       19.664 -28.686  13.878  0.00  0.00    +0.003 A 
ATOM     13  C   LIG    1       18.367 -28.832  14.407  0.00  0.00    +0.000 A 
ATOM     14  C   LIG    1       17.557 -27.719  14.605  0.00  0.00    +0.000 A 
ATOM     15  C   LIG    1       18.049 -26.462  14.268  0.00  0.00    +0.000 A 
ATOM     16  C   LIG    1       19.364 -26.313  13.775  0.00  0.00    +0.003 A 
ENDBRANCH  10  11
ENDBRANCH   7  10
ENDBRANCH   4   7
ENDBRANCH   2   5
ENDBRANCH   1   2
BRANCH   1  17
ATOM     17  C   LIG    1       25.709 -31.841   9.766  0.00  0.00    +0.181 C 
BRANCH  17  18
ATOM     18  C   LIG    1       26.661 -32.554   8.819  0.00  0.00    +0.230 C 
ATOM     19  N   LIG    1       26.569 -32.058   7.486  0.00  0.00    -0.298 N 
ATOM     20  C   LIG    1       27.465 -32.803   6.555  0.00  0.00    +0.132 C 
ATOM     21  O   LIG    1       27.528 -33.246   9.214  0.00  0.00    -0.274 OA
BRANCH  19  22
ATOM     22  C   LIG    1       25.366 -31.259   6.953  0.00  0.00    +0.035 C 
ATOM     23  C   LIG    1       24.118 -32.256   6.999  0.00  0.00    +0.032 C 
ATOM     24  C   LIG    1       25.582 -31.081   5.409  0.00  0.00    +0.032 C 
BRANCH  22  25
ATOM     25  C   LIG    1       25.164 -29.462   7.441  0.00  0.00    +0.060 C 
BRANCH  25  26
ATOM     26  C   LIG    1       25.251 -27.825   6.719  0.00  0.00    -0.045 A 
ATOM     27  C   LIG    1       26.150 -26.806   7.137  0.00  0.00    +0.003 A 
ATOM     28  C   LIG    1       25.882 -25.411   6.907  0.00  0.00    +0.000 A 
ATOM     29  C   LIG    1       24.829 -24.961   6.117  0.00  0.00    +0.000 A 
ATOM     30  C   LIG    1       24.047 -25.911   5.521  0.00  0.00    +0.000 A 
ATOM     31  C   LIG    1       24.318 -27.284   5.743  0.00  0.00    +0.003 A 
ENDBRANCH  25  26
ENDBRANCH  22  25
ENDBRANCH  19  22
ENDBRANCH  17  18
ENDBRANCH   1  17
BRANCH   1  32
ATOM     32  C   LIG    1       26.734 -29.670  11.022  0.00  0.00    +0.113 C 
BRANCH  32  33
ATOM     33  C   LIG    1       27.941 -28.872  11.862  0.00  0.00    +0.171 C 
BRANCH  33  34
ATOM     34  O   LIG    1       29.302 -29.222  11.623  0.00  0.00    -0.394 OA
ATOM     35  H   LIG    1       29.326 -29.781  10.819  0.00  0.00    +0.209 HD
ENDBRANCH  33  34
ENDBRANCH  32  33
ENDBRANCH   1  32
TORSDOF 13
ENDMDL
