MODEL 1
REMARK VINA RESULT:      -7.9      0.000      0.000
REMARK  Name = *****
REMARK                            x       y       z     vdW  Elec       q    Type
REMARK                         _______ _______ _______ _____ _____    ______ ____
ROOT
ATOM      1  C   LIG    1       26.143 -23.243   7.665  0.00  0.00    +0.027 C 
ATOM      2  C   LIG    1       25.358 -22.766   6.426  0.00  0.00    +0.086 C 
ATOM      3  N   LIG    1       24.598 -23.852   5.753  0.00  0.00    -0.298 NA
ATOM      4  C   LIG    1       25.404 -25.009   5.384  0.00  0.00    +0.105 C 
ATOM      5  C   LIG    1       23.416 -24.239   6.540  0.00  0.00    +0.112 C 
ATOM      6  C   LIG    1       22.548 -23.022   6.890  0.00  0.00    +0.176 C 
ATOM      7  O   LIG    1       23.290 -22.021   7.596  0.00  0.00    -0.369 OA
ATOM      8  C   LIG    1       24.432 -21.567   6.840  0.00  0.00    +0.165 C 
ENDROOT
BRANCH   8   9
ATOM      9  C   LIG    1       23.999 -20.585   5.757  0.00  0.00    -0.017 A 
ATOM     10  C   LIG    1       24.891 -20.312   4.704  0.00  0.00    +0.006 A 
ATOM     11  C   LIG    1       24.546 -19.427   3.679  0.00  0.00    +0.000 A 
ATOM     12  C   LIG    1       23.311 -18.791   3.697  0.00  0.00    +0.000 A 
ATOM     13  C   LIG    1       22.420 -19.035   4.741  0.00  0.00    +0.000 A 
ATOM     14  C   LIG    1       22.762 -19.925   5.762  0.00  0.00    +0.006 A 
ENDBRANCH   8   9
TORSDOF 1
ENDMDL
MODEL 2
REMARK VINA RESULT:      -7.2      7.140      8.408
REMARK  Name = *****
REMARK                            x       y       z     vdW  Elec       q    Type
REMARK                         _______ _______ _______ _____ _____    ______ ____
ROOT
ATOM      1  C   LIG    1       29.239 -19.086   5.824  0.00  0.00    +0.027 C 
ATOM      2  C   LIG    1       29.344 -18.865   7.347  0.00  0.00    +0.086 C 
ATOM      3  N   LIG    1       28.783 -19.985   8.147  0.00  0.00    -0.298 NA
ATOM      4  C   LIG    1       27.405 -20.327   7.814  0.00  0.00    +0.105 C 
ATOM      5  C   LIG    1       29.664 -21.163   8.104  0.00  0.00    +0.112 C 
ATOM      6  C   LIG    1       31.104 -20.804   8.496  0.00  0.00    +0.176 C 
ATOM      7  O   LIG    1       31.643 -19.770   7.666  0.00  0.00    -0.369 OA
ATOM      8  C   LIG    1       30.843 -18.571   7.716  0.00  0.00    +0.165 C 
ENDROOT
BRANCH   8   9
ATOM      9  C   LIG    1       31.128 -17.792   8.996  0.00  0.00    -0.017 A 
ATOM     10  C   LIG    1       32.385 -17.177   9.141  0.00  0.00    +0.006 A 
ATOM     11  C   LIG    1       32.700 -16.445  10.288  0.00  0.00    +0.000 A 
ATOM     12  C   LIG    1       31.770 -16.325  11.314  0.00  0.00    +0.000 A 
ATOM     13  C   LIG    1       30.525 -16.941  11.196  0.00  0.00    +0.000 A 
ATOM     14  C   LIG    1       30.207 -17.668  10.046  0.00  0.00    +0.006 A 
ENDBRANCH   8   9
TORSDOF 1
ENDMDL
MODEL 3
REMARK VINA RESULT:      -7.1      3.417      4.743
REMARK  Name = *****
REMARK                            x       y       z     vdW  Elec       q    Type
REMARK                         _______ _______ _______ _____ _____    ______ ____
ROOT
ATOM      1  C   LIG    1       25.696 -23.697   6.833  0.00  0.00    +0.027 C 
ATOM      2  C   LIG    1       26.202 -22.277   6.508  0.00  0.00    +0.086 C 
ATOM      3  N   LIG    1       25.122 -21.256   6.482  0.00  0.00    -0.298 NA
ATOM      4  C   LIG    1       24.015 -21.578   5.591  0.00  0.00    +0.105 C 
ATOM      5  C   LIG    1       24.655 -20.942   7.842  0.00  0.00    +0.112 C 
ATOM      6  C   LIG    1       25.821 -20.563   8.765  0.00  0.00    +0.176 C 
ATOM      7  O   LIG    1       26.814 -21.593   8.823  0.00  0.00    -0.369 OA
ATOM      8  C   LIG    1       27.345 -21.900   7.518  0.00  0.00    +0.165 C 
ENDROOT
BRANCH   8   9
ATOM      9  C   LIG    1       28.361 -20.845   7.092  0.00  0.00    -0.017 A 
ATOM     10  C   LIG    1       29.573 -20.757   7.801  0.00  0.00    +0.006 A 
ATOM     11  C   LIG    1       30.544 -19.815   7.452  0.00  0.00    +0.000 A 
ATOM     12  C   LIG    1       30.315 -18.938   6.398  0.00  0.00    +0.000 A 
ATOM     13  C   LIG    1       29.113 -18.998   5.695  0.00  0.00    +0.000 A 
ATOM     14  C   LIG    1       28.144 -19.945   6.040  0.00  0.00    +0.006 A 
ENDBRANCH   8   9
TORSDOF 1
ENDMDL
MODEL 4
REMARK VINA RESULT:      -7.0      1.796      5.067
REMARK  Name = *****
REMARK                            x       y       z     vdW  Elec       q    Type
REMARK                         _______ _______ _______ _____ _____    ______ ____
ROOT
ATOM      1  C   LIG    1       23.348 -20.843   6.829  0.00  0.00    +0.027 C 
ATOM      2  C   LIG    1       24.259 -21.819   6.057  0.00  0.00    +0.086 C 
ATOM      3  N   LIG    1       25.397 -21.151   5.373  0.00  0.00    -0.298 NA
ATOM      4  C   LIG    1       25.006 -20.066   4.481  0.00  0.00    +0.105 C 
ATOM      5  C   LIG    1       26.420 -20.721   6.339  0.00  0.00    +0.112 C 
ATOM      6  C   LIG    1       26.858 -21.878   7.248  0.00  0.00    +0.176 C 
ATOM      7  O   LIG    1       25.751 -22.459   7.946  0.00  0.00    -0.369 OA
ATOM      8  C   LIG    1       24.741 -22.947   7.038  0.00  0.00    +0.165 C 
ENDROOT
BRANCH   8   9
ATOM      9  C   LIG    1       25.162 -24.287   6.442  0.00  0.00    -0.017 A 
ATOM     10  C   LIG    1       24.888 -24.533   5.084  0.00  0.00    +0.006 A 
ATOM     11  C   LIG    1       25.256 -25.738   4.482  0.00  0.00    +0.000 A 
ATOM     12  C   LIG    1       25.893 -26.722   5.229  0.00  0.00    +0.000 A 
ATOM     13  C   LIG    1       26.159 -26.504   6.579  0.00  0.00    +0.000 A 
ATOM     14  C   LIG    1       25.796 -25.296   7.181  0.00  0.00    +0.006 A 
ENDBRANCH   8   9
TORSDOF 1
ENDMDL
MODEL 5
REMARK VINA RESULT:      -6.7      1.499      2.498
REMARK  Name = *****
REMARK                            x       y       z     vdW  Elec       q    Type
REMARK                         _______ _______ _______ _____ _____    ______ ____
ROOT
ATOM      1  C   LIG    1       25.883 -20.890   9.185  0.00  0.00    +0.027 C 
ATOM      2  C   LIG    1       25.843 -20.752   7.649  0.00  0.00    +0.086 C 
ATOM      3  N   LIG    1       26.762 -21.686   6.947  0.00  0.00    -0.298 NA
ATOM      4  C   LIG    1       28.148 -21.610   7.391  0.00  0.00    +0.105 C 
ATOM      5  C   LIG    1       26.250 -23.065   6.987  0.00  0.00    +0.112 C 
ATOM      6  C   LIG    1       24.804 -23.145   6.479  0.00  0.00    +0.176 C 
ATOM      7  O   LIG    1       23.929 -22.286   7.217  0.00  0.00    -0.369 OA
ATOM      8  C   LIG    1       24.357 -20.909   7.163  0.00  0.00    +0.165 C 
ENDROOT
BRANCH   8   9
ATOM      9  C   LIG    1       23.967 -20.281   5.829  0.00  0.00    -0.017 A 
ATOM     10  C   LIG    1       22.665 -19.769   5.684  0.00  0.00    +0.006 A 
ATOM     11  C   LIG    1       22.253 -19.175   4.489  0.00  0.00    +0.000 A 
ATOM     12  C   LIG    1       23.131 -19.096   3.414  0.00  0.00    +0.000 A 
ATOM     13  C   LIG    1       24.420 -19.613   3.532  0.00  0.00    +0.000 A 
ATOM     14  C   LIG    1       24.834 -20.200   4.731  0.00  0.00    +0.006 A 
ENDBRANCH   8   9
TORSDOF 1
ENDMDL
MODEL 6
REMARK VINA RESULT:      -6.5      3.310      4.800
REMARK  Name = *****
REMARK                            x       y       z     vdW  Elec       q    Type
REMARK                         _______ _______ _______ _____ _____    ______ ____
ROOT
ATOM      1  C   LIG    1       25.029 -23.069   5.892  0.00  0.00    +0.027 C 
ATOM      2  C   LIG    1       25.762 -21.717   6.009  0.00  0.00    +0.086 C 
ATOM      3  N   LIG    1       24.870 -20.591   6.391  0.00  0.00    -0.298 NA
ATOM      4  C   LIG    1       23.711 -20.424   5.523  0.00  0.00    +0.105 C 
ATOM      5  C   LIG    1       24.484 -20.677   7.808  0.00  0.00    +0.112 C 
ATOM      6  C   LIG    1       25.711 -20.810   8.720  0.00  0.00    +0.176 C 
ATOM      7  O   LIG    1       26.517 -21.941   8.372  0.00  0.00    -0.369 OA
ATOM      8  C   LIG    1       26.968 -21.878   7.003  0.00  0.00    +0.165 C 
ENDROOT
BRANCH   8   9
ATOM      9  C   LIG    1       28.141 -20.912   6.873  0.00  0.00    -0.017 A 
ATOM     10  C   LIG    1       28.080 -19.912   5.885  0.00  0.00    +0.006 A 
ATOM     11  C   LIG    1       29.121 -18.994   5.724  0.00  0.00    +0.000 A 
ATOM     12  C   LIG    1       30.245 -19.069   6.538  0.00  0.00    +0.000 A 
ATOM     13  C   LIG    1       30.333 -20.063   7.510  0.00  0.00    +0.000 A 
ATOM     14  C   LIG    1       29.288 -20.977   7.676  0.00  0.00    +0.006 A 
ENDBRANCH   8   9
TORSDOF 1
ENDMDL
MODEL 7
REMARK VINA RESULT:      -6.5      4.552      5.988
REMARK  Name = *****
REMARK                            x       y       z     vdW  Elec       q    Type
REMARK                         _______ _______ _______ _____ _____    ______ ____
ROOT
ATOM      1  C   LIG    1       30.950 -21.129   8.418  0.00  0.00    +0.027 C 
ATOM      2  C   LIG    1       29.571 -20.438   8.389  0.00  0.00    +0.086 C 
ATOM      3  N   LIG    1       29.649 -18.957   8.491  0.00  0.00    -0.298 NA
ATOM      4  C   LIG    1       30.393 -18.475   9.647  0.00  0.00    +0.105 C 
ATOM      5  C   LIG    1       30.141 -18.363   7.237  0.00  0.00    +0.112 C 
ATOM      6  C   LIG    1       29.326 -18.843   6.028  0.00  0.00    +0.176 C 
ATOM      7  O   LIG    1       29.324 -20.271   5.916  0.00  0.00    -0.369 OA
ATOM      8  C   LIG    1       28.798 -20.901   7.102  0.00  0.00    +0.165 C 
ENDROOT
BRANCH   8   9
ATOM      9  C   LIG    1       27.274 -20.828   7.114  0.00  0.00    -0.017 A 
ATOM     10  C   LIG    1       26.608 -20.919   8.350  0.00  0.00    +0.006 A 
ATOM     11  C   LIG    1       25.215 -20.850   8.423  0.00  0.00    +0.000 A 
ATOM     12  C   LIG    1       24.464 -20.703   7.263  0.00  0.00    +0.000 A 
ATOM     13  C   LIG    1       25.104 -20.628   6.028  0.00  0.00    +0.000 A 
ATOM     14  C   LIG    1       26.499 -20.690   5.954  0.00  0.00    +0.006 A 
ENDBRANCH   8   9
TORSDOF 1
ENDMDL
MODEL 8
REMARK VINA RESULT:      -6.3      2.323      4.948
REMARK  Name = *****
REMARK                            x       y       z     vdW  Elec       q    Type
REMARK                         _______ _______ _______ _____ _____    ______ ____
ROOT
ATOM      1  C   LIG    1       26.110 -20.386   5.719  0.00  0.00    +0.027 C 
ATOM      2  C   LIG    1       25.933 -21.732   6.449  0.00  0.00    +0.086 C 
ATOM      3  N   LIG    1       25.287 -21.602   7.782  0.00  0.00    -0.298 NA
ATOM      4  C   LIG    1       25.949 -20.663   8.679  0.00  0.00    +0.105 C 
ATOM      5  C   LIG    1       23.850 -21.312   7.650  0.00  0.00    +0.112 C 
ATOM      6  C   LIG    1       23.151 -22.330   6.738  0.00  0.00    +0.176 C 
ATOM      7  O   LIG    1       23.752 -22.386   5.439  0.00  0.00    -0.369 OA
ATOM      8  C   LIG    1       25.153 -22.722   5.510  0.00  0.00    +0.165 C 
ENDROOT
BRANCH   8   9
ATOM      9  C   LIG    1       25.332 -24.219   5.737  0.00  0.00    -0.017 A 
ATOM     10  C   LIG    1       25.004 -25.100   4.690  0.00  0.00    +0.006 A 
ATOM     11  C   LIG    1       25.155 -26.481   4.837  0.00  0.00    +0.000 A 
ATOM     12  C   LIG    1       25.622 -27.005   6.037  0.00  0.00    +0.000 A 
ATOM     13  C   LIG    1       25.936 -26.151   7.092  0.00  0.00    +0.000 A 
ATOM     14  C   LIG    1       25.792 -24.768   6.942  0.00  0.00    +0.006 A 
ENDBRANCH   8   9
TORSDOF 1
ENDMDL
MODEL 9
REMARK VINA RESULT:      -6.3      2.602      4.099
REMARK  Name = *****
REMARK                            x       y       z     vdW  Elec       q    Type
REMARK                         _______ _______ _______ _____ _____    ______ ____
ROOT
ATOM      1  C   LIG    1       23.273 -21.859   7.616  0.00  0.00    +0.027 C 
ATOM      2  C   LIG    1       24.720 -22.066   7.126  0.00  0.00    +0.086 C 
ATOM      3  N   LIG    1       24.835 -23.053   6.021  0.00  0.00    -0.298 NA
ATOM      4  C   LIG    1       24.247 -24.354   6.316  0.00  0.00    +0.105 C 
ATOM      5  C   LIG    1       24.325 -22.498   4.757  0.00  0.00    +0.112 C 
ATOM      6  C   LIG    1       24.979 -21.148   4.430  0.00  0.00    +0.176 C 
ATOM      7  O   LIG    1       24.795 -20.195   5.483  0.00  0.00    -0.369 OA
ATOM      8  C   LIG    1       25.329 -20.671   6.736  0.00  0.00    +0.165 C 
ENDROOT
BRANCH   8   9
ATOM      9  C   LIG    1       26.846 -20.516   6.763  0.00  0.00    -0.017 A 
ATOM     10  C   LIG    1       27.575 -21.214   7.743  0.00  0.00    +0.006 A 
ATOM     11  C   LIG    1       28.966 -21.117   7.811  0.00  0.00    +0.000 A 
ATOM     12  C   LIG    1       29.652 -20.311   6.910  0.00  0.00    +0.000 A 
ATOM     13  C   LIG    1       28.947 -19.598   5.942  0.00  0.00    +0.000 A 
ATOM     14  C   LIG    1       27.555 -19.701   5.869  0.00  0.00    +0.006 A 
ENDBRANCH   8   9
TORSDOF 1
ENDMDL
