MODEL 1
REMARK VINA RESULT:      -5.4      0.000      0.000
REMARK  Name = *****
REMARK                            x       y       z     vdW  Elec       q    Type
REMARK                         _______ _______ _______ _____ _____    ______ ____
ROOT
ATOM      1  N   LIG    1       26.483 -20.037   4.741  0.00  0.00    -0.284 N 
ATOM      2  H   LIG    1       26.843 -20.673   4.043  0.00  0.00    +0.155 HD
ATOM      3  C   LIG    1       27.160 -20.087   5.956  0.00  0.00    +0.234 C 
ATOM      4  O   LIG    1       26.649 -19.907   7.062  0.00  0.00    -0.274 OA
ENDROOT
BRANCH   1   7
ATOM      5  C   LIG    1       24.533 -21.572   6.378  0.00  0.00    +0.045 C 
ATOM      6  C   LIG    1       24.155 -20.468   5.425  0.00  0.00    -0.029 A 
ATOM      7  C   LIG    1       25.102 -19.736   4.672  0.00  0.00    +0.039 A 
ATOM      8  C   LIG    1       24.682 -18.660   3.859  0.00  0.00    -0.029 A 
ATOM      9  C   LIG    1       25.643 -17.846   3.036  0.00  0.00    +0.045 C 
ATOM     10  C   LIG    1       23.315 -18.354   3.781  0.00  0.00    +0.005 A 
ATOM     11  C   LIG    1       22.376 -19.101   4.486  0.00  0.00    +0.001 A 
ATOM     12  C   LIG    1       22.794 -20.149   5.302  0.00  0.00    +0.005 A 
ENDBRANCH   1   7
BRANCH   3  13
ATOM     13  C   LIG    1       28.654 -20.424   5.783  0.00  0.00    +0.135 C 
ATOM     14  C   LIG    1       29.220 -21.060   7.050  0.00  0.00    +0.033 C 
BRANCH  13  15
ATOM     15  N   LIG    1       29.410 -19.196   5.465  0.00  0.00    -0.320 NA
ATOM     16  H   LIG    1       29.273 -18.511   6.209  0.00  0.00    +0.119 HD
ATOM     17  H   LIG    1       30.408 -19.418   5.487  0.00  0.00    +0.119 HD
ENDBRANCH  13  15
ENDBRANCH   3  13
TORSDOF 3
ENDMDL
MODEL 2
REMARK VINA RESULT:      -4.8      0.538      2.354
REMARK  Name = *****
REMARK                            x       y       z     vdW  Elec       q    Type
REMARK                         _______ _______ _______ _____ _____    ______ ____
ROOT
ATOM      1  N   LIG    1       26.339 -19.612   4.528  0.00  0.00    -0.284 N 
ATOM      2  H   LIG    1       26.739 -20.119   3.751  0.00  0.00    +0.155 HD
ATOM      3  C   LIG    1       26.959 -19.865   5.749  0.00  0.00    +0.234 C 
ATOM      4  O   LIG    1       26.394 -19.877   6.843  0.00  0.00    -0.274 OA
ENDROOT
BRANCH   1   7
ATOM      5  C   LIG    1       25.437 -17.067   3.283  0.00  0.00    +0.045 C 
ATOM      6  C   LIG    1       24.509 -18.095   3.878  0.00  0.00    -0.029 A 
ATOM      7  C   LIG    1       24.959 -19.309   4.445  0.00  0.00    +0.039 A 
ATOM      8  C   LIG    1       24.027 -20.263   4.910  0.00  0.00    -0.029 A 
ATOM      9  C   LIG    1       24.446 -21.571   5.523  0.00  0.00    +0.045 C 
ATOM     10  C   LIG    1       22.656 -19.972   4.836  0.00  0.00    +0.005 A 
ATOM     11  C   LIG    1       22.212 -18.759   4.319  0.00  0.00    +0.001 A 
ATOM     12  C   LIG    1       23.132 -17.828   3.843  0.00  0.00    +0.005 A 
ENDBRANCH   1   7
BRANCH   3  13
ATOM     13  C   LIG    1       28.463 -20.163   5.594  0.00  0.00    +0.135 C 
ATOM     14  C   LIG    1       29.021 -20.823   6.852  0.00  0.00    +0.033 C 
BRANCH  13  15
ATOM     15  N   LIG    1       29.196 -18.910   5.326  0.00  0.00    -0.320 NA
ATOM     16  H   LIG    1       30.104 -18.942   5.790  0.00  0.00    +0.119 HD
ATOM     17  H   LIG    1       29.408 -18.869   4.327  0.00  0.00    +0.119 HD
ENDBRANCH  13  15
ENDBRANCH   3  13
TORSDOF 3
ENDMDL
MODEL 3
REMARK VINA RESULT:      -4.5      1.907      4.557
REMARK  Name = *****
REMARK                            x       y       z     vdW  Elec       q    Type
REMARK                         _______ _______ _______ _____ _____    ______ ____
ROOT
ATOM      1  N   LIG    1       26.048 -20.490   4.886  0.00  0.00    -0.284 N 
ATOM      2  H   LIG    1       25.716 -20.407   3.936  0.00  0.00    +0.155 HD
ATOM      3  C   LIG    1       25.043 -20.736   5.818  0.00  0.00    +0.234 C 
ATOM      4  O   LIG    1       25.038 -20.331   6.981  0.00  0.00    -0.274 OA
ENDROOT
BRANCH   1   7
ATOM      5  C   LIG    1       28.004 -21.569   6.848  0.00  0.00    +0.045 C 
ATOM      6  C   LIG    1       28.137 -20.231   6.168  0.00  0.00    -0.029 A 
ATOM      7  C   LIG    1       27.206 -19.748   5.221  0.00  0.00    +0.039 A 
ATOM      8  C   LIG    1       27.436 -18.520   4.562  0.00  0.00    -0.029 A 
ATOM      9  C   LIG    1       26.481 -17.955   3.547  0.00  0.00    +0.045 C 
ATOM     10  C   LIG    1       28.579 -17.773   4.889  0.00  0.00    +0.005 A 
ATOM     11  C   LIG    1       29.475 -18.225   5.853  0.00  0.00    +0.001 A 
ATOM     12  C   LIG    1       29.255 -19.445   6.486  0.00  0.00    +0.005 A 
ENDBRANCH   1   7
BRANCH   3  13
ATOM     13  C   LIG    1       23.887 -21.570   5.231  0.00  0.00    +0.135 C 
ATOM     14  C   LIG    1       23.885 -21.503   3.707  0.00  0.00    +0.033 C 
BRANCH  13  15
ATOM     15  N   LIG    1       22.599 -21.072   5.751  0.00  0.00    -0.320 NA
ATOM     16  H   LIG    1       22.582 -20.053   5.697  0.00  0.00    +0.119 HD
ATOM     17  H   LIG    1       21.856 -21.385   5.121  0.00  0.00    +0.119 HD
ENDBRANCH  13  15
ENDBRANCH   3  13
TORSDOF 3
ENDMDL
MODEL 4
REMARK VINA RESULT:      -4.3      4.960      6.281
REMARK  Name = *****
REMARK                            x       y       z     vdW  Elec       q    Type
REMARK                         _______ _______ _______ _____ _____    ______ ____
ROOT
ATOM      1  N   LIG    1       26.525 -13.565   3.785  0.00  0.00    -0.284 N 
ATOM      2  H   LIG    1       27.039 -13.656   2.920  0.00  0.00    +0.155 HD
ATOM      3  C   LIG    1       27.311 -13.197   4.874  0.00  0.00    +0.234 C 
ATOM      4  O   LIG    1       27.124 -13.555   6.038  0.00  0.00    -0.274 OA
ENDROOT
BRANCH   1   7
ATOM      5  C   LIG    1       23.883 -12.370   4.439  0.00  0.00    +0.045 C 
ATOM      6  C   LIG    1       24.125 -13.848   4.269  0.00  0.00    -0.029 A 
ATOM      7  C   LIG    1       25.386 -14.392   3.937  0.00  0.00    +0.039 A 
ATOM      8  C   LIG    1       25.523 -15.780   3.713  0.00  0.00    -0.029 A 
ATOM      9  C   LIG    1       26.839 -16.416   3.358  0.00  0.00    +0.045 C 
ATOM     10  C   LIG    1       24.402 -16.611   3.864  0.00  0.00    +0.005 A 
ATOM     11  C   LIG    1       23.168 -16.082   4.235  0.00  0.00    +0.001 A 
ATOM     12  C   LIG    1       23.032 -14.712   4.435  0.00  0.00    +0.005 A 
ENDBRANCH   1   7
BRANCH   3  13
ATOM     13  C   LIG    1       28.489 -12.290   4.470  0.00  0.00    +0.135 C 
ATOM     14  C   LIG    1       29.454 -13.027   3.546  0.00  0.00    +0.033 C 
BRANCH  13  15
ATOM     15  N   LIG    1       29.208 -11.837   5.677  0.00  0.00    -0.320 NA
ATOM     16  H   LIG    1       29.971 -12.483   5.880  0.00  0.00    +0.119 HD
ATOM     17  H   LIG    1       29.661 -10.946   5.466  0.00  0.00    +0.119 HD
ENDBRANCH  13  15
ENDBRANCH   3  13
TORSDOF 3
ENDMDL
MODEL 5
REMARK VINA RESULT:      -4.3      4.915      6.099
REMARK  Name = *****
REMARK                            x       y       z     vdW  Elec       q    Type
REMARK                         _______ _______ _______ _____ _____    ______ ____
ROOT
ATOM      1  N   LIG    1       26.526 -13.624   3.750  0.00  0.00    -0.284 N 
ATOM      2  H   LIG    1       27.041 -13.697   2.883  0.00  0.00    +0.155 HD
ATOM      3  C   LIG    1       27.304 -13.244   4.841  0.00  0.00    +0.234 C 
ATOM      4  O   LIG    1       27.128 -13.615   6.002  0.00  0.00    -0.274 OA
ENDROOT
BRANCH   1   7
ATOM      5  C   LIG    1       26.829 -16.560   3.389  0.00  0.00    +0.045 C 
ATOM      6  C   LIG    1       25.524 -15.876   3.708  0.00  0.00    -0.029 A 
ATOM      7  C   LIG    1       25.408 -14.480   3.897  0.00  0.00    +0.039 A 
ATOM      8  C   LIG    1       24.169 -13.915   4.274  0.00  0.00    -0.029 A 
ATOM      9  C   LIG    1       23.985 -12.438   4.489  0.00  0.00    +0.045 C 
ATOM     10  C   LIG    1       23.053 -14.753   4.419  0.00  0.00    +0.005 A 
ATOM     11  C   LIG    1       23.154 -16.122   4.190  0.00  0.00    +0.001 A 
ATOM     12  C   LIG    1       24.381 -16.678   3.838  0.00  0.00    +0.005 A 
ENDBRANCH   1   7
BRANCH   3  13
ATOM     13  C   LIG    1       28.459 -12.306   4.442  0.00  0.00    +0.135 C 
ATOM     14  C   LIG    1       29.444 -13.014   3.517  0.00  0.00    +0.033 C 
BRANCH  13  15
ATOM     15  N   LIG    1       29.164 -11.839   5.652  0.00  0.00    -0.320 NA
ATOM     16  H   LIG    1       29.097 -12.552   6.379  0.00  0.00    +0.119 HD
ATOM     17  H   LIG    1       30.161 -11.770   5.437  0.00  0.00    +0.119 HD
ENDBRANCH  13  15
ENDBRANCH   3  13
TORSDOF 3
ENDMDL
MODEL 6
REMARK VINA RESULT:      -3.6      4.534      5.828
REMARK  Name = *****
REMARK                            x       y       z     vdW  Elec       q    Type
REMARK                         _______ _______ _______ _____ _____    ______ ____
ROOT
ATOM      1  N   LIG    1       26.393 -14.513   3.542  0.00  0.00    -0.284 N 
ATOM      2  H   LIG    1       26.946 -14.861   2.771  0.00  0.00    +0.155 HD
ATOM      3  C   LIG    1       27.143 -13.925   4.557  0.00  0.00    +0.234 C 
ATOM      4  O   LIG    1       26.861 -13.952   5.755  0.00  0.00    -0.274 OA
ENDROOT
BRANCH   1   7
ATOM      5  C   LIG    1       23.947 -12.985   4.265  0.00  0.00    +0.045 C 
ATOM      6  C   LIG    1       24.012 -14.489   4.179  0.00  0.00    -0.029 A 
ATOM      7  C   LIG    1       25.182 -15.193   3.812  0.00  0.00    +0.039 A 
ATOM      8  C   LIG    1       25.149 -16.598   3.673  0.00  0.00    -0.029 A 
ATOM      9  C   LIG    1       26.360 -17.401   3.285  0.00  0.00    +0.045 C 
ATOM     10  C   LIG    1       23.954 -17.284   3.942  0.00  0.00    +0.005 A 
ATOM     11  C   LIG    1       22.813 -16.597   4.347  0.00  0.00    +0.001 A 
ATOM     12  C   LIG    1       22.843 -15.210   4.464  0.00  0.00    +0.005 A 
ENDBRANCH   1   7
BRANCH   3  13
ATOM     13  C   LIG    1       28.415 -13.236   4.026  0.00  0.00    +0.135 C 
ATOM     14  C   LIG    1       28.882 -12.142   4.980  0.00  0.00    +0.033 C 
BRANCH  13  15
ATOM     15  N   LIG    1       28.149 -12.653   2.696  0.00  0.00    -0.320 NA
ATOM     16  H   LIG    1       28.864 -11.956   2.482  0.00  0.00    +0.119 HD
ATOM     17  H   LIG    1       28.273 -13.386   1.993  0.00  0.00    +0.119 HD
ENDBRANCH  13  15
ENDBRANCH   3  13
TORSDOF 3
ENDMDL
MODEL 7
REMARK VINA RESULT:      -3.5      4.510      5.622
REMARK  Name = *****
REMARK                            x       y       z     vdW  Elec       q    Type
REMARK                         _______ _______ _______ _____ _____    ______ ____
ROOT
ATOM      1  N   LIG    1       26.311 -14.510   3.445  0.00  0.00    -0.284 N 
ATOM      2  H   LIG    1       26.819 -14.770   2.612  0.00  0.00    +0.155 HD
ATOM      3  C   LIG    1       27.109 -13.970   4.450  0.00  0.00    +0.234 C 
ATOM      4  O   LIG    1       26.917 -14.104   5.659  0.00  0.00    -0.274 OA
ENDROOT
BRANCH   1   7
ATOM      5  C   LIG    1       26.377 -17.478   3.295  0.00  0.00    +0.045 C 
ATOM      6  C   LIG    1       25.154 -16.676   3.657  0.00  0.00    -0.029 A 
ATOM      7  C   LIG    1       25.152 -15.265   3.743  0.00  0.00    +0.039 A 
ATOM      8  C   LIG    1       23.990 -14.582   4.167  0.00  0.00    -0.029 A 
ATOM      9  C   LIG    1       23.928 -13.083   4.278  0.00  0.00    +0.045 C 
ATOM     10  C   LIG    1       22.833 -15.320   4.462  0.00  0.00    +0.005 A 
ATOM     11  C   LIG    1       22.820 -16.706   4.335  0.00  0.00    +0.001 A 
ATOM     12  C   LIG    1       23.972 -17.377   3.936  0.00  0.00    +0.005 A 
ENDBRANCH   1   7
BRANCH   3  13
ATOM     13  C   LIG    1       28.310 -13.182   3.889  0.00  0.00    +0.135 C 
ATOM     14  C   LIG    1       28.868 -12.220   4.934  0.00  0.00    +0.033 C 
BRANCH  13  15
ATOM     15  N   LIG    1       27.895 -12.426   2.691  0.00  0.00    -0.320 NA
ATOM     16  H   LIG    1       28.171 -11.449   2.794  0.00  0.00    +0.119 HD
ATOM     17  H   LIG    1       28.430 -12.772   1.891  0.00  0.00    +0.119 HD
ENDBRANCH  13  15
ENDBRANCH   3  13
TORSDOF 3
ENDMDL
MODEL 8
REMARK VINA RESULT:      -3.2      2.369      3.503
REMARK  Name = *****
REMARK                            x       y       z     vdW  Elec       q    Type
REMARK                         _______ _______ _______ _____ _____    ______ ____
ROOT
ATOM      1  N   LIG    1       24.778 -18.238   4.437  0.00  0.00    -0.284 N 
ATOM      2  H   LIG    1       24.389 -17.329   4.650  0.00  0.00    +0.155 HD
ATOM      3  C   LIG    1       25.581 -18.258   3.300  0.00  0.00    +0.234 C 
ATOM      4  O   LIG    1       25.689 -19.208   2.524  0.00  0.00    -0.274 OA
ENDROOT
BRANCH   1   7
ATOM      5  C   LIG    1       26.061 -20.503   5.871  0.00  0.00    +0.045 C 
ATOM      6  C   LIG    1       24.605 -20.461   5.487  0.00  0.00    -0.029 A 
ATOM      7  C   LIG    1       24.011 -19.362   4.825  0.00  0.00    +0.039 A 
ATOM      8  C   LIG    1       22.622 -19.355   4.569  0.00  0.00    -0.029 A 
ATOM      9  C   LIG    1       21.934 -18.216   3.867  0.00  0.00    +0.045 C 
ATOM     10  C   LIG    1       21.852 -20.467   4.945  0.00  0.00    +0.005 A 
ATOM     11  C   LIG    1       22.442 -21.568   5.558  0.00  0.00    +0.001 A 
ATOM     12  C   LIG    1       23.807 -21.564   5.827  0.00  0.00    +0.005 A 
ENDBRANCH   1   7
BRANCH   3  13
ATOM     13  C   LIG    1       26.327 -16.927   3.083  0.00  0.00    +0.135 C 
ATOM     14  C   LIG    1       27.541 -16.825   4.001  0.00  0.00    +0.033 C 
BRANCH  13  15
ATOM     15  N   LIG    1       25.415 -15.795   3.341  0.00  0.00    -0.320 NA
ATOM     16  H   LIG    1       25.539 -15.087   2.616  0.00  0.00    +0.119 HD
ATOM     17  H   LIG    1       24.453 -16.125   3.229  0.00  0.00    +0.119 HD
ENDBRANCH  13  15
ENDBRANCH   3  13
TORSDOF 3
ENDMDL
MODEL 9
REMARK VINA RESULT:      -3.0      1.869      3.210
REMARK  Name = *****
REMARK                            x       y       z     vdW  Elec       q    Type
REMARK                         _______ _______ _______ _____ _____    ______ ____
ROOT
ATOM      1  N   LIG    1       24.348 -19.760   5.385  0.00  0.00    -0.284 N 
ATOM      2  H   LIG    1       24.623 -19.244   6.210  0.00  0.00    +0.155 HD
ATOM      3  C   LIG    1       25.417 -20.270   4.653  0.00  0.00    +0.234 C 
ATOM      4  O   LIG    1       25.441 -20.401   3.429  0.00  0.00    -0.274 OA
ENDROOT
BRANCH   1   7
ATOM      5  C   LIG    1       24.200 -17.168   3.936  0.00  0.00    +0.045 C 
ATOM      6  C   LIG    1       23.044 -18.123   4.084  0.00  0.00    -0.029 A 
ATOM      7  C   LIG    1       23.143 -19.360   4.760  0.00  0.00    +0.039 A 
ATOM      8  C   LIG    1       22.040 -20.242   4.790  0.00  0.00    -0.029 A 
ATOM      9  C   LIG    1       22.086 -21.572   5.493  0.00  0.00    +0.045 C 
ATOM     10  C   LIG    1       20.838 -19.856   4.176  0.00  0.00    +0.005 A 
ATOM     11  C   LIG    1       20.724 -18.618   3.549  0.00  0.00    +0.001 A 
ATOM     12  C   LIG    1       21.819 -17.760   3.503  0.00  0.00    +0.005 A 
ENDBRANCH   1   7
BRANCH   3  13
ATOM     13  C   LIG    1       26.616 -20.644   5.546  0.00  0.00    +0.135 C 
ATOM     14  C   LIG    1       26.274 -20.468   7.022  0.00  0.00    +0.033 C 
BRANCH  13  15
ATOM     15  N   LIG    1       27.777 -19.799   5.202  0.00  0.00    -0.320 NA
ATOM     16  H   LIG    1       28.618 -20.377   5.168  0.00  0.00    +0.119 HD
ATOM     17  H   LIG    1       27.652 -19.453   4.249  0.00  0.00    +0.119 HD
ENDBRANCH  13  15
ENDBRANCH   3  13
TORSDOF 3
ENDMDL
