MODEL 1
REMARK VINA RESULT:      -5.8      0.000      0.000
REMARK  Name = *****
REMARK                            x       y       z     vdW  Elec       q    Type
REMARK                         _______ _______ _______ _____ _____    ______ ____
ROOT
ATOM      1  C   LIG    1       25.413 -30.611   8.446  0.00  0.00    +0.183 C 
ATOM      2  C   LIG    1       25.626 -30.941  10.002  0.00  0.00    +0.021 C 
ATOM      3  C   LIG    1       25.841 -32.497  10.202  0.00  0.00    +0.016 C 
ATOM      4  C   LIG    1       24.247 -30.618  10.649  0.00  0.00    +0.003 C 
ATOM      5  C   LIG    1       24.162 -29.280  11.416  0.00  0.00    -0.000 C 
ATOM      6  C   LIG    1       25.296 -29.150  12.455  0.00  0.00    +0.035 C 
ATOM      7  C   LIG    1       26.669 -29.215  11.753  0.00  0.00    +0.120 C 
ATOM      8  C   LIG    1       25.158 -30.042  13.754  0.00  0.00    +0.013 C 
ATOM      9  C   LIG    1       25.917 -29.296  14.889  0.00  0.00    +0.020 C 
ATOM     10  C   LIG    1       23.688 -30.252  14.207  0.00  0.00    -0.056 C 
ATOM     11  C   LIG    1       23.450 -31.187  15.160  0.00  0.00    +0.051 C 
ATOM     12  C   LIG    1       23.879 -32.535  14.632  0.00  0.00    +0.179 C 
ATOM     13  O   LIG    1       23.211 -33.545  14.790  0.00  0.00    -0.288 OA
ATOM     14  C   LIG    1       25.219 -32.567  13.989  0.00  0.00    +0.047 C 
ATOM     15  C   LIG    1       22.548 -30.054  13.228  0.00  0.00    +0.032 C 
ATOM     16  C   LIG    1       25.815 -31.418  13.629  0.00  0.00    -0.012 C 
ATOM     17  C   LIG    1       22.820 -29.045  12.128  0.00  0.00    +0.008 C 
ATOM     18  C   LIG    1       23.222 -30.792   9.509  0.00  0.00    +0.009 C 
ATOM     19  C   LIG    1       26.866 -30.275  10.657  0.00  0.00    +0.043 C 
ATOM     20  C   LIG    1       24.000 -31.198   8.255  0.00  0.00    +0.057 C 
ENDROOT
BRANCH   1  21
ATOM     21  C   LIG    1       25.426 -29.102   8.029  0.00  0.00    +0.214 C 
ATOM     22  O   LIG    1       26.201 -28.303   8.558  0.00  0.00    -0.289 OA
BRANCH  21  23
ATOM     23  C   LIG    1       24.581 -28.687   6.793  0.00  0.00    +0.310 C 
BRANCH  23  24
ATOM     24  O   LIG    1       25.335 -28.388   5.632  0.00  0.00    -0.457 OA
BRANCH  24  25
ATOM     25  C   LIG    1       25.530 -27.052   5.511  0.00  0.00    +0.307 C 
ATOM     26  O   LIG    1       26.597 -26.542   5.193  0.00  0.00    -0.251 OA
BRANCH  25  27
ATOM     27  C   LIG    1       24.238 -26.321   5.724  0.00  0.00    +0.117 C 
ATOM     28  C   LIG    1       24.463 -24.986   6.382  0.00  0.00    +0.015 C 
ENDBRANCH  25  27
ENDBRANCH  24  25
ENDBRANCH  23  24
ENDBRANCH  21  23
ENDBRANCH   1  21
BRANCH   7  29
ATOM     29  O   LIG    1       26.924 -27.942  11.156  0.00  0.00    -0.391 OA
ATOM     30  H   LIG    1       27.626 -28.054  10.494  0.00  0.00    +0.210 HD
ENDBRANCH   7  29
BRANCH   1  31
ATOM     31  O   LIG    1       26.335 -31.419   7.667  0.00  0.00    -0.419 OA
BRANCH  31  32
ATOM     32  C   LIG    1       25.845 -32.216   6.664  0.00  0.00    +0.511 C 
ATOM     33  O   LIG    1       25.409 -33.336   6.764  0.00  0.00    -0.203 OA
BRANCH  32  34
ATOM     34  O   LIG    1       26.128 -31.564   5.500  0.00  0.00    -0.434 OA
BRANCH  34  36
ATOM     35  C   LIG    1       26.705 -32.931   3.566  0.00  0.00    +0.048 C 
ATOM     36  C   LIG    1       25.612 -32.180   4.298  0.00  0.00    +0.232 C 
ENDBRANCH  34  36
ENDBRANCH  32  34
ENDBRANCH  31  32
ENDBRANCH   1  31
TORSDOF 10
ENDMDL
MODEL 2
REMARK VINA RESULT:      -5.7      1.844      4.433
REMARK  Name = *****
REMARK                            x       y       z     vdW  Elec       q    Type
REMARK                         _______ _______ _______ _____ _____    ______ ____
ROOT
ATOM      1  C   LIG    1       25.248 -31.107   7.727  0.00  0.00    +0.183 C 
ATOM      2  C   LIG    1       24.967 -30.361   9.120  0.00  0.00    +0.021 C 
ATOM      3  C   LIG    1       25.866 -29.063   9.232  0.00  0.00    +0.016 C 
ATOM      4  C   LIG    1       25.513 -31.349  10.194  0.00  0.00    +0.003 C 
ATOM      5  C   LIG    1       24.449 -32.176  10.948  0.00  0.00    -0.000 C 
ATOM      6  C   LIG    1       23.349 -31.273  11.547  0.00  0.00    +0.035 C 
ATOM      7  C   LIG    1       22.639 -30.486  10.423  0.00  0.00    +0.120 C 
ATOM      8  C   LIG    1       23.759 -30.420  12.814  0.00  0.00    +0.013 C 
ATOM      9  C   LIG    1       22.456 -30.180  13.630  0.00  0.00    +0.020 C 
ATOM     10  C   LIG    1       24.786 -31.133  13.734  0.00  0.00    -0.056 C 
ATOM     11  C   LIG    1       25.375 -30.398  14.709  0.00  0.00    +0.051 C 
ATOM     12  C   LIG    1       26.159 -29.280  14.064  0.00  0.00    +0.179 C 
ATOM     13  O   LIG    1       27.279 -28.964  14.434  0.00  0.00    -0.288 OA
ATOM     14  C   LIG    1       25.434 -28.525  13.008  0.00  0.00    +0.047 C 
ATOM     15  C   LIG    1       25.645 -32.260  13.196  0.00  0.00    +0.032 C 
ATOM     16  C   LIG    1       24.313 -29.035  12.471  0.00  0.00    -0.012 C 
ATOM     17  C   LIG    1       25.017 -33.060  12.070  0.00  0.00    +0.008 C 
ATOM     18  C   LIG    1       26.595 -32.172   9.464  0.00  0.00    +0.009 C 
ATOM     19  C   LIG    1       23.511 -29.862   9.322  0.00  0.00    +0.043 C 
ATOM     20  C   LIG    1       26.655 -31.666   8.021  0.00  0.00    +0.057 C 
ENDROOT
BRANCH   1  21
ATOM     21  C   LIG    1       24.280 -32.272   7.334  0.00  0.00    +0.214 C 
ATOM     22  O   LIG    1       23.106 -32.278   7.709  0.00  0.00    -0.289 OA
BRANCH  21  23
ATOM     23  C   LIG    1       24.784 -33.311   6.294  0.00  0.00    +0.310 C 
BRANCH  23  24
ATOM     24  O   LIG    1       24.660 -32.905   4.942  0.00  0.00    -0.457 OA
BRANCH  24  25
ATOM     25  C   LIG    1       25.868 -32.894   4.326  0.00  0.00    +0.307 C 
ATOM     26  O   LIG    1       26.932 -33.075   4.903  0.00  0.00    -0.251 OA
BRANCH  25  27
ATOM     27  C   LIG    1       25.689 -32.730   2.846  0.00  0.00    +0.117 C 
ATOM     28  C   LIG    1       26.967 -33.010   2.103  0.00  0.00    +0.015 C 
ENDBRANCH  25  27
ENDBRANCH  24  25
ENDBRANCH  23  24
ENDBRANCH  21  23
ENDBRANCH   1  21
BRANCH   7  29
ATOM     29  O   LIG    1       21.716 -31.367   9.779  0.00  0.00    -0.391 OA
ATOM     30  H   LIG    1       22.218 -32.113   9.412  0.00  0.00    +0.210 HD
ENDBRANCH   7  29
BRANCH   1  31
ATOM     31  O   LIG    1       25.381 -30.107   6.681  0.00  0.00    -0.419 OA
BRANCH  31  32
ATOM     32  C   LIG    1       24.259 -29.465   6.222  0.00  0.00    +0.511 C 
ATOM     33  O   LIG    1       23.307 -29.955   5.668  0.00  0.00    -0.203 OA
BRANCH  32  34
ATOM     34  O   LIG    1       24.521 -28.131   6.341  0.00  0.00    -0.434 OA
BRANCH  34  36
ATOM     35  C   LIG    1       26.178 -26.351   6.194  0.00  0.00    +0.048 C 
ATOM     36  C   LIG    1       25.671 -27.652   5.608  0.00  0.00    +0.232 C 
ENDBRANCH  34  36
ENDBRANCH  32  34
ENDBRANCH  31  32
ENDBRANCH   1  31
TORSDOF 10
ENDMDL
MODEL 3
REMARK VINA RESULT:      -5.6      2.647      4.564
REMARK  Name = *****
REMARK                            x       y       z     vdW  Elec       q    Type
REMARK                         _______ _______ _______ _____ _____    ______ ____
ROOT
ATOM      1  C   LIG    1       25.270 -32.137   8.280  0.00  0.00    +0.183 C 
ATOM      2  C   LIG    1       23.888 -32.585   8.961  0.00  0.00    +0.021 C 
ATOM      3  C   LIG    1       22.841 -32.996   7.846  0.00  0.00    +0.016 C 
ATOM      4  C   LIG    1       23.337 -31.273   9.595  0.00  0.00    +0.003 C 
ATOM      5  C   LIG    1       23.517 -31.139  11.124  0.00  0.00    -0.000 C 
ATOM      6  C   LIG    1       22.971 -32.376  11.868  0.00  0.00    +0.035 C 
ATOM      7  C   LIG    1       23.718 -33.646  11.406  0.00  0.00    +0.120 C 
ATOM      8  C   LIG    1       21.397 -32.507  11.943  0.00  0.00    +0.013 C 
ATOM      9  C   LIG    1       21.078 -33.319  13.232  0.00  0.00    +0.020 C 
ATOM     10  C   LIG    1       20.665 -31.142  12.035  0.00  0.00    -0.056 C 
ATOM     11  C   LIG    1       19.320 -31.134  11.866  0.00  0.00    +0.051 C 
ATOM     12  C   LIG    1       19.005 -31.639  10.478  0.00  0.00    +0.179 C 
ATOM     13  O   LIG    1       18.166 -31.114   9.762  0.00  0.00    -0.288 OA
ATOM     14  C   LIG    1       19.719 -32.880  10.077  0.00  0.00    +0.047 C 
ATOM     15  C   LIG    1       21.358 -29.869  11.588  0.00  0.00    +0.032 C 
ATOM     16  C   LIG    1       20.788 -33.293  10.779  0.00  0.00    -0.012 C 
ATOM     17  C   LIG    1       22.868 -29.882  11.727  0.00  0.00    +0.008 C 
ATOM     18  C   LIG    1       23.954 -30.135   8.755  0.00  0.00    +0.009 C 
ATOM     19  C   LIG    1       23.981 -33.816   9.901  0.00  0.00    +0.043 C 
ATOM     20  C   LIG    1       24.829 -30.786   7.681  0.00  0.00    +0.057 C 
ENDROOT
BRANCH   1  21
ATOM     21  C   LIG    1       26.497 -31.927   9.227  0.00  0.00    +0.214 C 
ATOM     22  O   LIG    1       27.059 -32.886   9.763  0.00  0.00    -0.289 OA
BRANCH  21  23
ATOM     23  C   LIG    1       27.110 -30.502   9.313  0.00  0.00    +0.310 C 
BRANCH  23  24
ATOM     24  O   LIG    1       27.829 -30.236  10.504  0.00  0.00    -0.457 OA
BRANCH  24  25
ATOM     25  C   LIG    1       26.991 -29.863  11.503  0.00  0.00    +0.307 C 
ATOM     26  O   LIG    1       26.849 -30.486  12.546  0.00  0.00    -0.251 OA
BRANCH  25  27
ATOM     27  C   LIG    1       26.357 -28.543  11.176  0.00  0.00    +0.117 C 
ATOM     28  C   LIG    1       25.922 -27.818  12.421  0.00  0.00    +0.015 C 
ENDBRANCH  25  27
ENDBRANCH  24  25
ENDBRANCH  23  24
ENDBRANCH  21  23
ENDBRANCH   1  21
BRANCH   7  29
ATOM     29  O   LIG    1       24.987 -33.678  12.060  0.00  0.00    -0.391 OA
ATOM     30  H   LIG    1       24.871 -34.109  12.923  0.00  0.00    +0.210 HD
ENDBRANCH   7  29
BRANCH   1  31
ATOM     31  O   LIG    1       25.558 -33.035   7.175  0.00  0.00    -0.419 OA
BRANCH  31  32
ATOM     32  C   LIG    1       26.496 -32.671   6.243  0.00  0.00    +0.511 C 
ATOM     33  O   LIG    1       27.689 -32.586   6.397  0.00  0.00    -0.203 OA
BRANCH  32  34
ATOM     34  O   LIG    1       25.793 -32.235   5.158  0.00  0.00    -0.434 OA
BRANCH  34  36
ATOM     35  C   LIG    1       25.842 -32.821   2.793  0.00  0.00    +0.048 C 
ATOM     36  C   LIG    1       25.445 -33.251   4.190  0.00  0.00    +0.232 C 
ENDBRANCH  34  36
ENDBRANCH  32  34
ENDBRANCH  31  32
ENDBRANCH   1  31
TORSDOF 10
ENDMDL
MODEL 4
REMARK VINA RESULT:      -5.4      3.023      5.528
REMARK  Name = *****
REMARK                            x       y       z     vdW  Elec       q    Type
REMARK                         _______ _______ _______ _____ _____    ______ ____
ROOT
ATOM      1  C   LIG    1       23.102 -31.629  10.874  0.00  0.00    +0.183 C 
ATOM      2  C   LIG    1       23.627 -30.642  12.025  0.00  0.00    +0.021 C 
ATOM      3  C   LIG    1       22.463 -29.668  12.476  0.00  0.00    +0.016 C 
ATOM      4  C   LIG    1       24.675 -29.744  11.303  0.00  0.00    +0.003 C 
ATOM      5  C   LIG    1       26.156 -30.096  11.566  0.00  0.00    -0.000 C 
ATOM      6  C   LIG    1       26.458 -30.180  13.078  0.00  0.00    +0.035 C 
ATOM      7  C   LIG    1       25.580 -31.268  13.734  0.00  0.00    +0.120 C 
ATOM      8  C   LIG    1       26.521 -28.804  13.855  0.00  0.00    +0.013 C 
ATOM      9  C   LIG    1       27.472 -29.019  15.067  0.00  0.00    +0.020 C 
ATOM     10  C   LIG    1       27.080 -27.635  12.999  0.00  0.00    -0.056 C 
ATOM     11  C   LIG    1       26.954 -26.377  13.490  0.00  0.00    +0.051 C 
ATOM     12  C   LIG    1       25.485 -26.064  13.644  0.00  0.00    +0.179 C 
ATOM     13  O   LIG    1       25.005 -24.989  13.320  0.00  0.00    -0.288 OA
ATOM     14  C   LIG    1       24.677 -27.121  14.307  0.00  0.00    +0.047 C 
ATOM     15  C   LIG    1       27.067 -27.718  11.485  0.00  0.00    +0.032 C 
ATOM     16  C   LIG    1       25.176 -28.362  14.437  0.00  0.00    -0.012 C 
ATOM     17  C   LIG    1       27.158 -29.124  10.923  0.00  0.00    +0.008 C 
ATOM     18  C   LIG    1       24.248 -29.748   9.820  0.00  0.00    +0.009 C 
ATOM     19  C   LIG    1       24.100 -31.338  13.329  0.00  0.00    +0.043 C 
ATOM     20  C   LIG    1       22.999 -30.624   9.708  0.00  0.00    +0.057 C 
ENDROOT
BRANCH   1  21
ATOM     21  C   LIG    1       24.036 -32.819  10.473  0.00  0.00    +0.214 C 
ATOM     22  O   LIG    1       24.421 -33.636  11.312  0.00  0.00    -0.289 OA
BRANCH  21  23
ATOM     23  C   LIG    1       24.299 -33.055   8.960  0.00  0.00    +0.310 C 
BRANCH  23  24
ATOM     24  O   LIG    1       25.567 -33.610   8.658  0.00  0.00    -0.457 OA
BRANCH  24  25
ATOM     25  C   LIG    1       26.529 -32.656   8.668  0.00  0.00    +0.307 C 
ATOM     26  O   LIG    1       27.444 -32.615   9.480  0.00  0.00    -0.251 OA
BRANCH  25  27
ATOM     27  C   LIG    1       26.358 -31.739   7.494  0.00  0.00    +0.117 C 
ATOM     28  C   LIG    1       26.830 -32.383   6.218  0.00  0.00    +0.015 C 
ENDBRANCH  25  27
ENDBRANCH  24  25
ENDBRANCH  23  24
ENDBRANCH  21  23
ENDBRANCH   1  21
BRANCH   7  29
ATOM     29  O   LIG    1       26.157 -32.541  13.439  0.00  0.00    -0.391 OA
ATOM     30  H   LIG    1       27.057 -32.558  13.806  0.00  0.00    +0.210 HD
ENDBRANCH   7  29
BRANCH   1  31
ATOM     31  O   LIG    1       21.754 -32.058  11.205  0.00  0.00    -0.419 OA
BRANCH  31  32
ATOM     32  C   LIG    1       20.855 -32.284  10.194  0.00  0.00    +0.511 C 
ATOM     33  O   LIG    1       20.844 -33.203   9.414  0.00  0.00    -0.203 OA
BRANCH  32  34
ATOM     34  O   LIG    1       20.087 -31.159  10.123  0.00  0.00    -0.434 OA
BRANCH  34  36
ATOM     35  C   LIG    1       17.744 -31.119   9.451  0.00  0.00    +0.048 C 
ATOM     36  C   LIG    1       18.726 -31.302  10.590  0.00  0.00    +0.232 C 
ENDBRANCH  34  36
ENDBRANCH  32  34
ENDBRANCH  31  32
ENDBRANCH   1  31
TORSDOF 10
ENDMDL
MODEL 5
REMARK VINA RESULT:      -5.4      2.559      3.832
REMARK  Name = *****
REMARK                            x       y       z     vdW  Elec       q    Type
REMARK                         _______ _______ _______ _____ _____    ______ ____
ROOT
ATOM      1  C   LIG    1       24.889 -32.122   8.852  0.00  0.00    +0.183 C 
ATOM      2  C   LIG    1       23.849 -32.420  10.036  0.00  0.00    +0.021 C 
ATOM      3  C   LIG    1       22.565 -33.146   9.461  0.00  0.00    +0.016 C 
ATOM      4  C   LIG    1       23.371 -31.007  10.484  0.00  0.00    +0.003 C 
ATOM      5  C   LIG    1       23.999 -30.468  11.789  0.00  0.00    -0.000 C 
ATOM      6  C   LIG    1       23.860 -31.483  12.945  0.00  0.00    +0.035 C 
ATOM      7  C   LIG    1       24.570 -32.804  12.579  0.00  0.00    +0.120 C 
ATOM      8  C   LIG    1       22.413 -31.642  13.563  0.00  0.00    +0.013 C 
ATOM      9  C   LIG    1       22.607 -32.095  15.039  0.00  0.00    +0.020 C 
ATOM     10  C   LIG    1       21.591 -30.326  13.562  0.00  0.00    -0.056 C 
ATOM     11  C   LIG    1       20.268 -30.408  13.849  0.00  0.00    +0.051 C 
ATOM     12  C   LIG    1       19.601 -31.271  12.805  0.00  0.00    +0.179 C 
ATOM     13  O   LIG    1       18.526 -30.982  12.302  0.00  0.00    -0.288 OA
ATOM     14  C   LIG    1       20.296 -32.549  12.500  0.00  0.00    +0.047 C 
ATOM     15  C   LIG    1       21.956 -29.194  12.622  0.00  0.00    +0.032 C 
ATOM     16  C   LIG    1       21.570 -32.727  12.888  0.00  0.00    -0.012 C 
ATOM     17  C   LIG    1       23.426 -29.120  12.254  0.00  0.00    +0.008 C 
ATOM     18  C   LIG    1       23.560 -30.111   9.242  0.00  0.00    +0.009 C 
ATOM     19  C   LIG    1       24.373 -33.356  11.158  0.00  0.00    +0.043 C 
ATOM     20  C   LIG    1       24.130 -30.992   8.128  0.00  0.00    +0.057 C 
ENDROOT
BRANCH   1  21
ATOM     21  C   LIG    1       26.317 -31.629   9.263  0.00  0.00    +0.214 C 
ATOM     22  O   LIG    1       27.223 -32.431   9.498  0.00  0.00    -0.289 OA
BRANCH  21  23
ATOM     23  C   LIG    1       26.611 -30.106   9.170  0.00  0.00    +0.310 C 
BRANCH  23  24
ATOM     24  O   LIG    1       27.731 -29.672   9.920  0.00  0.00    -0.457 OA
BRANCH  24  25
ATOM     25  C   LIG    1       27.368 -29.329  11.181  0.00  0.00    +0.307 C 
ATOM     26  O   LIG    1       27.514 -30.054  12.156  0.00  0.00    -0.251 OA
BRANCH  25  27
ATOM     27  C   LIG    1       26.864 -27.916  11.205  0.00  0.00    +0.117 C 
ATOM     28  C   LIG    1       26.717 -27.408  12.614  0.00  0.00    +0.015 C 
ENDBRANCH  25  27
ENDBRANCH  24  25
ENDBRANCH  23  24
ENDBRANCH  21  23
ENDBRANCH   1  21
BRANCH   7  29
ATOM     29  O   LIG    1       25.975 -32.620  12.766  0.00  0.00    -0.391 OA
ATOM     30  H   LIG    1       26.125 -31.700  13.039  0.00  0.00    +0.210 HD
ENDBRANCH   7  29
BRANCH   1  31
ATOM     31  O   LIG    1       24.925 -33.269   7.962  0.00  0.00    -0.419 OA
BRANCH  31  32
ATOM     32  C   LIG    1       24.699 -33.085   6.621  0.00  0.00    +0.511 C 
ATOM     33  O   LIG    1       23.663 -33.235   6.024  0.00  0.00    -0.203 OA
BRANCH  32  34
ATOM     34  O   LIG    1       25.927 -32.885   6.062  0.00  0.00    -0.434 OA
BRANCH  34  36
ATOM     35  C   LIG    1       26.207 -32.600   3.658  0.00  0.00    +0.048 C 
ATOM     36  C   LIG    1       25.976 -31.917   4.990  0.00  0.00    +0.232 C 
ENDBRANCH  34  36
ENDBRANCH  32  34
ENDBRANCH  31  32
ENDBRANCH   1  31
TORSDOF 10
ENDMDL
MODEL 6
REMARK VINA RESULT:      -5.0      4.192      7.214
REMARK  Name = *****
REMARK                            x       y       z     vdW  Elec       q    Type
REMARK                         _______ _______ _______ _____ _____    ______ ____
ROOT
ATOM      1  C   LIG    1       21.328 -30.516  12.752  0.00  0.00    +0.183 C 
ATOM      2  C   LIG    1       22.656 -29.663  12.464  0.00  0.00    +0.021 C 
ATOM      3  C   LIG    1       23.059 -29.786  10.938  0.00  0.00    +0.016 C 
ATOM      4  C   LIG    1       23.767 -30.415  13.256  0.00  0.00    +0.003 C 
ATOM      5  C   LIG    1       24.193 -29.767  14.593  0.00  0.00    -0.000 C 
ATOM      6  C   LIG    1       24.565 -28.280  14.408  0.00  0.00    +0.035 C 
ATOM      7  C   LIG    1       23.355 -27.495  13.857  0.00  0.00    +0.120 C 
ATOM      8  C   LIG    1       25.943 -27.989  13.689  0.00  0.00    +0.013 C 
ATOM      9  C   LIG    1       26.437 -26.610  14.213  0.00  0.00    +0.020 C 
ATOM     10  C   LIG    1       27.036 -29.047  13.996  0.00  0.00    -0.056 C 
ATOM     11  C   LIG    1       28.168 -29.021  13.248  0.00  0.00    +0.051 C 
ATOM     12  C   LIG    1       27.798 -29.267  11.805  0.00  0.00    +0.179 C 
ATOM     13  O   LIG    1       28.444 -30.006  11.078  0.00  0.00    -0.288 OA
ATOM     14  C   LIG    1       26.648 -28.472  11.300  0.00  0.00    +0.047 C 
ATOM     15  C   LIG    1       26.652 -30.426  14.496  0.00  0.00    +0.032 C 
ATOM     16  C   LIG    1       25.828 -27.856  12.168  0.00  0.00    -0.012 C 
ATOM     17  C   LIG    1       25.362 -30.478  15.293  0.00  0.00    +0.008 C 
ATOM     18  C   LIG    1       23.267 -31.871  13.358  0.00  0.00    +0.009 C 
ATOM     19  C   LIG    1       22.534 -28.139  12.728  0.00  0.00    +0.043 C 
ATOM     20  C   LIG    1       21.914 -31.938  12.646  0.00  0.00    +0.057 C 
ENDROOT
BRANCH   1  21
ATOM     21  C   LIG    1       20.644 -30.322  14.146  0.00  0.00    +0.214 C 
ATOM     22  O   LIG    1       21.167 -30.750  15.177  0.00  0.00    -0.289 OA
BRANCH  21  23
ATOM     23  C   LIG    1       19.393 -29.402  14.217  0.00  0.00    +0.310 C 
BRANCH  23  24
ATOM     24  O   LIG    1       19.661 -28.067  14.607  0.00  0.00    -0.457 OA
BRANCH  24  25
ATOM     25  C   LIG    1       18.601 -27.263  14.344  0.00  0.00    +0.307 C 
ATOM     26  O   LIG    1       18.699 -26.107  13.953  0.00  0.00    -0.251 OA
BRANCH  25  27
ATOM     27  C   LIG    1       17.321 -28.028  14.507  0.00  0.00    +0.117 C 
ATOM     28  C   LIG    1       16.122 -27.153  14.263  0.00  0.00    +0.015 C 
ENDBRANCH  25  27
ENDBRANCH  24  25
ENDBRANCH  23  24
ENDBRANCH  21  23
ENDBRANCH   1  21
BRANCH   7  29
ATOM     29  O   LIG    1       22.456 -27.247  14.940  0.00  0.00    -0.391 OA
ATOM     30  H   LIG    1       22.971 -26.896  15.686  0.00  0.00    +0.210 HD
ENDBRANCH   7  29
BRANCH   1  31
ATOM     31  O   LIG    1       20.407 -30.336  11.643  0.00  0.00    -0.419 OA
BRANCH  31  32
ATOM     32  C   LIG    1       19.956 -31.437  10.961  0.00  0.00    +0.511 C 
ATOM     33  O   LIG    1       20.334 -31.841   9.890  0.00  0.00    -0.203 OA
BRANCH  32  34
ATOM     34  O   LIG    1       18.859 -31.874  11.644  0.00  0.00    -0.434 OA
BRANCH  34  36
ATOM     35  C   LIG    1       16.624 -31.144  12.284  0.00  0.00    +0.048 C 
ATOM     36  C   LIG    1       17.586 -31.409  11.144  0.00  0.00    +0.232 C 
ENDBRANCH  34  36
ENDBRANCH  32  34
ENDBRANCH  31  32
ENDBRANCH   1  31
TORSDOF 10
ENDMDL
MODEL 7
REMARK VINA RESULT:      -5.0      3.153      7.272
REMARK  Name = *****
REMARK                            x       y       z     vdW  Elec       q    Type
REMARK                         _______ _______ _______ _____ _____    ______ ____
ROOT
ATOM      1  C   LIG    1       26.818 -28.751  12.962  0.00  0.00    +0.183 C 
ATOM      2  C   LIG    1       25.576 -29.155  12.030  0.00  0.00    +0.021 C 
ATOM      3  C   LIG    1       24.302 -28.301  12.422  0.00  0.00    +0.016 C 
ATOM      4  C   LIG    1       25.250 -30.619  12.450  0.00  0.00    +0.003 C 
ATOM      5  C   LIG    1       25.743 -31.720  11.485  0.00  0.00    -0.000 C 
ATOM      6  C   LIG    1       25.281 -31.452  10.037  0.00  0.00    +0.035 C 
ATOM      7  C   LIG    1       25.836 -30.098   9.545  0.00  0.00    +0.120 C 
ATOM      8  C   LIG    1       23.749 -31.704   9.735  0.00  0.00    +0.013 C 
ATOM      9  C   LIG    1       23.646 -32.066   8.225  0.00  0.00    +0.020 C 
ATOM     10  C   LIG    1       23.140 -32.871  10.558  0.00  0.00    -0.056 C 
ATOM     11  C   LIG    1       21.792 -33.013  10.548  0.00  0.00    +0.051 C 
ATOM     12  C   LIG    1       21.171 -31.770  11.140  0.00  0.00    +0.179 C 
ATOM     13  O   LIG    1       20.241 -31.812  11.929  0.00  0.00    -0.288 OA
ATOM     14  C   LIG    1       21.709 -30.485  10.621  0.00  0.00    +0.047 C 
ATOM     15  C   LIG    1       23.808 -33.339  11.835  0.00  0.00    +0.032 C 
ATOM     16  C   LIG    1       22.869 -30.470   9.943  0.00  0.00    -0.012 C 
ATOM     17  C   LIG    1       25.312 -33.142  11.879  0.00  0.00    +0.008 C 
ATOM     18  C   LIG    1       25.756 -30.738  13.903  0.00  0.00    +0.009 C 
ATOM     19  C   LIG    1       25.779 -28.904  10.512  0.00  0.00    +0.043 C 
ATOM     20  C   LIG    1       26.353 -29.383  14.289  0.00  0.00    +0.057 C 
ENDROOT
BRANCH   1  21
ATOM     21  C   LIG    1       28.223 -29.314  12.564  0.00  0.00    +0.214 C 
ATOM     22  O   LIG    1       28.635 -29.234  11.405  0.00  0.00    -0.289 OA
BRANCH  21  23
ATOM     23  C   LIG    1       29.161 -29.792  13.707  0.00  0.00    +0.310 C 
BRANCH  23  24
ATOM     24  O   LIG    1       30.518 -29.952  13.332  0.00  0.00    -0.457 OA
BRANCH  24  25
ATOM     25  C   LIG    1       31.340 -29.321  14.207  0.00  0.00    +0.307 C 
ATOM     26  O   LIG    1       31.046 -29.080  15.370  0.00  0.00    -0.251 OA
BRANCH  25  27
ATOM     27  C   LIG    1       32.672 -29.064  13.567  0.00  0.00    +0.117 C 
ATOM     28  C   LIG    1       32.580 -29.111  12.066  0.00  0.00    +0.015 C 
ENDBRANCH  25  27
ENDBRANCH  24  25
ENDBRANCH  23  24
ENDBRANCH  21  23
ENDBRANCH   1  21
BRANCH   7  29
ATOM     29  O   LIG    1       27.207 -30.283   9.188  0.00  0.00    -0.391 OA
ATOM     30  H   LIG    1       27.709 -30.461  10.000  0.00  0.00    +0.210 HD
ENDBRANCH   7  29
BRANCH   1  31
ATOM     31  O   LIG    1       26.819 -27.309  13.139  0.00  0.00    -0.419 OA
BRANCH  31  32
ATOM     32  C   LIG    1       27.120 -26.784  14.370  0.00  0.00    +0.511 C 
ATOM     33  O   LIG    1       28.149 -26.905  14.987  0.00  0.00    -0.203 OA
BRANCH  32  34
ATOM     34  O   LIG    1       25.954 -26.260  14.845  0.00  0.00    -0.434 OA
BRANCH  34  36
ATOM     35  C   LIG    1       25.540 -23.859  14.772  0.00  0.00    +0.048 C 
ATOM     36  C   LIG    1       25.386 -25.188  14.060  0.00  0.00    +0.232 C 
ENDBRANCH  34  36
ENDBRANCH  32  34
ENDBRANCH  31  32
ENDBRANCH   1  31
TORSDOF 10
ENDMDL
MODEL 8
REMARK VINA RESULT:      -4.7      1.851      4.393
REMARK  Name = *****
REMARK                            x       y       z     vdW  Elec       q    Type
REMARK                         _______ _______ _______ _____ _____    ______ ____
ROOT
ATOM      1  C   LIG    1       25.533 -30.701   8.767  0.00  0.00    +0.183 C 
ATOM      2  C   LIG    1       24.527 -30.772  10.015  0.00  0.00    +0.021 C 
ATOM      3  C   LIG    1       23.146 -30.097   9.638  0.00  0.00    +0.016 C 
ATOM      4  C   LIG    1       25.178 -29.838  11.078  0.00  0.00    +0.003 C 
ATOM      5  C   LIG    1       25.927 -30.549  12.228  0.00  0.00    -0.000 C 
ATOM      6  C   LIG    1       25.040 -31.614  12.907  0.00  0.00    +0.035 C 
ATOM      7  C   LIG    1       24.612 -32.683  11.878  0.00  0.00    +0.120 C 
ATOM      8  C   LIG    1       23.882 -31.069  13.836  0.00  0.00    +0.013 C 
ATOM      9  C   LIG    1       23.610 -32.169  14.902  0.00  0.00    +0.020 C 
ATOM     10  C   LIG    1       24.249 -29.754  14.576  0.00  0.00    -0.056 C 
ATOM     11  C   LIG    1       23.251 -29.085  15.205  0.00  0.00    +0.051 C 
ATOM     12  C   LIG    1       22.227 -28.667  14.176  0.00  0.00    +0.179 C 
ATOM     13  O   LIG    1       21.713 -27.559  14.174  0.00  0.00    -0.288 OA
ATOM     14  C   LIG    1       21.817 -29.729  13.221  0.00  0.00    +0.047 C 
ATOM     15  C   LIG    1       25.365 -28.869  14.059  0.00  0.00    +0.032 C 
ATOM     16  C   LIG    1       22.557 -30.844  13.102  0.00  0.00    -0.012 C 
ATOM     17  C   LIG    1       26.465 -29.600  13.311  0.00  0.00    +0.008 C 
ATOM     18  C   LIG    1       26.020 -28.834  10.263  0.00  0.00    +0.009 C 
ATOM     19  C   LIG    1       24.160 -32.203  10.490  0.00  0.00    +0.043 C 
ATOM     20  C   LIG    1       25.851 -29.192   8.785  0.00  0.00    +0.057 C 
ENDROOT
BRANCH   1  21
ATOM     21  C   LIG    1       26.857 -31.528   8.870  0.00  0.00    +0.214 C 
ATOM     22  O   LIG    1       27.786 -31.155   9.589  0.00  0.00    -0.289 OA
BRANCH  21  23
ATOM     23  C   LIG    1       26.888 -32.930   8.200  0.00  0.00    +0.310 C 
BRANCH  23  24
ATOM     24  O   LIG    1       27.738 -33.029   7.071  0.00  0.00    -0.457 OA
BRANCH  24  25
ATOM     25  C   LIG    1       27.091 -33.600   6.025  0.00  0.00    +0.307 C 
ATOM     26  O   LIG    1       25.888 -33.825   6.005  0.00  0.00    -0.251 OA
BRANCH  25  27
ATOM     27  C   LIG    1       28.042 -33.814   4.886  0.00  0.00    +0.117 C 
ATOM     28  C   LIG    1       27.354 -33.655   3.557  0.00  0.00    +0.015 C 
ENDBRANCH  25  27
ENDBRANCH  24  25
ENDBRANCH  23  24
ENDBRANCH  21  23
ENDBRANCH   1  21
BRANCH   7  29
ATOM     29  O   LIG    1       25.713 -33.572  11.678  0.00  0.00    -0.391 OA
ATOM     30  H   LIG    1       25.654 -34.280  12.341  0.00  0.00    +0.210 HD
ENDBRANCH   7  29
BRANCH   1  31
ATOM     31  O   LIG    1       24.788 -30.979   7.551  0.00  0.00    -0.419 OA
BRANCH  31  32
ATOM     32  C   LIG    1       25.071 -30.266   6.414  0.00  0.00    +0.511 C 
ATOM     33  O   LIG    1       25.862 -30.548   5.549  0.00  0.00    -0.203 OA
BRANCH  32  34
ATOM     34  O   LIG    1       24.421 -29.075   6.551  0.00  0.00    -0.434 OA
BRANCH  34  36
ATOM     35  C   LIG    1       24.266 -26.747   5.848  0.00  0.00    +0.048 C 
ATOM     36  C   LIG    1       24.514 -28.179   5.421  0.00  0.00    +0.232 C 
ENDBRANCH  34  36
ENDBRANCH  32  34
ENDBRANCH  31  32
ENDBRANCH   1  31
TORSDOF 10
ENDMDL
MODEL 9
REMARK VINA RESULT:      -4.5      3.067      7.236
REMARK  Name = *****
REMARK                            x       y       z     vdW  Elec       q    Type
REMARK                         _______ _______ _______ _____ _____    ______ ____
ROOT
ATOM      1  C   LIG    1       21.246 -31.519  12.772  0.00  0.00    +0.183 C 
ATOM      2  C   LIG    1       22.131 -30.969  11.551  0.00  0.00    +0.021 C 
ATOM      3  C   LIG    1       21.232 -30.810  10.258  0.00  0.00    +0.016 C 
ATOM      4  C   LIG    1       23.115 -32.137  11.242  0.00  0.00    +0.003 C 
ATOM      5  C   LIG    1       24.556 -31.957  11.768  0.00  0.00    -0.000 C 
ATOM      6  C   LIG    1       25.157 -30.606  11.324  0.00  0.00    +0.035 C 
ATOM      7  C   LIG    1       24.299 -29.441  11.865  0.00  0.00    +0.120 C 
ATOM      8  C   LIG    1       25.569 -30.491   9.802  0.00  0.00    +0.013 C 
ATOM      9  C   LIG    1       26.717 -29.443   9.728  0.00  0.00    +0.020 C 
ATOM     10  C   LIG    1       26.087 -31.824   9.199  0.00  0.00    -0.056 C 
ATOM     11  C   LIG    1       26.240 -31.891   7.853  0.00  0.00    +0.051 C 
ATOM     12  C   LIG    1       24.892 -31.681   7.204  0.00  0.00    +0.179 C 
ATOM     13  O   LIG    1       24.505 -32.355   6.262  0.00  0.00    -0.288 OA
ATOM     14  C   LIG    1       24.107 -30.533   7.729  0.00  0.00    +0.047 C 
ATOM     15  C   LIG    1       25.743 -33.147   9.854  0.00  0.00    +0.032 C 
ATOM     16  C   LIG    1       24.450 -29.968   8.898  0.00  0.00    -0.012 C 
ATOM     17  C   LIG    1       25.523 -33.078  11.354  0.00  0.00    +0.008 C 
ATOM     18  C   LIG    1       22.388 -33.408  11.728  0.00  0.00    +0.009 C 
ATOM     19  C   LIG    1       22.770 -29.572  11.773  0.00  0.00    +0.043 C 
ATOM     20  C   LIG    1       21.036 -32.971  12.296  0.00  0.00    +0.057 C 
ENDROOT
BRANCH   1  21
ATOM     21  C   LIG    1       21.905 -31.510  14.191  0.00  0.00    +0.214 C 
ATOM     22  O   LIG    1       22.834 -32.273  14.466  0.00  0.00    -0.289 OA
BRANCH  21  23
ATOM     23  C   LIG    1       21.492 -30.379  15.174  0.00  0.00    +0.310 C 
BRANCH  23  24
ATOM     24  O   LIG    1       22.292 -29.212  15.105  0.00  0.00    -0.457 OA
BRANCH  24  25
ATOM     25  C   LIG    1       21.542 -28.128  14.789  0.00  0.00    +0.307 C 
ATOM     26  O   LIG    1       20.323 -28.147  14.679  0.00  0.00    -0.251 OA
BRANCH  25  27
ATOM     27  C   LIG    1       22.412 -26.909  14.697  0.00  0.00    +0.117 C 
ATOM     28  C   LIG    1       22.418 -26.340  13.304  0.00  0.00    +0.015 C 
ENDBRANCH  25  27
ENDBRANCH  24  25
ENDBRANCH  23  24
ENDBRANCH  21  23
ENDBRANCH   1  21
BRANCH   7  29
ATOM     29  O   LIG    1       24.622 -29.254  13.244  0.00  0.00    -0.391 OA
ATOM     30  H   LIG    1       25.590 -29.234  13.327  0.00  0.00    +0.210 HD
ENDBRANCH   7  29
BRANCH   1  31
ATOM     31  O   LIG    1       19.954 -30.856  12.747  0.00  0.00    -0.419 OA
BRANCH  31  32
ATOM     32  C   LIG    1       18.827 -31.573  13.062  0.00  0.00    +0.511 C 
ATOM     33  O   LIG    1       18.676 -32.334  13.984  0.00  0.00    -0.203 OA
BRANCH  32  34
ATOM     34  O   LIG    1       17.973 -31.402  12.012  0.00  0.00    -0.434 OA
BRANCH  34  36
ATOM     35  C   LIG    1       18.071 -32.664   9.929  0.00  0.00    +0.048 C 
ATOM     36  C   LIG    1       17.547 -32.614  11.350  0.00  0.00    +0.232 C 
ENDBRANCH  34  36
ENDBRANCH  32  34
ENDBRANCH  31  32
ENDBRANCH   1  31
TORSDOF 10
ENDMDL
