MODEL 1
REMARK VINA RESULT:      -5.7      0.000      0.000
REMARK  Name = *****
REMARK                            x       y       z     vdW  Elec       q    Type
REMARK                         _______ _______ _______ _____ _____    ______ ____
ROOT
ATOM      1  C   LIG    1       22.199 -18.344   4.212  0.00  0.00    +0.141 C 
ATOM      2  N   LIG    1       23.250 -19.324   4.341  0.00  0.00    -0.245 N 
ATOM      3  C   LIG    1       24.552 -19.060   4.024  0.00  0.00    +0.229 C 
ATOM      4  O   LIG    1       24.983 -17.997   3.600  0.00  0.00    -0.275 OA
ATOM      5  C   LIG    1       25.374 -20.307   4.265  0.00  0.00    +0.114 C 
ATOM      6  C   LIG    1       24.379 -21.301   4.861  0.00  0.00    +0.114 C 
ATOM      7  C   LIG    1       23.065 -20.583   4.828  0.00  0.00    +0.223 C 
ATOM      8  O   LIG    1       22.008 -21.074   5.198  0.00  0.00    -0.275 OA
ENDROOT
BRANCH   5   9
ATOM      9  C   LIG    1       26.589 -20.117   5.147  0.00  0.00    -0.035 A 
ATOM     10  C   LIG    1       26.810 -20.903   6.289  0.00  0.00    +0.004 A 
ATOM     11  C   LIG    1       27.961 -20.727   7.060  0.00  0.00    +0.000 A 
ATOM     12  C   LIG    1       28.909 -19.773   6.696  0.00  0.00    +0.000 A 
ATOM     13  C   LIG    1       28.707 -18.994   5.560  0.00  0.00    +0.000 A 
ATOM     14  C   LIG    1       27.557 -19.166   4.789  0.00  0.00    +0.004 A 
ENDBRANCH   5   9
TORSDOF 1
ENDMDL
MODEL 2
REMARK VINA RESULT:      -4.7      2.582      4.221
REMARK  Name = *****
REMARK                            x       y       z     vdW  Elec       q    Type
REMARK                         _______ _______ _______ _____ _____    ______ ____
ROOT
ATOM      1  C   LIG    1       23.054 -21.013   6.488  0.00  0.00    +0.141 C 
ATOM      2  N   LIG    1       23.768 -20.314   5.447  0.00  0.00    -0.245 N 
ATOM      3  C   LIG    1       23.210 -19.305   4.714  0.00  0.00    +0.229 C 
ATOM      4  O   LIG    1       22.070 -18.879   4.837  0.00  0.00    -0.275 OA
ATOM      5  C   LIG    1       24.228 -18.812   3.710  0.00  0.00    +0.114 C 
ATOM      6  C   LIG    1       25.488 -19.614   4.031  0.00  0.00    +0.114 C 
ATOM      7  C   LIG    1       25.068 -20.554   5.120  0.00  0.00    +0.223 C 
ATOM      8  O   LIG    1       25.806 -21.388   5.624  0.00  0.00    -0.275 OA
ENDROOT
BRANCH   5   9
ATOM      9  C   LIG    1       24.480 -17.321   3.727  0.00  0.00    -0.035 A 
ATOM     10  C   LIG    1       23.516 -16.407   4.180  0.00  0.00    +0.004 A 
ATOM     11  C   LIG    1       23.794 -15.039   4.218  0.00  0.00    +0.000 A 
ATOM     12  C   LIG    1       25.041 -14.567   3.812  0.00  0.00    +0.000 A 
ATOM     13  C   LIG    1       26.011 -15.463   3.369  0.00  0.00    +0.000 A 
ATOM     14  C   LIG    1       25.734 -16.831   3.330  0.00  0.00    +0.004 A 
ENDBRANCH   5   9
TORSDOF 1
ENDMDL
MODEL 3
REMARK VINA RESULT:      -4.6      2.725      4.254
REMARK  Name = *****
REMARK                            x       y       z     vdW  Elec       q    Type
REMARK                         _______ _______ _______ _____ _____    ______ ____
ROOT
ATOM      1  C   LIG    1       22.722 -20.798   5.925  0.00  0.00    +0.141 C 
ATOM      2  N   LIG    1       23.643 -20.098   5.061  0.00  0.00    -0.245 N 
ATOM      3  C   LIG    1       23.273 -19.032   4.292  0.00  0.00    +0.229 C 
ATOM      4  O   LIG    1       22.151 -18.548   4.233  0.00  0.00    -0.275 OA
ATOM      5  C   LIG    1       24.476 -18.557   3.508  0.00  0.00    +0.114 C 
ATOM      6  C   LIG    1       25.619 -19.439   4.006  0.00  0.00    +0.114 C 
ATOM      7  C   LIG    1       24.968 -20.397   4.957  0.00  0.00    +0.223 C 
ATOM      8  O   LIG    1       25.563 -21.290   5.541  0.00  0.00    -0.275 OA
ENDROOT
BRANCH   5   9
ATOM      9  C   LIG    1       24.792 -17.083   3.641  0.00  0.00    -0.035 A 
ATOM     10  C   LIG    1       26.040 -16.554   3.281  0.00  0.00    +0.004 A 
ATOM     11  C   LIG    1       26.287 -15.183   3.382  0.00  0.00    +0.000 A 
ATOM     12  C   LIG    1       25.288 -14.323   3.834  0.00  0.00    +0.000 A 
ATOM     13  C   LIG    1       24.041 -14.834   4.186  0.00  0.00    +0.000 A 
ATOM     14  C   LIG    1       23.793 -16.203   4.087  0.00  0.00    +0.004 A 
ENDBRANCH   5   9
TORSDOF 1
ENDMDL
MODEL 4
REMARK VINA RESULT:      -4.5      2.072      5.242
REMARK  Name = *****
REMARK                            x       y       z     vdW  Elec       q    Type
REMARK                         _______ _______ _______ _____ _____    ______ ____
ROOT
ATOM      1  C   LIG    1       28.302 -20.055   7.062  0.00  0.00    +0.141 C 
ATOM      2  N   LIG    1       27.454 -19.915   5.902  0.00  0.00    -0.245 N 
ATOM      3  C   LIG    1       26.338 -20.677   5.704  0.00  0.00    +0.229 C 
ATOM      4  O   LIG    1       25.927 -21.550   6.455  0.00  0.00    -0.275 OA
ATOM      5  C   LIG    1       25.703 -20.277   4.391  0.00  0.00    +0.114 C 
ATOM      6  C   LIG    1       26.556 -19.106   3.904  0.00  0.00    +0.114 C 
ATOM      7  C   LIG    1       27.651 -18.992   4.920  0.00  0.00    +0.223 C 
ATOM      8  O   LIG    1       28.560 -18.177   4.855  0.00  0.00    -0.275 OA
ENDROOT
BRANCH   5   9
ATOM      9  C   LIG    1       24.235 -19.920   4.468  0.00  0.00    -0.035 A 
ATOM     10  C   LIG    1       23.753 -18.658   4.085  0.00  0.00    +0.004 A 
ATOM     11  C   LIG    1       22.387 -18.374   4.133  0.00  0.00    +0.000 A 
ATOM     12  C   LIG    1       21.483 -19.348   4.554  0.00  0.00    +0.000 A 
ATOM     13  C   LIG    1       21.946 -20.607   4.927  0.00  0.00    +0.000 A 
ATOM     14  C   LIG    1       23.311 -20.893   4.881  0.00  0.00    +0.004 A 
ENDBRANCH   5   9
TORSDOF 1
ENDMDL
MODEL 5
REMARK VINA RESULT:      -4.0      3.890      5.796
REMARK  Name = *****
REMARK                            x       y       z     vdW  Elec       q    Type
REMARK                         _______ _______ _______ _____ _____    ______ ____
ROOT
ATOM      1  C   LIG    1       27.401 -13.271   5.198  0.00  0.00    +0.141 C 
ATOM      2  N   LIG    1       26.320 -13.940   4.515  0.00  0.00    -0.245 N 
ATOM      3  C   LIG    1       26.481 -15.124   3.854  0.00  0.00    +0.229 C 
ATOM      4  O   LIG    1       27.527 -15.750   3.754  0.00  0.00    -0.275 OA
ATOM      5  C   LIG    1       25.156 -15.527   3.247  0.00  0.00    +0.114 C 
ATOM      6  C   LIG    1       24.181 -14.457   3.734  0.00  0.00    +0.114 C 
ATOM      7  C   LIG    1       25.035 -13.489   4.496  0.00  0.00    +0.223 C 
ATOM      8  O   LIG    1       24.612 -12.468   5.017  0.00  0.00    -0.275 OA
ENDROOT
BRANCH   5   9
ATOM      9  C   LIG    1       24.688 -16.924   3.591  0.00  0.00    -0.035 A 
ATOM     10  C   LIG    1       23.394 -17.179   4.072  0.00  0.00    +0.004 A 
ATOM     11  C   LIG    1       22.981 -18.485   4.345  0.00  0.00    +0.000 A 
ATOM     12  C   LIG    1       23.851 -19.553   4.132  0.00  0.00    +0.000 A 
ATOM     13  C   LIG    1       25.134 -19.316   3.646  0.00  0.00    +0.000 A 
ATOM     14  C   LIG    1       25.549 -18.011   3.374  0.00  0.00    +0.004 A 
ENDBRANCH   5   9
TORSDOF 1
ENDMDL
MODEL 6
REMARK VINA RESULT:      -3.9      3.895      5.826
REMARK  Name = *****
REMARK                            x       y       z     vdW  Elec       q    Type
REMARK                         _______ _______ _______ _____ _____    ______ ____
ROOT
ATOM      1  C   LIG    1       27.374 -13.279   5.263  0.00  0.00    +0.141 C 
ATOM      2  N   LIG    1       26.304 -13.938   4.552  0.00  0.00    -0.245 N 
ATOM      3  C   LIG    1       26.480 -15.104   3.864  0.00  0.00    +0.229 C 
ATOM      4  O   LIG    1       27.531 -15.720   3.759  0.00  0.00    -0.275 OA
ATOM      5  C   LIG    1       25.164 -15.500   3.234  0.00  0.00    +0.114 C 
ATOM      6  C   LIG    1       24.176 -14.449   3.737  0.00  0.00    +0.114 C 
ATOM      7  C   LIG    1       25.016 -13.495   4.531  0.00  0.00    +0.223 C 
ATOM      8  O   LIG    1       24.581 -12.490   5.073  0.00  0.00    -0.275 OA
ENDROOT
BRANCH   5   9
ATOM      9  C   LIG    1       24.702 -16.909   3.538  0.00  0.00    -0.035 A 
ATOM     10  C   LIG    1       25.547 -18.019   3.387  0.00  0.00    +0.004 A 
ATOM     11  C   LIG    1       25.101 -19.302   3.712  0.00  0.00    +0.000 A 
ATOM     12  C   LIG    1       23.810 -19.491   4.201  0.00  0.00    +0.000 A 
ATOM     13  C   LIG    1       22.964 -18.397   4.366  0.00  0.00    +0.000 A 
ATOM     14  C   LIG    1       23.407 -17.115   4.040  0.00  0.00    +0.004 A 
ENDBRANCH   5   9
TORSDOF 1
ENDMDL
MODEL 7
REMARK VINA RESULT:      -3.9      2.511      4.580
REMARK  Name = *****
REMARK                            x       y       z     vdW  Elec       q    Type
REMARK                         _______ _______ _______ _____ _____    ______ ____
ROOT
ATOM      1  C   LIG    1       28.593 -17.445   4.831  0.00  0.00    +0.141 C 
ATOM      2  N   LIG    1       27.418 -18.149   4.376  0.00  0.00    -0.245 N 
ATOM      3  C   LIG    1       27.124 -19.426   4.761  0.00  0.00    +0.229 C 
ATOM      4  O   LIG    1       27.795 -20.118   5.512  0.00  0.00    -0.275 OA
ATOM      5  C   LIG    1       25.838 -19.852   4.088  0.00  0.00    +0.114 C 
ATOM      6  C   LIG    1       25.377 -18.605   3.336  0.00  0.00    +0.114 C 
ATOM      7  C   LIG    1       26.471 -17.605   3.561  0.00  0.00    +0.223 C 
ATOM      8  O   LIG    1       26.478 -16.481   3.084  0.00  0.00    -0.275 OA
ENDROOT
BRANCH   5   9
ATOM      9  C   LIG    1       24.770 -20.384   5.018  0.00  0.00    -0.035 A 
ATOM     10  C   LIG    1       23.403 -20.297   4.711  0.00  0.00    +0.004 A 
ATOM     11  C   LIG    1       22.444 -20.831   5.574  0.00  0.00    +0.000 A 
ATOM     12  C   LIG    1       22.838 -21.468   6.749  0.00  0.00    +0.000 A 
ATOM     13  C   LIG    1       24.191 -21.571   7.062  0.00  0.00    +0.000 A 
ATOM     14  C   LIG    1       25.150 -21.036   6.202  0.00  0.00    +0.004 A 
ENDBRANCH   5   9
TORSDOF 1
ENDMDL
MODEL 8
REMARK VINA RESULT:      -3.9      3.013      4.449
REMARK  Name = *****
REMARK                            x       y       z     vdW  Elec       q    Type
REMARK                         _______ _______ _______ _____ _____    ______ ____
ROOT
ATOM      1  C   LIG    1       23.727 -20.790   5.181  0.00  0.00    +0.141 C 
ATOM      2  N   LIG    1       24.661 -19.861   4.590  0.00  0.00    -0.245 N 
ATOM      3  C   LIG    1       24.275 -18.863   3.741  0.00  0.00    +0.229 C 
ATOM      4  O   LIG    1       23.129 -18.636   3.378  0.00  0.00    -0.275 OA
ATOM      5  C   LIG    1       25.502 -18.095   3.304  0.00  0.00    +0.114 C 
ATOM      6  C   LIG    1       26.643 -18.728   4.099  0.00  0.00    +0.114 C 
ATOM      7  C   LIG    1       25.998 -19.854   4.849  0.00  0.00    +0.223 C 
ATOM      8  O   LIG    1       26.604 -20.624   5.580  0.00  0.00    -0.275 OA
ENDROOT
BRANCH   5   9
ATOM      9  C   LIG    1       25.430 -16.597   3.505  0.00  0.00    -0.035 A 
ATOM     10  C   LIG    1       24.246 -15.954   3.897  0.00  0.00    +0.004 A 
ATOM     11  C   LIG    1       24.223 -14.574   4.110  0.00  0.00    +0.000 A 
ATOM     12  C   LIG    1       25.383 -13.820   3.943  0.00  0.00    +0.000 A 
ATOM     13  C   LIG    1       26.568 -14.446   3.564  0.00  0.00    +0.000 A 
ATOM     14  C   LIG    1       26.593 -15.825   3.349  0.00  0.00    +0.004 A 
ENDBRANCH   5   9
TORSDOF 1
ENDMDL
MODEL 9
REMARK VINA RESULT:      -3.8      2.761      4.164
REMARK  Name = *****
REMARK                            x       y       z     vdW  Elec       q    Type
REMARK                         _______ _______ _______ _____ _____    ______ ____
ROOT
ATOM      1  C   LIG    1       25.778 -15.087   3.580  0.00  0.00    +0.141 C 
ATOM      2  N   LIG    1       24.769 -16.107   3.742  0.00  0.00    -0.245 N 
ATOM      3  C   LIG    1       24.992 -17.423   3.450  0.00  0.00    +0.229 C 
ATOM      4  O   LIG    1       26.037 -17.893   3.024  0.00  0.00    -0.275 OA
ATOM      5  C   LIG    1       23.724 -18.202   3.721  0.00  0.00    +0.114 C 
ATOM      6  C   LIG    1       22.765 -17.166   4.305  0.00  0.00    +0.114 C 
ATOM      7  C   LIG    1       23.522 -15.874   4.237  0.00  0.00    +0.223 C 
ATOM      8  O   LIG    1       23.066 -14.796   4.589  0.00  0.00    -0.275 OA
ENDROOT
BRANCH   5   9
ATOM      9  C   LIG    1       23.888 -19.403   4.627  0.00  0.00    -0.035 A 
ATOM     10  C   LIG    1       25.068 -20.160   4.654  0.00  0.00    +0.004 A 
ATOM     11  C   LIG    1       25.200 -21.241   5.529  0.00  0.00    +0.000 A 
ATOM     12  C   LIG    1       24.160 -21.572   6.395  0.00  0.00    +0.000 A 
ATOM     13  C   LIG    1       22.986 -20.822   6.386  0.00  0.00    +0.000 A 
ATOM     14  C   LIG    1       22.851 -19.744   5.511  0.00  0.00    +0.004 A 
ENDBRANCH   5   9
TORSDOF 1
ENDMDL
