MODEL 1
REMARK VINA RESULT:      27.7      0.000      0.000
REMARK  Name = *****
REMARK                            x       y       z     vdW  Elec       q    Type
REMARK                         _______ _______ _______ _____ _____    ______ ____
ROOT
ATOM      1  C   LIG    1       28.503 -17.388   4.348  0.00  0.00    +0.159 C 
ENDROOT
BRANCH   1   2
ATOM      2  C   LIG    1       27.095 -17.579   3.655  0.00  0.00    +0.234 C 
ATOM      3  N   LIG    1       26.647 -18.883   3.549  0.00  0.00    -0.302 N 
ATOM      4  H   LIG    1       27.171 -19.623   3.997  0.00  0.00    +0.149 HD
ATOM      5  O   LIG    1       26.475 -16.644   3.139  0.00  0.00    -0.274 OA
BRANCH   3   6
ATOM      6  C   LIG    1       25.323 -19.257   3.010  0.00  0.00    +0.163 C 
BRANCH   6   7
ATOM      7  C   LIG    1       24.201 -18.315   3.532  0.00  0.00    +0.234 C 
ATOM      8  N   LIG    1       23.003 -18.907   3.852  0.00  0.00    -0.304 N 
ATOM      9  H   LIG    1       22.911 -19.921   3.837  0.00  0.00    +0.149 HD
ATOM     10  O   LIG    1       24.306 -17.092   3.573  0.00  0.00    -0.274 OA
BRANCH   8  11
ATOM     11  C   LIG    1       21.858 -18.103   4.332  0.00  0.00    +0.142 C 
BRANCH  11  12
ATOM     12  C   LIG    1       22.111 -17.402   5.677  0.00  0.00    +0.187 C 
ATOM     13  O   LIG    1       22.790 -17.901   6.592  0.00  0.00    -0.292 OA
BRANCH  12  14
ATOM     14  C   LIG    1       21.461 -16.078   5.968  0.00  0.00    +0.149 C 
ATOM     15  C   LIG    1       19.971 -15.984   6.081  0.00  0.00    +0.052 C 
ATOM     16  O   LIG    1       22.110 -14.925   5.409  0.00  0.00    -0.360 OA
ATOM     17  C   LIG    1       22.260 -15.116   6.820  0.00  0.00    +0.203 C 
ENDBRANCH  12  14
ENDBRANCH  11  12
BRANCH  11  18
ATOM     18  C   LIG    1       20.564 -18.950   4.298  0.00  0.00    +0.033 C 
BRANCH  18  19
ATOM     19  C   LIG    1       19.575 -18.654   3.141  0.00  0.00    -0.015 C 
ATOM     20  C   LIG    1       19.361 -19.894   2.266  0.00  0.00    +0.007 C 
ATOM     21  C   LIG    1       20.030 -17.483   2.267  0.00  0.00    +0.007 C 
ENDBRANCH  18  19
ENDBRANCH  11  18
ENDBRANCH   8  11
ENDBRANCH   6   7
BRANCH   6  22
ATOM     22  C   LIG    1       24.983 -20.748   3.307  0.00  0.00    +0.067 C 
BRANCH  22  23
ATOM     23  C   LIG    1       24.286 -21.056   4.622  0.00  0.00    -0.045 A 
ATOM     24  C   LIG    1       25.015 -21.290   5.794  0.00  0.00    +0.003 A 
ATOM     25  C   LIG    1       24.356 -21.545   7.001  0.00  0.00    +0.000 A 
ATOM     26  C   LIG    1       22.964 -21.558   7.055  0.00  0.00    +0.000 A 
ATOM     27  C   LIG    1       22.226 -21.318   5.902  0.00  0.00    +0.000 A 
ATOM     28  C   LIG    1       22.883 -21.094   4.691  0.00  0.00    +0.003 A 
ENDBRANCH  22  23
ENDBRANCH   6  22
ENDBRANCH   3   6
ENDBRANCH   1   2
BRANCH   1  29
ATOM     29  N   LIG    1       28.990 -16.006   4.101  0.00  0.00    -0.302 N 
ATOM     30  H   LIG    1       29.191 -15.745   3.143  0.00  0.00    +0.149 HD
ATOM     31  C   LIG    1       28.702 -14.997   4.999  0.00  0.00    +0.234 C 
ATOM     32  O   LIG    1       28.110 -15.245   6.047  0.00  0.00    -0.274 OA
BRANCH  31  33
ATOM     33  C   LIG    1       29.139 -13.552   4.661  0.00  0.00    +0.159 C 
BRANCH  33  34
ATOM     34  N   LIG    1       28.053 -13.008   3.800  0.00  0.00    -0.303 N 
ATOM     35  H   LIG    1       28.105 -12.019   3.606  0.00  0.00    +0.149 HD
ATOM     36  C   LIG    1       27.224 -13.730   2.946  0.00  0.00    +0.228 C 
ATOM     37  O   LIG    1       27.241 -14.950   2.824  0.00  0.00    -0.274 OA
BRANCH  36  38
ATOM     38  C   LIG    1       26.287 -12.835   2.093  0.00  0.00    +0.180 C 
BRANCH  38  39
ATOM     39  N   LIG    1       24.986 -13.473   1.815  0.00  0.00    -0.290 NA
ATOM     40  C   LIG    1       24.685 -14.685   2.599  0.00  0.00    +0.113 C 
ATOM     41  C   LIG    1       24.176 -14.423   4.030  0.00  0.00    +0.175 C 
ATOM     42  O   LIG    1       23.052 -13.538   4.046  0.00  0.00    -0.377 OA
ATOM     43  C   LIG    1       23.388 -12.301   3.406  0.00  0.00    +0.175 C 
ATOM     44  C   LIG    1       23.836 -12.551   1.955  0.00  0.00    +0.113 C 
ENDBRANCH  38  39
ENDBRANCH  36  38
ENDBRANCH  33  34
BRANCH  33  45
ATOM     45  C   LIG    1       29.298 -12.798   5.996  0.00  0.00    +0.036 C 
BRANCH  45  46
ATOM     46  C   LIG    1       28.501 -11.490   6.218  0.00  0.00    +0.037 C 
BRANCH  46  47
ATOM     47  C   LIG    1       27.005 -11.688   6.002  0.00  0.00    -0.047 A 
ATOM     48  C   LIG    1       26.191 -12.156   7.043  0.00  0.00    +0.003 A 
ATOM     49  C   LIG    1       24.822 -12.361   6.836  0.00  0.00    +0.000 A 
ATOM     50  C   LIG    1       24.250 -12.116   5.589  0.00  0.00    +0.000 A 
ATOM     51  C   LIG    1       25.046 -11.670   4.543  0.00  0.00    +0.000 A 
ATOM     52  C   LIG    1       26.409 -11.469   4.748  0.00  0.00    +0.003 A 
ENDBRANCH  46  47
ENDBRANCH  45  46
ENDBRANCH  33  45
ENDBRANCH  31  33
ENDBRANCH   1  29
BRANCH   1  53
ATOM     53  C   LIG    1       28.511 -17.831   5.864  0.00  0.00    +0.034 C 
BRANCH  53  55
ATOM     54  C   LIG    1       27.392 -19.969   6.948  0.00  0.00    +0.007 C 
ATOM     55  C   LIG    1       28.566 -19.370   6.139  0.00  0.00    -0.015 C 
ATOM     56  C   LIG    1       28.597 -20.159   4.833  0.00  0.00    +0.007 C 
ENDBRANCH  53  55
ENDBRANCH   1  53
TORSDOF 20
ENDMDL
