MODEL 1
REMARK VINA RESULT:      -9.9      0.000      0.000
REMARK  Name = *****
REMARK                            x       y       z     vdW  Elec       q    Type
REMARK                         _______ _______ _______ _____ _____    ______ ____
ROOT
ATOM      1  C   LIG    1       25.715 -21.929   6.723  0.00  0.00    +0.050 C 
ATOM      2  C   LIG    1       25.261 -23.389   6.496  0.00  0.00    -0.037 A 
ATOM      3  C   LIG    1       23.905 -23.786   6.630  0.00  0.00    -0.043 A 
ATOM      4  C   LIG    1       23.564 -25.150   6.445  0.00  0.00    +0.004 A 
ATOM      5  C   LIG    1       24.519 -26.106   6.127  0.00  0.00    +0.000 A 
ATOM      6  C   LIG    1       25.840 -25.723   5.977  0.00  0.00    +0.000 A 
ATOM      7  C   LIG    1       22.713 -22.883   6.907  0.00  0.00    +0.040 C 
ATOM      8  C   LIG    1       22.892 -21.382   7.133  0.00  0.00    +0.040 C 
ATOM      9  C   LIG    1       23.613 -20.716   5.988  0.00  0.00    -0.043 A 
ATOM     10  C   LIG    1       22.905 -19.875   5.116  0.00  0.00    +0.004 A 
ATOM     11  C   LIG    1       23.543 -19.305   4.016  0.00  0.00    +0.000 A 
ATOM     12  C   LIG    1       24.879 -19.590   3.770  0.00  0.00    +0.000 A 
ATOM     13  C   LIG    1       25.590 -20.436   4.626  0.00  0.00    +0.004 A 
ATOM     14  C   LIG    1       26.204 -24.384   6.156  0.00  0.00    +0.004 A 
ATOM     15  C   LIG    1       24.979 -20.991   5.763  0.00  0.00    -0.037 A 
ENDROOT
BRANCH   1  16
ATOM     16  C   LIG    1       27.264 -21.712   6.803  0.00  0.00    +0.017 C 
BRANCH  16  18
ATOM     17  C   LIG    1       27.015 -20.107   8.782  0.00  0.00    +0.009 C 
ATOM     18  C   LIG    1       27.769 -20.405   7.484  0.00  0.00    +0.001 C 
BRANCH  18  19
ATOM     19  C   LIG    1       29.300 -20.532   7.742  0.00  0.00    +0.087 C 
BRANCH  19  20
ATOM     20  N   LIG    1       30.185 -19.804   6.809  0.00  0.00    -0.308 NA
ATOM     21  C   LIG    1       31.333 -19.197   7.482  0.00  0.00    +0.104 C 
ATOM     22  C   LIG    1       29.424 -18.778   6.089  0.00  0.00    +0.104 C 
ENDBRANCH  19  20
ENDBRANCH  18  19
ENDBRANCH  16  18
ENDBRANCH   1  16
TORSDOF 4
ENDMDL
MODEL 2
REMARK VINA RESULT:      -8.0      1.896      5.364
REMARK  Name = *****
REMARK                            x       y       z     vdW  Elec       q    Type
REMARK                         _______ _______ _______ _____ _____    ______ ____
ROOT
ATOM      1  C   LIG    1       25.512 -21.607   6.228  0.00  0.00    +0.050 C 
ATOM      2  C   LIG    1       26.762 -20.776   6.598  0.00  0.00    -0.037 A 
ATOM      3  C   LIG    1       27.432 -19.961   5.650  0.00  0.00    -0.043 A 
ATOM      4  C   LIG    1       28.596 -19.255   6.048  0.00  0.00    +0.004 A 
ATOM      5  C   LIG    1       29.093 -19.333   7.342  0.00  0.00    +0.000 A 
ATOM      6  C   LIG    1       28.434 -20.113   8.276  0.00  0.00    +0.000 A 
ATOM      7  C   LIG    1       27.009 -19.695   4.214  0.00  0.00    +0.040 C 
ATOM      8  C   LIG    1       25.776 -20.370   3.613  0.00  0.00    +0.040 C 
ATOM      9  C   LIG    1       24.534 -20.114   4.427  0.00  0.00    -0.043 A 
ATOM     10  C   LIG    1       23.543 -19.253   3.930  0.00  0.00    +0.004 A 
ATOM     11  C   LIG    1       22.419 -18.956   4.699  0.00  0.00    +0.000 A 
ATOM     12  C   LIG    1       22.292 -19.495   5.972  0.00  0.00    +0.000 A 
ATOM     13  C   LIG    1       23.279 -20.343   6.481  0.00  0.00    +0.004 A 
ATOM     14  C   LIG    1       27.284 -20.820   7.910  0.00  0.00    +0.004 A 
ATOM     15  C   LIG    1       24.402 -20.690   5.709  0.00  0.00    -0.037 A 
ENDROOT
BRANCH   1  16
ATOM     16  C   LIG    1       25.059 -22.652   7.302  0.00  0.00    +0.017 C 
BRANCH  16  18
ATOM     17  C   LIG    1       22.947 -23.919   6.601  0.00  0.00    +0.009 C 
ATOM     18  C   LIG    1       24.465 -23.997   6.786  0.00  0.00    +0.001 C 
BRANCH  18  19
ATOM     19  C   LIG    1       25.172 -24.380   5.452  0.00  0.00    +0.087 C 
BRANCH  19  20
ATOM     20  N   LIG    1       26.001 -25.604   5.477  0.00  0.00    -0.308 NA
ATOM     21  C   LIG    1       25.579 -26.588   4.481  0.00  0.00    +0.104 C 
ATOM     22  C   LIG    1       25.978 -26.201   6.816  0.00  0.00    +0.104 C 
ENDBRANCH  19  20
ENDBRANCH  18  19
ENDBRANCH  16  18
ENDBRANCH   1  16
TORSDOF 4
ENDMDL
MODEL 3
REMARK VINA RESULT:      -7.7      2.317      5.530
REMARK  Name = *****
REMARK                            x       y       z     vdW  Elec       q    Type
REMARK                         _______ _______ _______ _____ _____    ______ ____
ROOT
ATOM      1  C   LIG    1       25.045 -21.668   5.612  0.00  0.00    +0.050 C 
ATOM      2  C   LIG    1       26.248 -21.056   6.365  0.00  0.00    -0.037 A 
ATOM      3  C   LIG    1       27.107 -20.101   5.762  0.00  0.00    -0.043 A 
ATOM      4  C   LIG    1       28.216 -19.610   6.498  0.00  0.00    +0.004 A 
ATOM      5  C   LIG    1       28.479 -20.031   7.794  0.00  0.00    +0.000 A 
ATOM      6  C   LIG    1       27.635 -20.949   8.394  0.00  0.00    +0.000 A 
ATOM      7  C   LIG    1       26.950 -19.472   4.387  0.00  0.00    +0.040 C 
ATOM      8  C   LIG    1       25.810 -19.880   3.455  0.00  0.00    +0.040 C 
ATOM      9  C   LIG    1       24.459 -19.717   4.102  0.00  0.00    -0.043 A 
ATOM     10  C   LIG    1       23.607 -18.683   3.683  0.00  0.00    +0.004 A 
ATOM     11  C   LIG    1       22.383 -18.479   4.317  0.00  0.00    +0.000 A 
ATOM     12  C   LIG    1       22.015 -19.288   5.383  0.00  0.00    +0.000 A 
ATOM     13  C   LIG    1       22.861 -20.313   5.816  0.00  0.00    +0.004 A 
ATOM     14  C   LIG    1       26.535 -21.451   7.691  0.00  0.00    +0.004 A 
ATOM     15  C   LIG    1       24.082 -20.563   5.168  0.00  0.00    -0.037 A 
ENDROOT
BRANCH   1  16
ATOM     16  C   LIG    1       24.367 -22.893   6.313  0.00  0.00    +0.017 C 
BRANCH  16  18
ATOM     17  C   LIG    1       26.004 -24.630   7.239  0.00  0.00    +0.009 C 
ATOM     18  C   LIG    1       25.028 -24.289   6.111  0.00  0.00    +0.001 C 
BRANCH  18  19
ATOM     19  C   LIG    1       23.908 -25.365   5.996  0.00  0.00    +0.087 C 
BRANCH  19  20
ATOM     20  N   LIG    1       24.282 -26.635   5.339  0.00  0.00    -0.308 NA
ATOM     21  C   LIG    1       24.395 -27.744   6.285  0.00  0.00    +0.104 C 
ATOM     22  C   LIG    1       25.540 -26.471   4.603  0.00  0.00    +0.104 C 
ENDBRANCH  19  20
ENDBRANCH  18  19
ENDBRANCH  16  18
ENDBRANCH   1  16
TORSDOF 4
ENDMDL
MODEL 4
REMARK VINA RESULT:      -7.1      2.227      5.607
REMARK  Name = *****
REMARK                            x       y       z     vdW  Elec       q    Type
REMARK                         _______ _______ _______ _____ _____    ______ ____
ROOT
ATOM      1  C   LIG    1       25.591 -20.548   5.670  0.00  0.00    +0.050 C 
ATOM      2  C   LIG    1       26.940 -20.349   6.398  0.00  0.00    -0.037 A 
ATOM      3  C   LIG    1       27.077 -20.546   7.796  0.00  0.00    -0.043 A 
ATOM      4  C   LIG    1       28.336 -20.308   8.405  0.00  0.00    +0.004 A 
ATOM      5  C   LIG    1       29.439 -19.896   7.670  0.00  0.00    +0.000 A 
ATOM      6  C   LIG    1       29.316 -19.719   6.303  0.00  0.00    +0.000 A 
ATOM      7  C   LIG    1       26.013 -21.053   8.756  0.00  0.00    +0.040 C 
ATOM      8  C   LIG    1       24.595 -21.364   8.274  0.00  0.00    +0.040 C 
ATOM      9  C   LIG    1       24.585 -22.354   7.138  0.00  0.00    -0.043 A 
ATOM     10  C   LIG    1       24.132 -23.664   7.362  0.00  0.00    +0.004 A 
ATOM     11  C   LIG    1       24.178 -24.609   6.339  0.00  0.00    +0.000 A 
ATOM     12  C   LIG    1       24.694 -24.258   5.099  0.00  0.00    +0.000 A 
ATOM     13  C   LIG    1       25.159 -22.960   4.869  0.00  0.00    +0.004 A 
ATOM     14  C   LIG    1       28.086 -19.946   5.677  0.00  0.00    +0.004 A 
ATOM     15  C   LIG    1       25.087 -21.979   5.873  0.00  0.00    -0.037 A 
ENDROOT
BRANCH   1  16
ATOM     16  C   LIG    1       25.543 -20.033   4.192  0.00  0.00    +0.017 C 
BRANCH  16  18
ATOM     17  C   LIG    1       25.693 -17.715   3.116  0.00  0.00    +0.009 C 
ATOM     18  C   LIG    1       24.823 -18.676   3.930  0.00  0.00    +0.001 C 
BRANCH  18  19
ATOM     19  C   LIG    1       23.472 -18.955   3.209  0.00  0.00    +0.087 C 
BRANCH  19  20
ATOM     20  N   LIG    1       22.249 -18.798   4.024  0.00  0.00    -0.308 NA
ATOM     21  C   LIG    1       22.184 -17.501   4.696  0.00  0.00    +0.104 C 
ATOM     22  C   LIG    1       22.156 -19.880   5.009  0.00  0.00    +0.104 C 
ENDBRANCH  19  20
ENDBRANCH  18  19
ENDBRANCH  16  18
ENDBRANCH   1  16
TORSDOF 4
ENDMDL
