MODEL 1
REMARK VINA RESULT:      -5.7      0.000      0.000
REMARK  Name = *****
REMARK                            x       y       z     vdW  Elec       q    Type
REMARK                         _______ _______ _______ _____ _____    ______ ____
ROOT
ATOM      1  C   LIG    1       25.546 -16.636   3.418  0.00  0.00    +0.202 A 
ATOM      2  N   LIG    1       24.411 -17.122   4.029  0.00  0.00    -0.187 NA
ATOM      3  C   LIG    1       24.591 -18.423   3.969  0.00  0.00    +0.262 A 
ATOM      4  O   LIG    1       25.740 -18.775   3.323  0.00  0.00    -0.332 OA
ATOM      5  N   LIG    1       26.372 -17.592   2.960  0.00  0.00    -0.056 NA
ENDROOT
BRANCH   3   6
ATOM      6  C   LIG    1       23.752 -19.503   4.454  0.00  0.00    +0.074 A 
ATOM      7  C   LIG    1       24.268 -20.549   5.226  0.00  0.00    +0.136 A 
ATOM      8  F   LIG    1       25.569 -20.582   5.552  0.00  0.00    -0.205 F 
ATOM      9  C   LIG    1       23.450 -21.572   5.703  0.00  0.00    +0.039 A 
ATOM     10  C   LIG    1       22.088 -21.563   5.405  0.00  0.00    +0.003 A 
ATOM     11  C   LIG    1       21.553 -20.530   4.638  0.00  0.00    +0.001 A 
ATOM     12  C   LIG    1       22.377 -19.502   4.170  0.00  0.00    +0.016 A 
ENDBRANCH   3   6
BRANCH   1  15
ATOM     13  C   LIG    1       25.076 -12.905   3.219  0.00  0.00    +0.059 A 
ATOM     14  C   LIG    1       24.807 -14.270   3.369  0.00  0.00    +0.026 A 
ATOM     15  C   LIG    1       25.846 -15.212   3.323  0.00  0.00    +0.023 A 
ATOM     16  C   LIG    1       27.164 -14.763   3.161  0.00  0.00    +0.012 A 
ATOM     17  C   LIG    1       27.440 -13.397   3.045  0.00  0.00    +0.002 A 
ATOM     18  C   LIG    1       26.397 -12.469   3.073  0.00  0.00    +0.015 A 
BRANCH  13  20
ATOM     19  O   LIG    1       23.494 -11.485   4.281  0.00  0.00    -0.245 OA
ATOM     20  C   LIG    1       23.988 -11.897   3.243  0.00  0.00    +0.337 C 
BRANCH  20  21
ATOM     21  O   LIG    1       23.625 -11.449   2.025  0.00  0.00    -0.477 OA
ATOM     22  H   LIG    1       22.671 -11.284   1.902  0.00  0.00    +0.295 HD
ENDBRANCH  20  21
ENDBRANCH  13  20
ENDBRANCH   1  15
TORSDOF 4
ENDMDL
MODEL 2
REMARK VINA RESULT:      -5.3      1.832      2.301
REMARK  Name = *****
REMARK                            x       y       z     vdW  Elec       q    Type
REMARK                         _______ _______ _______ _____ _____    ______ ____
ROOT
ATOM      1  C   LIG    1       25.350 -16.614   3.420  0.00  0.00    +0.202 A 
ATOM      2  N   LIG    1       24.234 -17.109   4.057  0.00  0.00    -0.187 NA
ATOM      3  C   LIG    1       24.422 -18.409   3.989  0.00  0.00    +0.262 A 
ATOM      4  O   LIG    1       25.557 -18.751   3.315  0.00  0.00    -0.332 OA
ATOM      5  N   LIG    1       26.172 -17.562   2.941  0.00  0.00    -0.056 NA
ENDROOT
BRANCH   3   6
ATOM      6  C   LIG    1       23.601 -19.496   4.491  0.00  0.00    +0.074 A 
ATOM      7  C   LIG    1       24.113 -20.465   5.360  0.00  0.00    +0.136 A 
ATOM      8  F   LIG    1       25.390 -20.415   5.767  0.00  0.00    -0.205 F 
ATOM      9  C   LIG    1       23.312 -21.495   5.850  0.00  0.00    +0.039 A 
ATOM     10  C   LIG    1       21.973 -21.572   5.469  0.00  0.00    +0.003 A 
ATOM     11  C   LIG    1       21.443 -20.616   4.604  0.00  0.00    +0.001 A 
ATOM     12  C   LIG    1       22.250 -19.579   4.122  0.00  0.00    +0.016 A 
ENDBRANCH   3   6
BRANCH   1  15
ATOM     13  C   LIG    1       27.175 -13.327   3.650  0.00  0.00    +0.059 A 
ATOM     14  C   LIG    1       26.905 -14.700   3.682  0.00  0.00    +0.026 A 
ATOM     15  C   LIG    1       25.638 -15.188   3.323  0.00  0.00    +0.023 A 
ATOM     16  C   LIG    1       24.657 -14.281   2.896  0.00  0.00    +0.012 A 
ATOM     17  C   LIG    1       24.935 -12.912   2.831  0.00  0.00    +0.002 A 
ATOM     18  C   LIG    1       26.192 -12.435   3.209  0.00  0.00    +0.015 A 
BRANCH  13  20
ATOM     19  O   LIG    1       28.695 -12.241   5.119  0.00  0.00    -0.245 OA
ATOM     20  C   LIG    1       28.500 -12.793   4.047  0.00  0.00    +0.337 C 
BRANCH  20  21
ATOM     21  O   LIG    1       29.474 -13.006   3.140  0.00  0.00    -0.477 OA
ATOM     22  H   LIG    1       30.362 -13.180   3.507  0.00  0.00    +0.295 HD
ENDBRANCH  20  21
ENDBRANCH  13  20
ENDBRANCH   1  15
TORSDOF 4
ENDMDL
MODEL 3
REMARK VINA RESULT:      -5.0      2.354      2.891
REMARK  Name = *****
REMARK                            x       y       z     vdW  Elec       q    Type
REMARK                         _______ _______ _______ _____ _____    ______ ____
ROOT
ATOM      1  C   LIG    1       24.247 -15.382   3.889  0.00  0.00    +0.202 A 
ATOM      2  N   LIG    1       24.671 -16.687   3.769  0.00  0.00    -0.187 NA
ATOM      3  C   LIG    1       23.626 -17.365   4.191  0.00  0.00    +0.262 A 
ATOM      4  O   LIG    1       22.602 -16.566   4.606  0.00  0.00    -0.332 OA
ATOM      5  N   LIG    1       23.013 -15.253   4.404  0.00  0.00    -0.056 NA
ENDROOT
BRANCH   3   6
ATOM      6  C   LIG    1       23.428 -18.799   4.301  0.00  0.00    +0.074 A 
ATOM      7  C   LIG    1       24.321 -19.711   3.730  0.00  0.00    +0.136 A 
ATOM      8  F   LIG    1       25.403 -19.286   3.062  0.00  0.00    -0.205 F 
ATOM      9  C   LIG    1       24.131 -21.087   3.856  0.00  0.00    +0.039 A 
ATOM     10  C   LIG    1       23.030 -21.572   4.561  0.00  0.00    +0.003 A 
ATOM     11  C   LIG    1       22.129 -20.679   5.138  0.00  0.00    +0.001 A 
ATOM     12  C   LIG    1       22.330 -19.300   5.015  0.00  0.00    +0.016 A 
ENDBRANCH   3   6
BRANCH   1  15
ATOM     13  C   LIG    1       27.131 -12.987   3.525  0.00  0.00    +0.059 A 
ATOM     14  C   LIG    1       26.372 -14.105   3.892  0.00  0.00    +0.026 A 
ATOM     15  C   LIG    1       25.048 -14.246   3.448  0.00  0.00    +0.023 A 
ATOM     16  C   LIG    1       24.508 -13.269   2.600  0.00  0.00    +0.012 A 
ATOM     17  C   LIG    1       25.275 -12.169   2.203  0.00  0.00    +0.002 A 
ATOM     18  C   LIG    1       26.585 -12.028   2.666  0.00  0.00    +0.015 A 
BRANCH  13  20
ATOM     19  O   LIG    1       28.795 -12.251   5.053  0.00  0.00    -0.245 OA
ATOM     20  C   LIG    1       28.524 -12.811   4.003  0.00  0.00    +0.337 C 
BRANCH  20  21
ATOM     21  O   LIG    1       29.456 -13.358   3.198  0.00  0.00    -0.477 OA
ATOM     22  H   LIG    1       29.280 -13.291   2.240  0.00  0.00    +0.295 HD
ENDBRANCH  20  21
ENDBRANCH  13  20
ENDBRANCH   1  15
TORSDOF 4
ENDMDL
MODEL 4
REMARK VINA RESULT:      -3.3      2.625      7.569
REMARK  Name = *****
REMARK                            x       y       z     vdW  Elec       q    Type
REMARK                         _______ _______ _______ _____ _____    ______ ____
ROOT
ATOM      1  C   LIG    1       23.477 -16.137   4.226  0.00  0.00    +0.202 A 
ATOM      2  N   LIG    1       24.838 -16.048   4.028  0.00  0.00    -0.187 NA
ATOM      3  C   LIG    1       25.070 -14.768   4.217  0.00  0.00    +0.262 A 
ATOM      4  O   LIG    1       23.937 -14.052   4.476  0.00  0.00    -0.332 OA
ATOM      5  N   LIG    1       22.885 -14.959   4.483  0.00  0.00    -0.056 NA
ENDROOT
BRANCH   3   6
ATOM      6  C   LIG    1       26.318 -14.029   4.164  0.00  0.00    +0.074 A 
ATOM      7  C   LIG    1       27.010 -13.838   2.965  0.00  0.00    +0.136 A 
ATOM      8  F   LIG    1       26.534 -14.330   1.812  0.00  0.00    -0.205 F 
ATOM      9  C   LIG    1       28.199 -13.111   2.922  0.00  0.00    +0.039 A 
ATOM     10  C   LIG    1       28.718 -12.564   4.094  0.00  0.00    +0.003 A 
ATOM     11  C   LIG    1       28.043 -12.742   5.300  0.00  0.00    +0.001 A 
ATOM     12  C   LIG    1       26.846 -13.465   5.336  0.00  0.00    +0.016 A 
ENDBRANCH   3   6
BRANCH   1  15
ATOM     13  C   LIG    1       22.727 -19.811   4.574  0.00  0.00    +0.059 A 
ATOM     14  C   LIG    1       23.388 -18.579   4.643  0.00  0.00    +0.026 A 
ATOM     15  C   LIG    1       22.756 -17.404   4.208  0.00  0.00    +0.023 A 
ATOM     16  C   LIG    1       21.437 -17.476   3.738  0.00  0.00    +0.012 A 
ATOM     17  C   LIG    1       20.762 -18.700   3.700  0.00  0.00    +0.002 A 
ATOM     18  C   LIG    1       21.406 -19.867   4.117  0.00  0.00    +0.015 A 
BRANCH  13  20
ATOM     19  O   LIG    1       24.313 -21.571   4.394  0.00  0.00    -0.245 OA
ATOM     20  C   LIG    1       23.388 -21.065   5.009  0.00  0.00    +0.337 C 
BRANCH  20  21
ATOM     21  O   LIG    1       22.905 -21.572   6.161  0.00  0.00    -0.477 OA
ATOM     22  H   LIG    1       22.316 -22.344   6.070  0.00  0.00    +0.295 HD
ENDBRANCH  20  21
ENDBRANCH  13  20
ENDBRANCH   1  15
TORSDOF 4
ENDMDL
