MODEL 1
REMARK VINA RESULT:      -7.2      0.000      0.000
REMARK  Name = *****
REMARK                            x       y       z     vdW  Elec       q    Type
REMARK                         _______ _______ _______ _____ _____    ______ ____
ROOT
ATOM      1  N   LIG    1       26.700 -21.379   6.448  0.00  0.00    -0.329 N 
ATOM      2  C   LIG    1       27.855 -20.626   6.509  0.00  0.00    +0.081 A 
ATOM      3  C   LIG    1       29.071 -20.655   7.253  0.00  0.00    +0.026 A 
ATOM      4  C   LIG    1       29.964 -19.588   6.974  0.00  0.00    +0.075 A 
ATOM      5  N   LIG    1       29.737 -18.622   6.072  0.00  0.00    -0.230 NA
ATOM      6  C   LIG    1       28.605 -18.625   5.338  0.00  0.00    +0.144 A 
ATOM      7  C   LIG    1       31.157 -19.534   7.680  0.00  0.00    +0.028 A 
ATOM      8  C   LIG    1       31.498 -20.493   8.637  0.00  0.00    +0.002 A 
ATOM      9  C   LIG    1       30.630 -21.545   8.899  0.00  0.00    +0.001 A 
ATOM     10  C   LIG    1       29.420 -21.635   8.210  0.00  0.00    +0.012 A 
ATOM     11  C   LIG    1       27.630 -19.620   5.561  0.00  0.00    +0.129 A 
ATOM     12  N   LIG    1       26.395 -19.755   4.960  0.00  0.00    -0.232 NA
ATOM     13  C   LIG    1       25.865 -20.812   5.518  0.00  0.00    +0.200 A 
ENDROOT
BRANCH   6  14
ATOM     14  N   LIG    1       28.434 -17.602   4.410  0.00  0.00    -0.341 N 
ATOM     15  H   LIG    1       28.721 -17.883   3.477  0.00  0.00    +0.144 HD
ATOM     16  H   LIG    1       27.528 -17.169   4.512  0.00  0.00    +0.144 HD
ENDBRANCH   6  14
BRANCH   1  17
ATOM     17  C   LIG    1       26.301 -22.525   7.244  0.00  0.00    +0.126 C 
BRANCH  17  19
ATOM     18  C   LIG    1       25.891 -24.952   6.758  0.00  0.00    +0.009 C 
ATOM     19  C   LIG    1       25.399 -23.525   6.499  0.00  0.00    +0.003 C 
ATOM     20  C   LIG    1       23.931 -23.415   6.923  0.00  0.00    +0.009 C 
ENDBRANCH  17  19
ENDBRANCH   1  17
TORSDOF 3
ENDMDL
MODEL 2
REMARK VINA RESULT:      -7.1      2.224      5.999
REMARK  Name = *****
REMARK                            x       y       z     vdW  Elec       q    Type
REMARK                         _______ _______ _______ _____ _____    ______ ____
ROOT
ATOM      1  N   LIG    1       27.222 -21.180   7.005  0.00  0.00    -0.329 N 
ATOM      2  C   LIG    1       25.953 -20.924   6.529  0.00  0.00    +0.081 A 
ATOM      3  C   LIG    1       25.385 -20.238   5.415  0.00  0.00    +0.026 A 
ATOM      4  C   LIG    1       23.966 -20.214   5.393  0.00  0.00    +0.075 A 
ATOM      5  N   LIG    1       23.181 -20.798   6.309  0.00  0.00    -0.230 NA
ATOM      6  C   LIG    1       23.724 -21.484   7.336  0.00  0.00    +0.144 A 
ATOM      7  C   LIG    1       23.341 -19.540   4.354  0.00  0.00    +0.028 A 
ATOM      8  C   LIG    1       24.063 -18.903   3.341  0.00  0.00    +0.002 A 
ATOM      9  C   LIG    1       25.451 -18.940   3.356  0.00  0.00    +0.001 A 
ATOM     10  C   LIG    1       26.117 -19.607   4.384  0.00  0.00    +0.012 A 
ATOM     11  C   LIG    1       25.126 -21.541   7.476  0.00  0.00    +0.129 A 
ATOM     12  N   LIG    1       25.861 -22.136   8.481  0.00  0.00    -0.232 NA
ATOM     13  C   LIG    1       27.109 -21.897   8.171  0.00  0.00    +0.200 A 
ENDROOT
BRANCH   6  14
ATOM     14  N   LIG    1       22.855 -22.079   8.247  0.00  0.00    -0.341 N 
ATOM     15  H   LIG    1       23.184 -22.992   8.546  0.00  0.00    +0.144 HD
ATOM     16  H   LIG    1       22.576 -21.422   8.962  0.00  0.00    +0.144 HD
ENDBRANCH   6  14
BRANCH   1  17
ATOM     17  C   LIG    1       28.508 -20.740   6.495  0.00  0.00    +0.126 C 
BRANCH  17  19
ATOM     18  C   LIG    1       29.927 -19.370   8.045  0.00  0.00    +0.009 C 
ATOM     19  C   LIG    1       28.897 -19.311   6.914  0.00  0.00    +0.003 C 
ATOM     20  C   LIG    1       29.472 -18.498   5.750  0.00  0.00    +0.009 C 
ENDBRANCH  17  19
ENDBRANCH   1  17
TORSDOF 3
ENDMDL
MODEL 3
REMARK VINA RESULT:      -6.9      1.423      2.073
REMARK  Name = *****
REMARK                            x       y       z     vdW  Elec       q    Type
REMARK                         _______ _______ _______ _____ _____    ______ ____
ROOT
ATOM      1  N   LIG    1       24.836 -21.653   5.813  0.00  0.00    -0.329 N 
ATOM      2  C   LIG    1       25.936 -20.832   5.666  0.00  0.00    +0.081 A 
ATOM      3  C   LIG    1       27.218 -20.701   6.276  0.00  0.00    +0.026 A 
ATOM      4  C   LIG    1       28.002 -19.625   5.785  0.00  0.00    +0.075 A 
ATOM      5  N   LIG    1       27.620 -18.788   4.810  0.00  0.00    -0.230 NA
ATOM      6  C   LIG    1       26.424 -18.944   4.205  0.00  0.00    +0.144 A 
ATOM      7  C   LIG    1       29.252 -19.417   6.350  0.00  0.00    +0.028 A 
ATOM      8  C   LIG    1       29.753 -20.234   7.367  0.00  0.00    +0.002 A 
ATOM      9  C   LIG    1       28.991 -21.297   7.836  0.00  0.00    +0.001 A 
ATOM     10  C   LIG    1       27.729 -21.538   7.294  0.00  0.00    +0.012 A 
ATOM     11  C   LIG    1       25.548 -19.960   4.641  0.00  0.00    +0.129 A 
ATOM     12  N   LIG    1       24.272 -20.238   4.193  0.00  0.00    -0.232 NA
ATOM     13  C   LIG    1       23.876 -21.251   4.919  0.00  0.00    +0.200 A 
ENDROOT
BRANCH   6  14
ATOM     14  N   LIG    1       26.090 -18.050   3.192  0.00  0.00    -0.341 N 
ATOM     15  H   LIG    1       25.097 -17.843   3.179  0.00  0.00    +0.144 HD
ATOM     16  H   LIG    1       26.734 -17.272   3.169  0.00  0.00    +0.144 HD
ENDBRANCH   6  14
BRANCH   1  17
ATOM     17  C   LIG    1       24.599 -22.718   6.770  0.00  0.00    +0.126 C 
BRANCH  17  19
ATOM     18  C   LIG    1       26.014 -24.788   6.852  0.00  0.00    +0.009 C 
ATOM     19  C   LIG    1       24.794 -24.134   6.198  0.00  0.00    +0.003 C 
ATOM     20  C   LIG    1       23.568 -25.025   6.417  0.00  0.00    +0.009 C 
ENDBRANCH  17  19
ENDBRANCH   1  17
TORSDOF 3
ENDMDL
MODEL 4
REMARK VINA RESULT:      -6.7      2.352      4.310
REMARK  Name = *****
REMARK                            x       y       z     vdW  Elec       q    Type
REMARK                         _______ _______ _______ _____ _____    ______ ____
ROOT
ATOM      1  N   LIG    1       25.076 -20.717   5.046  0.00  0.00    -0.329 N 
ATOM      2  C   LIG    1       26.010 -20.572   6.051  0.00  0.00    +0.081 A 
ATOM      3  C   LIG    1       27.305 -19.989   6.184  0.00  0.00    +0.026 A 
ATOM      4  C   LIG    1       27.901 -20.150   7.462  0.00  0.00    +0.075 A 
ATOM      5  N   LIG    1       27.321 -20.771   8.499  0.00  0.00    -0.230 NA
ATOM      6  C   LIG    1       26.077 -21.282   8.381  0.00  0.00    +0.144 A 
ATOM      7  C   LIG    1       29.172 -19.633   7.659  0.00  0.00    +0.028 A 
ATOM      8  C   LIG    1       29.866 -18.960   6.649  0.00  0.00    +0.002 A 
ATOM      9  C   LIG    1       29.275 -18.789   5.403  0.00  0.00    +0.001 A 
ATOM     10  C   LIG    1       27.998 -19.295   5.166  0.00  0.00    +0.012 A 
ATOM     11  C   LIG    1       25.407 -21.210   7.142  0.00  0.00    +0.129 A 
ATOM     12  N   LIG    1       24.168 -21.721   6.810  0.00  0.00    -0.232 NA
ATOM     13  C   LIG    1       24.005 -21.413   5.550  0.00  0.00    +0.200 A 
ENDROOT
BRANCH   6  14
ATOM     14  N   LIG    1       25.525 -21.903   9.497  0.00  0.00    -0.341 N 
ATOM     15  H   LIG    1       26.168 -21.914  10.283  0.00  0.00    +0.144 HD
ATOM     16  H   LIG    1       24.584 -21.576   9.664  0.00  0.00    +0.144 HD
ENDBRANCH   6  14
BRANCH   1  17
ATOM     17  C   LIG    1       25.150 -20.324   3.651  0.00  0.00    +0.126 C 
BRANCH  17  19
ATOM     18  C   LIG    1       23.229 -18.824   4.249  0.00  0.00    +0.009 C 
ATOM     19  C   LIG    1       24.444 -18.993   3.333  0.00  0.00    +0.003 C 
ATOM     20  C   LIG    1       25.372 -17.786   3.500  0.00  0.00    +0.009 C 
ENDBRANCH  17  19
ENDBRANCH   1  17
TORSDOF 3
ENDMDL
MODEL 5
REMARK VINA RESULT:      -6.5      2.509      5.992
REMARK  Name = *****
REMARK                            x       y       z     vdW  Elec       q    Type
REMARK                         _______ _______ _______ _____ _____    ______ ____
ROOT
ATOM      1  N   LIG    1       26.365 -22.311   6.729  0.00  0.00    -0.329 N 
ATOM      2  C   LIG    1       25.240 -21.816   6.101  0.00  0.00    +0.081 A 
ATOM      3  C   LIG    1       24.939 -20.737   5.219  0.00  0.00    +0.026 A 
ATOM      4  C   LIG    1       23.566 -20.611   4.882  0.00  0.00    +0.075 A 
ATOM      5  N   LIG    1       22.599 -21.432   5.314  0.00  0.00    -0.230 NA
ATOM      6  C   LIG    1       22.896 -22.478   6.113  0.00  0.00    +0.144 A 
ATOM      7  C   LIG    1       23.191 -19.567   4.049  0.00  0.00    +0.028 A 
ATOM      8  C   LIG    1       24.120 -18.657   3.535  0.00  0.00    +0.002 A 
ATOM      9  C   LIG    1       25.465 -18.790   3.854  0.00  0.00    +0.001 A 
ATOM     10  C   LIG    1       25.881 -19.826   4.689  0.00  0.00    +0.012 A 
ATOM     11  C   LIG    1       24.226 -22.675   6.540  0.00  0.00    +0.129 A 
ATOM     12  N   LIG    1       24.713 -23.642   7.396  0.00  0.00    -0.232 NA
ATOM     13  C   LIG    1       25.993 -23.391   7.490  0.00  0.00    +0.200 A 
ENDROOT
BRANCH   6  14
ATOM     14  N   LIG    1       21.849 -23.302   6.516  0.00  0.00    -0.341 N 
ATOM     15  H   LIG    1       21.565 -23.944   5.783  0.00  0.00    +0.144 HD
ATOM     16  H   LIG    1       22.023 -23.685   7.434  0.00  0.00    +0.144 HD
ENDBRANCH   6  14
BRANCH   1  17
ATOM     17  C   LIG    1       27.725 -21.804   6.725  0.00  0.00    +0.126 C 
BRANCH  17  19
ATOM     18  C   LIG    1       28.883 -19.661   7.326  0.00  0.00    +0.009 C 
ATOM     19  C   LIG    1       28.032 -20.814   7.863  0.00  0.00    +0.003 C 
ATOM     20  C   LIG    1       26.760 -20.246   8.501  0.00  0.00    +0.009 C 
ENDBRANCH  17  19
ENDBRANCH   1  17
TORSDOF 3
ENDMDL
MODEL 6
REMARK VINA RESULT:      -6.5      1.242      5.012
REMARK  Name = *****
REMARK                            x       y       z     vdW  Elec       q    Type
REMARK                         _______ _______ _______ _____ _____    ______ ____
ROOT
ATOM      1  N   LIG    1       28.547 -20.422   6.924  0.00  0.00    -0.329 N 
ATOM      2  C   LIG    1       27.316 -20.644   6.340  0.00  0.00    +0.081 A 
ATOM      3  C   LIG    1       26.232 -21.551   6.527  0.00  0.00    +0.026 A 
ATOM      4  C   LIG    1       25.166 -21.400   5.603  0.00  0.00    +0.075 A 
ATOM      5  N   LIG    1       25.127 -20.477   4.631  0.00  0.00    -0.230 NA
ATOM      6  C   LIG    1       26.135 -19.593   4.487  0.00  0.00    +0.144 A 
ATOM      7  C   LIG    1       24.087 -22.265   5.704  0.00  0.00    +0.028 A 
ATOM      8  C   LIG    1       24.021 -23.260   6.684  0.00  0.00    +0.002 A 
ATOM      9  C   LIG    1       25.058 -23.396   7.598  0.00  0.00    +0.001 A 
ATOM     10  C   LIG    1       26.161 -22.545   7.529  0.00  0.00    +0.012 A 
ATOM     11  C   LIG    1       27.263 -19.676   5.330  0.00  0.00    +0.129 A 
ATOM     12  N   LIG    1       28.410 -18.908   5.301  0.00  0.00    -0.232 NA
ATOM     13  C   LIG    1       29.157 -19.385   6.263  0.00  0.00    +0.200 A 
ENDROOT
BRANCH   6  14
ATOM     14  N   LIG    1       26.029 -18.651   3.468  0.00  0.00    -0.341 N 
ATOM     15  H   LIG    1       25.102 -18.239   3.426  0.00  0.00    +0.144 HD
ATOM     16  H   LIG    1       26.822 -18.026   3.469  0.00  0.00    +0.144 HD
ENDBRANCH   6  14
BRANCH   1  17
ATOM     17  C   LIG    1       29.211 -21.152   7.988  0.00  0.00    +0.126 C 
BRANCH  17  19
ATOM     18  C   LIG    1       30.702 -19.415   9.015  0.00  0.00    +0.009 C 
ATOM     19  C   LIG    1       30.671 -20.728   8.227  0.00  0.00    +0.003 C 
ATOM     20  C   LIG    1       31.470 -21.790   8.989  0.00  0.00    +0.009 C 
ENDBRANCH  17  19
ENDBRANCH   1  17
TORSDOF 3
ENDMDL
MODEL 7
REMARK VINA RESULT:      -6.4      2.350      6.316
REMARK  Name = *****
REMARK                            x       y       z     vdW  Elec       q    Type
REMARK                         _______ _______ _______ _____ _____    ______ ____
ROOT
ATOM      1  N   LIG    1       26.026 -22.118   7.163  0.00  0.00    -0.329 N 
ATOM      2  C   LIG    1       25.214 -23.192   6.862  0.00  0.00    +0.081 A 
ATOM      3  C   LIG    1       25.397 -24.571   6.549  0.00  0.00    +0.026 A 
ATOM      4  C   LIG    1       24.201 -25.278   6.257  0.00  0.00    +0.075 A 
ATOM      5  N   LIG    1       22.974 -24.740   6.286  0.00  0.00    -0.230 NA
ATOM      6  C   LIG    1       22.803 -23.445   6.626  0.00  0.00    +0.144 A 
ATOM      7  C   LIG    1       24.302 -26.618   5.916  0.00  0.00    +0.028 A 
ATOM      8  C   LIG    1       25.532 -27.281   5.863  0.00  0.00    +0.002 A 
ATOM      9  C   LIG    1       26.699 -26.592   6.164  0.00  0.00    +0.001 A 
ATOM     10  C   LIG    1       26.640 -25.243   6.511  0.00  0.00    +0.012 A 
ATOM     11  C   LIG    1       23.928 -22.640   6.900  0.00  0.00    +0.129 A 
ATOM     12  N   LIG    1       23.961 -21.294   7.205  0.00  0.00    -0.232 NA
ATOM     13  C   LIG    1       25.230 -21.015   7.351  0.00  0.00    +0.200 A 
ENDROOT
BRANCH   6  14
ATOM     14  N   LIG    1       21.502 -22.949   6.650  0.00  0.00    -0.341 N 
ATOM     15  H   LIG    1       21.426 -22.057   6.171  0.00  0.00    +0.144 HD
ATOM     16  H   LIG    1       20.836 -23.670   6.410  0.00  0.00    +0.144 HD
ENDBRANCH   6  14
BRANCH   1  17
ATOM     17  C   LIG    1       27.475 -22.038   7.210  0.00  0.00    +0.126 C 
BRANCH  17  19
ATOM     18  C   LIG    1       29.422 -20.598   7.864  0.00  0.00    +0.009 C 
ATOM     19  C   LIG    1       28.026 -20.601   7.234  0.00  0.00    +0.003 C 
ATOM     20  C   LIG    1       28.104 -19.983   5.835  0.00  0.00    +0.009 C 
ENDBRANCH  17  19
ENDBRANCH   1  17
TORSDOF 3
ENDMDL
MODEL 8
REMARK VINA RESULT:      -6.3      5.685      9.278
REMARK  Name = *****
REMARK                            x       y       z     vdW  Elec       q    Type
REMARK                         _______ _______ _______ _____ _____    ______ ____
ROOT
ATOM      1  N   LIG    1       25.265 -27.246   6.501  0.00  0.00    -0.329 N 
ATOM      2  C   LIG    1       25.281 -28.471   7.138  0.00  0.00    +0.081 A 
ATOM      3  C   LIG    1       25.807 -28.997   8.354  0.00  0.00    +0.026 A 
ATOM      4  C   LIG    1       25.592 -30.386   8.543  0.00  0.00    +0.075 A 
ATOM      5  N   LIG    1       24.929 -31.176   7.686  0.00  0.00    -0.230 NA
ATOM      6  C   LIG    1       24.394 -30.664   6.558  0.00  0.00    +0.144 A 
ATOM      7  C   LIG    1       26.100 -30.976   9.691  0.00  0.00    +0.028 A 
ATOM      8  C   LIG    1       26.800 -30.244  10.654  0.00  0.00    +0.002 A 
ATOM      9  C   LIG    1       26.996 -28.881  10.476  0.00  0.00    +0.001 A 
ATOM     10  C   LIG    1       26.501 -28.252   9.334  0.00  0.00    +0.012 A 
ATOM     11  C   LIG    1       24.581 -29.300   6.253  0.00  0.00    +0.129 A 
ATOM     12  N   LIG    1       24.167 -28.611   5.131  0.00  0.00    -0.232 NA
ATOM     13  C   LIG    1       24.596 -27.389   5.310  0.00  0.00    +0.200 A 
ENDROOT
BRANCH   6  14
ATOM     14  N   LIG    1       23.708 -31.534   5.715  0.00  0.00    -0.341 N 
ATOM     15  H   LIG    1       24.176 -32.431   5.630  0.00  0.00    +0.144 HD
ATOM     16  H   LIG    1       22.720 -31.537   5.927  0.00  0.00    +0.144 HD
ENDBRANCH   6  14
BRANCH   1  17
ATOM     17  C   LIG    1       25.889 -25.995   6.887  0.00  0.00    +0.126 C 
BRANCH  17  19
ATOM     18  C   LIG    1       23.754 -24.709   6.603  0.00  0.00    +0.009 C 
ATOM     19  C   LIG    1       25.244 -24.748   6.256  0.00  0.00    +0.003 C 
ATOM     20  C   LIG    1       25.904 -23.448   6.727  0.00  0.00    +0.009 C 
ENDBRANCH  17  19
ENDBRANCH   1  17
TORSDOF 3
ENDMDL
MODEL 9
REMARK VINA RESULT:      -6.2      2.201      4.137
REMARK  Name = *****
REMARK                            x       y       z     vdW  Elec       q    Type
REMARK                         _______ _______ _______ _____ _____    ______ ____
ROOT
ATOM      1  N   LIG    1       25.196 -19.363   3.914  0.00  0.00    -0.329 N 
ATOM      2  C   LIG    1       26.081 -19.833   4.862  0.00  0.00    +0.081 A 
ATOM      3  C   LIG    1       26.099 -20.879   5.831  0.00  0.00    +0.026 A 
ATOM      4  C   LIG    1       27.269 -20.926   6.634  0.00  0.00    +0.075 A 
ATOM      5  N   LIG    1       28.309 -20.090   6.510  0.00  0.00    -0.230 NA
ATOM      6  C   LIG    1       28.306 -19.130   5.561  0.00  0.00    +0.144 A 
ATOM      7  C   LIG    1       27.347 -21.900   7.618  0.00  0.00    +0.028 A 
ATOM      8  C   LIG    1       26.322 -22.827   7.829  0.00  0.00    +0.002 A 
ATOM      9  C   LIG    1       25.185 -22.790   7.033  0.00  0.00    +0.001 A 
ATOM     10  C   LIG    1       25.068 -21.826   6.033  0.00  0.00    +0.012 A 
ATOM     11  C   LIG    1       27.176 -18.971   4.732  0.00  0.00    +0.129 A 
ATOM     12  N   LIG    1       26.961 -18.020   3.755  0.00  0.00    -0.232 NA
ATOM     13  C   LIG    1       25.767 -18.281   3.291  0.00  0.00    +0.200 A 
ENDROOT
BRANCH   6  14
ATOM     14  N   LIG    1       29.422 -18.303   5.475  0.00  0.00    -0.341 N 
ATOM     15  H   LIG    1       30.128 -18.542   6.165  0.00  0.00    +0.144 HD
ATOM     16  H   LIG    1       29.720 -18.196   4.516  0.00  0.00    +0.144 HD
ENDBRANCH   6  14
BRANCH   1  17
ATOM     17  C   LIG    1       23.845 -19.800   3.612  0.00  0.00    +0.126 C 
BRANCH  17  19
ATOM     18  C   LIG    1       22.044 -18.270   4.452  0.00  0.00    +0.009 C 
ATOM     19  C   LIG    1       22.833 -19.549   4.744  0.00  0.00    +0.003 C 
ATOM     20  C   LIG    1       21.855 -20.714   4.921  0.00  0.00    +0.009 C 
ENDBRANCH  17  19
ENDBRANCH   1  17
TORSDOF 3
ENDMDL
