MODEL 1
REMARK VINA RESULT:      -9.2      0.000      0.000
REMARK  Name = *****
REMARK                            x       y       z     vdW  Elec       q    Type
REMARK                         _______ _______ _______ _____ _____    ______ ____
ROOT
ATOM      1  N   LIG    1       26.140 -26.279   5.838  0.00  0.00    -0.302 NA
ATOM      2  C   LIG    1       25.592 -26.899   7.059  0.00  0.00    +0.087 C 
ATOM      3  C   LIG    1       24.341 -27.749   6.824  0.00  0.00    +0.055 C 
ATOM      4  C   LIG    1       24.560 -28.842   5.756  0.00  0.00    +0.093 C 
ATOM      5  C   LIG    1       25.170 -28.179   4.503  0.00  0.00    +0.055 C 
ATOM      6  C   LIG    1       26.394 -27.323   4.836  0.00  0.00    +0.087 C 
ENDROOT
BRANCH   4   7
ATOM      7  C   LIG    1       25.290 -30.084   6.292  0.00  0.00    -0.016 A 
ATOM      8  C   LIG    1       25.866 -31.001   5.387  0.00  0.00    +0.007 A 
ATOM      9  C   LIG    1       26.584 -32.119   5.828  0.00  0.00    +0.015 A 
ATOM     10  C   LIG    1       26.752 -32.336   7.190  0.00  0.00    +0.018 A 
ATOM     11 BR   LIG    1       27.743 -33.825   7.797  0.00  0.00    -0.050 Br
ATOM     12  C   LIG    1       26.208 -31.446   8.109  0.00  0.00    +0.015 A 
ATOM     13  C   LIG    1       25.488 -30.331   7.661  0.00  0.00    +0.007 A 
ENDBRANCH   4   7
BRANCH   4  14
ATOM     14  O   LIG    1       23.250 -29.316   5.386  0.00  0.00    -0.384 OA
ATOM     15  H   LIG    1       22.931 -29.873   6.116  0.00  0.00    +0.211 HD
ENDBRANCH   4  14
BRANCH   1  16
ATOM     16  C   LIG    1       25.297 -25.166   5.357  0.00  0.00    +0.085 C 
BRANCH  16  17
ATOM     17  C   LIG    1       24.773 -24.261   6.490  0.00  0.00    +0.023 C 
BRANCH  17  18
ATOM     18  C   LIG    1       25.842 -23.341   7.091  0.00  0.00    +0.081 C 
BRANCH  18  20
ATOM     19  O   LIG    1       25.321 -21.553   8.626  0.00  0.00    -0.292 OA
ATOM     20  C   LIG    1       25.307 -21.965   7.471  0.00  0.00    +0.163 C 
BRANCH  20  21
ATOM     21  C   LIG    1       24.716 -21.098   6.403  0.00  0.00    +0.018 A 
ATOM     22  C   LIG    1       23.375 -20.700   6.540  0.00  0.00    +0.014 A 
ATOM     23  C   LIG    1       22.761 -19.926   5.554  0.00  0.00    +0.039 A 
ATOM     24  C   LIG    1       23.487 -19.549   4.432  0.00  0.00    +0.123 A 
ATOM     25  F   LIG    1       22.895 -18.821   3.476  0.00  0.00    -0.205 F 
ATOM     26  C   LIG    1       24.818 -19.921   4.284  0.00  0.00    +0.039 A 
ATOM     27  C   LIG    1       25.438 -20.695   5.271  0.00  0.00    +0.014 A 
ENDBRANCH  20  21
ENDBRANCH  18  20
ENDBRANCH  17  18
ENDBRANCH  16  17
ENDBRANCH   1  16
TORSDOF 7
ENDMDL
MODEL 2
REMARK VINA RESULT:      -9.1      5.708      8.000
REMARK  Name = *****
REMARK                            x       y       z     vdW  Elec       q    Type
REMARK                         _______ _______ _______ _____ _____    ______ ____
ROOT
ATOM      1  N   LIG    1       28.255 -20.621   6.778  0.00  0.00    -0.302 NA
ATOM      2  C   LIG    1       27.998 -21.608   7.843  0.00  0.00    +0.087 C 
ATOM      3  C   LIG    1       26.609 -21.499   8.477  0.00  0.00    +0.055 C 
ATOM      4  C   LIG    1       25.474 -21.572   7.433  0.00  0.00    +0.093 C 
ATOM      5  C   LIG    1       25.784 -20.561   6.309  0.00  0.00    +0.055 C 
ATOM      6  C   LIG    1       27.203 -20.720   5.759  0.00  0.00    +0.087 C 
ENDROOT
BRANCH   4   7
ATOM      7  C   LIG    1       25.145 -23.005   6.986  0.00  0.00    -0.016 A 
ATOM      8  C   LIG    1       26.186 -23.948   6.843  0.00  0.00    +0.007 A 
ATOM      9  C   LIG    1       25.931 -25.278   6.487  0.00  0.00    +0.015 A 
ATOM     10  C   LIG    1       24.622 -25.697   6.279  0.00  0.00    +0.018 A 
ATOM     11 BR   LIG    1       24.263 -27.495   5.827  0.00  0.00    -0.050 Br
ATOM     12  C   LIG    1       23.572 -24.797   6.423  0.00  0.00    +0.015 A 
ATOM     13  C   LIG    1       23.835 -23.467   6.776  0.00  0.00    +0.007 A 
ENDBRANCH   4   7
BRANCH   4  14
ATOM     14  O   LIG    1       24.281 -21.111   8.097  0.00  0.00    -0.384 OA
ATOM     15  H   LIG    1       23.564 -21.126   7.439  0.00  0.00    +0.211 HD
ENDBRANCH   4  14
BRANCH   1  16
ATOM     16  C   LIG    1       28.451 -19.261   7.321  0.00  0.00    +0.085 C 
BRANCH  16  17
ATOM     17  C   LIG    1       29.585 -18.481   6.627  0.00  0.00    +0.023 C 
BRANCH  17  18
ATOM     18  C   LIG    1       30.953 -19.169   6.715  0.00  0.00    +0.081 C 
BRANCH  18  20
ATOM     19  O   LIG    1       31.570 -20.720   8.458  0.00  0.00    -0.292 OA
ATOM     20  C   LIG    1       31.338 -19.559   8.137  0.00  0.00    +0.163 C 
BRANCH  20  21
ATOM     21  C   LIG    1       31.409 -18.492   9.186  0.00  0.00    +0.018 A 
ATOM     22  C   LIG    1       32.307 -17.429   8.987  0.00  0.00    +0.014 A 
ATOM     23  C   LIG    1       32.444 -16.428   9.952  0.00  0.00    +0.039 A 
ATOM     24  C   LIG    1       31.684 -16.491  11.113  0.00  0.00    +0.123 A 
ATOM     25  F   LIG    1       31.827 -15.542  12.046  0.00  0.00    -0.205 F 
ATOM     26  C   LIG    1       30.782 -17.527  11.320  0.00  0.00    +0.039 A 
ATOM     27  C   LIG    1       30.639 -18.530  10.356  0.00  0.00    +0.014 A 
ENDBRANCH  20  21
ENDBRANCH  18  20
ENDBRANCH  17  18
ENDBRANCH  16  17
ENDBRANCH   1  16
TORSDOF 7
ENDMDL
MODEL 3
REMARK VINA RESULT:      -8.8      2.748      3.813
REMARK  Name = *****
REMARK                            x       y       z     vdW  Elec       q    Type
REMARK                         _______ _______ _______ _____ _____    ______ ____
ROOT
ATOM      1  N   LIG    1       24.527 -23.942   6.731  0.00  0.00    -0.302 NA
ATOM      2  C   LIG    1       23.589 -25.047   6.460  0.00  0.00    +0.087 C 
ATOM      3  C   LIG    1       24.101 -26.068   5.441  0.00  0.00    +0.055 C 
ATOM      4  C   LIG    1       25.476 -26.654   5.829  0.00  0.00    +0.093 C 
ATOM      5  C   LIG    1       26.428 -25.483   6.148  0.00  0.00    +0.055 C 
ATOM      6  C   LIG    1       25.822 -24.495   7.147  0.00  0.00    +0.087 C 
ENDROOT
BRANCH   4   7
ATOM      7  C   LIG    1       25.390 -27.767   6.886  0.00  0.00    -0.016 A 
ATOM      8  C   LIG    1       26.259 -27.744   7.997  0.00  0.00    +0.007 A 
ATOM      9  C   LIG    1       26.185 -28.707   9.011  0.00  0.00    +0.015 A 
ATOM     10  C   LIG    1       25.225 -29.710   8.939  0.00  0.00    +0.018 A 
ATOM     11 BR   LIG    1       25.097 -30.998  10.315  0.00  0.00    -0.050 Br
ATOM     12  C   LIG    1       24.345 -29.755   7.864  0.00  0.00    +0.015 A 
ATOM     13  C   LIG    1       24.427 -28.790   6.852  0.00  0.00    +0.007 A 
ENDBRANCH   4   7
BRANCH   4  14
ATOM     14  O   LIG    1       25.988 -27.305   4.650  0.00  0.00    -0.384 OA
ATOM     15  H   LIG    1       25.228 -27.486   4.071  0.00  0.00    +0.211 HD
ENDBRANCH   4  14
BRANCH   1  16
ATOM     16  C   LIG    1       24.604 -22.993   5.602  0.00  0.00    +0.085 C 
BRANCH  16  17
ATOM     17  C   LIG    1       23.563 -21.859   5.681  0.00  0.00    +0.023 C 
BRANCH  17  18
ATOM     18  C   LIG    1       24.144 -20.517   6.144  0.00  0.00    +0.081 C 
BRANCH  18  20
ATOM     19  O   LIG    1       24.724 -20.981   8.440  0.00  0.00    -0.292 OA
ATOM     20  C   LIG    1       25.103 -20.652   7.321  0.00  0.00    +0.163 C 
BRANCH  20  21
ATOM     21  C   LIG    1       26.554 -20.347   7.111  0.00  0.00    +0.018 A 
ATOM     22  C   LIG    1       26.989 -20.072   5.803  0.00  0.00    +0.014 A 
ATOM     23  C   LIG    1       28.338 -19.822   5.543  0.00  0.00    +0.039 A 
ATOM     24  C   LIG    1       29.250 -19.844   6.590  0.00  0.00    +0.123 A 
ATOM     25  F   LIG    1       30.547 -19.620   6.341  0.00  0.00    -0.205 F 
ATOM     26  C   LIG    1       28.837 -20.100   7.892  0.00  0.00    +0.039 A 
ATOM     27  C   LIG    1       27.486 -20.349   8.158  0.00  0.00    +0.014 A 
ENDBRANCH  20  21
ENDBRANCH  18  20
ENDBRANCH  17  18
ENDBRANCH  16  17
ENDBRANCH   1  16
TORSDOF 7
ENDMDL
MODEL 4
REMARK VINA RESULT:      -8.8      3.417      4.446
REMARK  Name = *****
REMARK                            x       y       z     vdW  Elec       q    Type
REMARK                         _______ _______ _______ _____ _____    ______ ____
ROOT
ATOM      1  N   LIG    1       24.312 -23.599   6.864  0.00  0.00    -0.302 NA
ATOM      2  C   LIG    1       23.485 -24.768   6.510  0.00  0.00    +0.087 C 
ATOM      3  C   LIG    1       24.123 -25.695   5.473  0.00  0.00    +0.055 C 
ATOM      4  C   LIG    1       25.529 -26.177   5.891  0.00  0.00    +0.093 C 
ATOM      5  C   LIG    1       26.362 -24.942   6.295  0.00  0.00    +0.055 C 
ATOM      6  C   LIG    1       25.635 -24.056   7.308  0.00  0.00    +0.087 C 
ENDROOT
BRANCH   4   7
ATOM      7  C   LIG    1       25.503 -27.338   6.897  0.00  0.00    -0.016 A 
ATOM      8  C   LIG    1       24.623 -28.422   6.691  0.00  0.00    +0.007 A 
ATOM      9  C   LIG    1       24.599 -29.526   7.552  0.00  0.00    +0.015 A 
ATOM     10  C   LIG    1       25.470 -29.574   8.634  0.00  0.00    +0.018 A 
ATOM     11 BR   LIG    1       25.467 -31.071   9.786  0.00  0.00    -0.050 Br
ATOM     12  C   LIG    1       26.358 -28.529   8.859  0.00  0.00    +0.015 A 
ATOM     13  C   LIG    1       26.375 -27.426   7.996  0.00  0.00    +0.007 A 
ENDBRANCH   4   7
BRANCH   4  14
ATOM     14  O   LIG    1       26.138 -26.728   4.708  0.00  0.00    -0.384 OA
ATOM     15  H   LIG    1       25.561 -26.503   3.958  0.00  0.00    +0.211 HD
ENDBRANCH   4  14
BRANCH   1  16
ATOM     16  C   LIG    1       24.346 -22.598   5.778  0.00  0.00    +0.085 C 
BRANCH  16  17
ATOM     17  C   LIG    1       24.303 -21.142   6.284  0.00  0.00    +0.023 C 
BRANCH  17  18
ATOM     18  C   LIG    1       25.623 -20.662   6.900  0.00  0.00    +0.081 C 
BRANCH  18  20
ATOM     19  O   LIG    1       26.301 -19.941   4.699  0.00  0.00    -0.292 OA
ATOM     20  C   LIG    1       26.619 -20.155   5.864  0.00  0.00    +0.163 C 
BRANCH  20  21
ATOM     21  C   LIG    1       28.043 -19.939   6.274  0.00  0.00    +0.018 A 
ATOM     22  C   LIG    1       28.555 -20.721   7.324  0.00  0.00    +0.014 A 
ATOM     23  C   LIG    1       29.863 -20.533   7.775  0.00  0.00    +0.039 A 
ATOM     24  C   LIG    1       30.658 -19.564   7.177  0.00  0.00    +0.123 A 
ATOM     25  F   LIG    1       31.907 -19.370   7.620  0.00  0.00    -0.205 F 
ATOM     26  C   LIG    1       30.174 -18.790   6.129  0.00  0.00    +0.039 A 
ATOM     27  C   LIG    1       28.865 -18.977   5.672  0.00  0.00    +0.014 A 
ENDBRANCH  20  21
ENDBRANCH  18  20
ENDBRANCH  17  18
ENDBRANCH  16  17
ENDBRANCH   1  16
TORSDOF 7
ENDMDL
MODEL 5
REMARK VINA RESULT:      -8.6      5.836      9.581
REMARK  Name = *****
REMARK                            x       y       z     vdW  Elec       q    Type
REMARK                         _______ _______ _______ _____ _____    ______ ____
ROOT
ATOM      1  N   LIG    1       26.685 -20.099   6.421  0.00  0.00    -0.302 NA
ATOM      2  C   LIG    1       26.899 -20.124   7.880  0.00  0.00    +0.087 C 
ATOM      3  C   LIG    1       28.028 -21.052   8.333  0.00  0.00    +0.055 C 
ATOM      4  C   LIG    1       29.368 -20.743   7.630  0.00  0.00    +0.093 C 
ATOM      5  C   LIG    1       29.113 -20.681   6.109  0.00  0.00    +0.055 C 
ATOM      6  C   LIG    1       27.947 -19.757   5.752  0.00  0.00    +0.087 C 
ENDROOT
BRANCH   4   7
ATOM      7  C   LIG    1       30.118 -19.550   8.242  0.00  0.00    -0.016 A 
ATOM      8  C   LIG    1       31.409 -19.221   7.775  0.00  0.00    +0.007 A 
ATOM      9  C   LIG    1       32.110 -18.114   8.267  0.00  0.00    +0.015 A 
ATOM     10  C   LIG    1       31.526 -17.300   9.230  0.00  0.00    +0.018 A 
ATOM     11 BR   LIG    1       32.451 -15.787   9.880  0.00  0.00    -0.050 Br
ATOM     12  C   LIG    1       30.251 -17.588   9.703  0.00  0.00    +0.015 A 
ATOM     13  C   LIG    1       29.555 -18.699   9.210  0.00  0.00    +0.007 A 
ENDBRANCH   4   7
BRANCH   4  14
ATOM     14  O   LIG    1       30.223 -21.877   7.868  0.00  0.00    -0.384 OA
ATOM     15  H   LIG    1       29.855 -22.359   8.628  0.00  0.00    +0.211 HD
ENDBRANCH   4  14
BRANCH   1  16
ATOM     16  C   LIG    1       26.054 -21.342   5.933  0.00  0.00    +0.085 C 
BRANCH  16  17
ATOM     17  C   LIG    1       24.574 -21.480   6.345  0.00  0.00    +0.023 C 
BRANCH  17  18
ATOM     18  C   LIG    1       24.324 -22.569   7.395  0.00  0.00    +0.081 C 
BRANCH  18  20
ATOM     19  O   LIG    1       22.399 -23.885   6.772  0.00  0.00    -0.292 OA
ATOM     20  C   LIG    1       23.621 -23.798   6.830  0.00  0.00    +0.163 C 
BRANCH  20  21
ATOM     21  C   LIG    1       24.450 -24.951   6.353  0.00  0.00    +0.018 A 
ATOM     22  C   LIG    1       23.799 -25.999   5.680  0.00  0.00    +0.014 A 
ATOM     23  C   LIG    1       24.516 -27.118   5.250  0.00  0.00    +0.039 A 
ATOM     24  C   LIG    1       25.881 -27.189   5.493  0.00  0.00    +0.123 A 
ATOM     25  F   LIG    1       26.567 -28.269   5.097  0.00  0.00    -0.205 F 
ATOM     26  C   LIG    1       26.544 -26.156   6.146  0.00  0.00    +0.039 A 
ATOM     27  C   LIG    1       25.831 -25.032   6.575  0.00  0.00    +0.014 A 
ENDBRANCH  20  21
ENDBRANCH  18  20
ENDBRANCH  17  18
ENDBRANCH  16  17
ENDBRANCH   1  16
TORSDOF 7
ENDMDL
MODEL 6
REMARK VINA RESULT:      -8.6      5.989      9.523
REMARK  Name = *****
REMARK                            x       y       z     vdW  Elec       q    Type
REMARK                         _______ _______ _______ _____ _____    ______ ____
ROOT
ATOM      1  N   LIG    1       27.925 -21.405   8.311  0.00  0.00    -0.302 NA
ATOM      2  C   LIG    1       29.385 -21.543   8.470  0.00  0.00    +0.087 C 
ATOM      3  C   LIG    1       30.204 -20.802   7.411  0.00  0.00    +0.055 C 
ATOM      4  C   LIG    1       29.843 -19.303   7.325  0.00  0.00    +0.093 C 
ATOM      5  C   LIG    1       28.310 -19.180   7.200  0.00  0.00    +0.055 C 
ATOM      6  C   LIG    1       27.574 -19.979   8.278  0.00  0.00    +0.087 C 
ENDROOT
BRANCH   4   7
ATOM      7  C   LIG    1       30.507 -18.451   8.419  0.00  0.00    -0.016 A 
ATOM      8  C   LIG    1       29.767 -18.084   9.563  0.00  0.00    +0.007 A 
ATOM      9  C   LIG    1       30.342 -17.352  10.609  0.00  0.00    +0.015 A 
ATOM     10  C   LIG    1       31.680 -16.982  10.536  0.00  0.00    +0.018 A 
ATOM     11 BR   LIG    1       32.475 -16.019  11.953  0.00  0.00    -0.050 Br
ATOM     12  C   LIG    1       32.441 -17.338   9.429  0.00  0.00    +0.015 A 
ATOM     13  C   LIG    1       31.858 -18.068   8.385  0.00  0.00    +0.007 A 
ENDBRANCH   4   7
BRANCH   4  14
ATOM     14  O   LIG    1       30.406 -18.820   6.090  0.00  0.00    -0.384 OA
ATOM     15  H   LIG    1       31.205 -18.315   6.318  0.00  0.00    +0.211 HD
ENDBRANCH   4  14
BRANCH   1  16
ATOM     16  C   LIG    1       27.417 -22.185   7.164  0.00  0.00    +0.085 C 
BRANCH  16  17
ATOM     17  C   LIG    1       26.180 -23.040   7.504  0.00  0.00    +0.023 C 
BRANCH  17  18
ATOM     18  C   LIG    1       25.372 -23.473   6.275  0.00  0.00    +0.081 C 
BRANCH  18  20
ATOM     19  O   LIG    1       23.004 -23.418   6.740  0.00  0.00    -0.292 OA
ATOM     20  C   LIG    1       23.974 -22.866   6.231  0.00  0.00    +0.163 C 
BRANCH  20  21
ATOM     21  C   LIG    1       23.772 -21.565   5.518  0.00  0.00    +0.018 A 
ATOM     22  C   LIG    1       24.749 -21.160   4.592  0.00  0.00    +0.014 A 
ATOM     23  C   LIG    1       24.633 -19.936   3.929  0.00  0.00    +0.039 A 
ATOM     24  C   LIG    1       23.541 -19.119   4.191  0.00  0.00    +0.123 A 
ATOM     25  F   LIG    1       23.437 -17.938   3.569  0.00  0.00    -0.205 F 
ATOM     26  C   LIG    1       22.559 -19.508   5.093  0.00  0.00    +0.039 A 
ATOM     27  C   LIG    1       22.669 -20.734   5.758  0.00  0.00    +0.014 A 
ENDBRANCH  20  21
ENDBRANCH  18  20
ENDBRANCH  17  18
ENDBRANCH  16  17
ENDBRANCH   1  16
TORSDOF 7
ENDMDL
MODEL 7
REMARK VINA RESULT:      -8.5      2.075      2.672
REMARK  Name = *****
REMARK                            x       y       z     vdW  Elec       q    Type
REMARK                         _______ _______ _______ _____ _____    ______ ____
ROOT
ATOM      1  N   LIG    1       26.208 -26.282   5.870  0.00  0.00    -0.302 NA
ATOM      2  C   LIG    1       25.626 -26.867   7.092  0.00  0.00    +0.087 C 
ATOM      3  C   LIG    1       24.366 -27.701   6.849  0.00  0.00    +0.055 C 
ATOM      4  C   LIG    1       24.587 -28.819   5.807  0.00  0.00    +0.093 C 
ATOM      5  C   LIG    1       25.233 -28.191   4.554  0.00  0.00    +0.055 C 
ATOM      6  C   LIG    1       26.464 -27.349   4.894  0.00  0.00    +0.087 C 
ENDROOT
BRANCH   4   7
ATOM      7  C   LIG    1       25.285 -30.061   6.381  0.00  0.00    -0.016 A 
ATOM      8  C   LIG    1       25.769 -31.058   5.507  0.00  0.00    +0.007 A 
ATOM      9  C   LIG    1       26.456 -32.182   5.980  0.00  0.00    +0.015 A 
ATOM     10  C   LIG    1       26.685 -32.326   7.343  0.00  0.00    +0.018 A 
ATOM     11 BR   LIG    1       27.636 -33.825   7.990  0.00  0.00    -0.050 Br
ATOM     12  C   LIG    1       26.233 -31.358   8.231  0.00  0.00    +0.015 A 
ATOM     13  C   LIG    1       25.543 -30.236   7.752  0.00  0.00    +0.007 A 
ENDBRANCH   4   7
BRANCH   4  14
ATOM     14  O   LIG    1       23.277 -29.278   5.420  0.00  0.00    -0.384 OA
ATOM     15  H   LIG    1       23.210 -30.211   5.688  0.00  0.00    +0.211 HD
ENDBRANCH   4  14
BRANCH   1  16
ATOM     16  C   LIG    1       25.394 -25.164   5.351  0.00  0.00    +0.085 C 
BRANCH  16  17
ATOM     17  C   LIG    1       24.882 -24.215   6.453  0.00  0.00    +0.023 C 
BRANCH  17  18
ATOM     18  C   LIG    1       24.544 -22.807   5.949  0.00  0.00    +0.081 C 
BRANCH  18  20
ATOM     19  O   LIG    1       24.209 -21.207   7.726  0.00  0.00    -0.292 OA
ATOM     20  C   LIG    1       24.978 -21.706   6.910  0.00  0.00    +0.163 C 
BRANCH  20  21
ATOM     21  C   LIG    1       26.383 -21.194   6.837  0.00  0.00    +0.018 A 
ATOM     22  C   LIG    1       26.711 -20.306   5.798  0.00  0.00    +0.014 A 
ATOM     23  C   LIG    1       28.016 -19.829   5.658  0.00  0.00    +0.039 A 
ATOM     24  C   LIG    1       28.992 -20.240   6.556  0.00  0.00    +0.123 A 
ATOM     25  F   LIG    1       30.248 -19.797   6.413  0.00  0.00    -0.205 F 
ATOM     26  C   LIG    1       28.685 -21.106   7.598  0.00  0.00    +0.039 A 
ATOM     27  C   LIG    1       27.378 -21.584   7.744  0.00  0.00    +0.014 A 
ENDBRANCH  20  21
ENDBRANCH  18  20
ENDBRANCH  17  18
ENDBRANCH  16  17
ENDBRANCH   1  16
TORSDOF 7
ENDMDL
MODEL 8
REMARK VINA RESULT:      -8.4      4.474      8.468
REMARK  Name = *****
REMARK                            x       y       z     vdW  Elec       q    Type
REMARK                         _______ _______ _______ _____ _____    ______ ____
ROOT
ATOM      1  N   LIG    1       24.167 -29.384   6.560  0.00  0.00    -0.302 NA
ATOM      2  C   LIG    1       24.705 -28.616   7.699  0.00  0.00    +0.087 C 
ATOM      3  C   LIG    1       26.020 -27.892   7.401  0.00  0.00    +0.055 C 
ATOM      4  C   LIG    1       25.922 -26.969   6.168  0.00  0.00    +0.093 C 
ATOM      5  C   LIG    1       25.320 -27.780   5.001  0.00  0.00    +0.055 C 
ATOM      6  C   LIG    1       24.028 -28.497   5.398  0.00  0.00    +0.087 C 
ENDROOT
BRANCH   4   7
ATOM      7  C   LIG    1       25.258 -25.616   6.468  0.00  0.00    -0.016 A 
ATOM      8  C   LIG    1       26.054 -24.520   6.865  0.00  0.00    +0.007 A 
ATOM      9  C   LIG    1       25.501 -23.255   7.100  0.00  0.00    +0.015 A 
ATOM     10  C   LIG    1       24.136 -23.058   6.929  0.00  0.00    +0.018 A 
ATOM     11 BR   LIG    1       23.382 -21.349   7.216  0.00  0.00    -0.050 Br
ATOM     12  C   LIG    1       23.325 -24.113   6.527  0.00  0.00    +0.015 A 
ATOM     13  C   LIG    1       23.884 -25.376   6.296  0.00  0.00    +0.007 A 
ENDBRANCH   4   7
BRANCH   4  14
ATOM     14  O   LIG    1       27.276 -26.641   5.798  0.00  0.00    -0.384 OA
ATOM     15  H   LIG    1       27.225 -25.981   5.085  0.00  0.00    +0.211 HD
ENDBRANCH   4  14
BRANCH   1  16
ATOM     16  C   LIG    1       24.950 -30.609   6.300  0.00  0.00    +0.085 C 
BRANCH  16  17
ATOM     17  C   LIG    1       24.904 -31.624   7.461  0.00  0.00    +0.023 C 
BRANCH  17  18
ATOM     18  C   LIG    1       26.274 -31.905   8.091  0.00  0.00    +0.081 C 
BRANCH  18  20
ATOM     19  O   LIG    1       26.258 -32.954  10.264  0.00  0.00    -0.292 OA
ATOM     20  C   LIG    1       26.243 -31.914   9.614  0.00  0.00    +0.163 C 
BRANCH  20  21
ATOM     21  C   LIG    1       26.164 -30.609  10.344  0.00  0.00    +0.018 A 
ATOM     22  C   LIG    1       27.286 -29.762  10.310  0.00  0.00    +0.014 A 
ATOM     23  C   LIG    1       27.282 -28.552  11.007  0.00  0.00    +0.039 A 
ATOM     24  C   LIG    1       26.158 -28.189  11.737  0.00  0.00    +0.123 A 
ATOM     25  F   LIG    1       26.159 -27.037  12.420  0.00  0.00    -0.205 F 
ATOM     26  C   LIG    1       25.034 -29.006  11.772  0.00  0.00    +0.039 A 
ATOM     27  C   LIG    1       25.032 -30.218  11.073  0.00  0.00    +0.014 A 
ENDBRANCH  20  21
ENDBRANCH  18  20
ENDBRANCH  17  18
ENDBRANCH  16  17
ENDBRANCH   1  16
TORSDOF 7
ENDMDL
MODEL 9
REMARK VINA RESULT:      -8.4      7.299      9.926
REMARK  Name = *****
REMARK                            x       y       z     vdW  Elec       q    Type
REMARK                         _______ _______ _______ _____ _____    ______ ____
ROOT
ATOM      1  N   LIG    1       27.888 -20.093   8.179  0.00  0.00    -0.302 NA
ATOM      2  C   LIG    1       27.888 -20.015   6.706  0.00  0.00    +0.087 C 
ATOM      3  C   LIG    1       27.344 -21.266   6.012  0.00  0.00    +0.055 C 
ATOM      4  C   LIG    1       25.930 -21.648   6.499  0.00  0.00    +0.093 C 
ATOM      5  C   LIG    1       25.943 -21.684   8.042  0.00  0.00    +0.055 C 
ATOM      6  C   LIG    1       26.533 -20.409   8.648  0.00  0.00    +0.087 C 
ENDROOT
BRANCH   4   7
ATOM      7  C   LIG    1       24.814 -20.815   5.849  0.00  0.00    -0.016 A 
ATOM      8  C   LIG    1       25.032 -20.217   4.589  0.00  0.00    +0.007 A 
ATOM      9  C   LIG    1       24.029 -19.492   3.934  0.00  0.00    +0.015 A 
ATOM     10  C   LIG    1       22.777 -19.363   4.523  0.00  0.00    +0.018 A 
ATOM     11 BR   LIG    1       21.407 -18.411   3.636  0.00  0.00    -0.050 Br
ATOM     12  C   LIG    1       22.524 -19.949   5.758  0.00  0.00    +0.015 A 
ATOM     13  C   LIG    1       23.533 -20.671   6.409  0.00  0.00    +0.007 A 
ENDBRANCH   4   7
BRANCH   4  14
ATOM     14  O   LIG    1       25.694 -22.996   6.049  0.00  0.00    -0.384 OA
ATOM     15  H   LIG    1       26.491 -23.279   5.568  0.00  0.00    +0.211 HD
ENDBRANCH   4  14
BRANCH   1  16
ATOM     16  C   LIG    1       28.936 -21.005   8.683  0.00  0.00    +0.085 C 
BRANCH  16  17
ATOM     17  C   LIG    1       30.287 -20.847   7.957  0.00  0.00    +0.023 C 
BRANCH  17  18
ATOM     18  C   LIG    1       31.337 -20.076   8.766  0.00  0.00    +0.081 C 
BRANCH  18  20
ATOM     19  O   LIG    1       30.937 -18.071   7.483  0.00  0.00    -0.292 OA
ATOM     20  C   LIG    1       31.269 -18.568   8.554  0.00  0.00    +0.163 C 
BRANCH  20  21
ATOM     21  C   LIG    1       31.649 -17.661   9.683  0.00  0.00    +0.018 A 
ATOM     22  C   LIG    1       32.603 -16.658   9.434  0.00  0.00    +0.014 A 
ATOM     23  C   LIG    1       33.024 -15.811  10.460  0.00  0.00    +0.039 A 
ATOM     24  C   LIG    1       32.492 -15.964  11.734  0.00  0.00    +0.123 A 
ATOM     25  F   LIG    1       32.908 -15.163  12.724  0.00  0.00    -0.205 F 
ATOM     26  C   LIG    1       31.538 -16.940  11.996  0.00  0.00    +0.039 A 
ATOM     27  C   LIG    1       31.110 -17.790  10.971  0.00  0.00    +0.014 A 
ENDBRANCH  20  21
ENDBRANCH  18  20
ENDBRANCH  17  18
ENDBRANCH  16  17
ENDBRANCH   1  16
TORSDOF 7
ENDMDL
