MODEL 1
REMARK VINA RESULT:       7.1      0.000      0.000
REMARK  Name = *****
REMARK                            x       y       z     vdW  Elec       q    Type
REMARK                         _______ _______ _______ _____ _____    ______ ____
ROOT
ATOM      1  C   LIG    1       27.595 -17.532   4.531  0.00  0.00    +0.258 C 
ATOM      2  C   LIG    1       27.197 -16.694   3.219  0.00  0.00    +0.274 C 
ATOM      3  N   LIG    1       27.981 -15.574   3.780  0.00  0.00    -0.230 N 
ATOM      4  C   LIG    1       27.583 -14.280   3.494  0.00  0.00    +0.125 C 
ATOM      5  C   LIG    1       26.465 -14.037   2.746  0.00  0.00    -0.005 C 
ATOM      6  C   LIG    1       25.584 -15.176   2.276  0.00  0.00    +0.196 C 
ATOM      7  O   LIG    1       25.808 -16.374   3.018  0.00  0.00    -0.349 OA
ATOM      8  C   LIG    1       28.018 -16.092   5.031  0.00  0.00    +0.277 C 
ATOM      9  O   LIG    1       28.261 -15.535   6.103  0.00  0.00    -0.270 OA
ENDROOT
BRANCH   1  10
ATOM     10  N   LIG    1       26.449 -18.117   5.276  0.00  0.00    -0.276 N 
ATOM     11  H   LIG    1       26.177 -17.711   6.165  0.00  0.00    +0.152 HD
ATOM     12  C   LIG    1       25.638 -19.080   4.714  0.00  0.00    +0.234 C 
ATOM     13  O   LIG    1       25.799 -19.511   3.572  0.00  0.00    -0.275 OA
BRANCH  12  14
ATOM     14  C   LIG    1       24.487 -19.547   5.601  0.00  0.00    +0.213 C 
BRANCH  14  15
ATOM     15  C   LIG    1       23.137 -19.397   4.911  0.00  0.00    -0.025 A 
ATOM     16  C   LIG    1       22.704 -18.150   4.432  0.00  0.00    +0.008 A 
ATOM     17  C   LIG    1       21.465 -18.015   3.808  0.00  0.00    +0.045 A 
ATOM     18  C   LIG    1       20.656 -19.128   3.638  0.00  0.00    +0.117 A 
ATOM     19  C   LIG    1       21.069 -20.382   4.077  0.00  0.00    +0.045 A 
ATOM     20  C   LIG    1       22.309 -20.517   4.710  0.00  0.00    +0.008 A 
BRANCH  18  21
ATOM     21  O   LIG    1       19.455 -18.943   3.023  0.00  0.00    -0.507 OA
ATOM     22  H   LIG    1       19.323 -19.650   2.371  0.00  0.00    +0.292 HD
ENDBRANCH  18  21
ENDBRANCH  14  15
BRANCH  14  23
ATOM     23  C   LIG    1       24.674 -20.951   6.144  0.00  0.00    +0.321 C 
ATOM     24  O   LIG    1       25.724 -21.572   6.009  0.00  0.00    -0.250 OA
BRANCH  23  25
ATOM     25  O   LIG    1       23.634 -21.465   6.837  0.00  0.00    -0.480 OA
ATOM     26  H   LIG    1       22.888 -21.767   6.267  0.00  0.00    +0.295 HD
ENDBRANCH  23  25
ENDBRANCH  14  23
ENDBRANCH  12  14
ENDBRANCH   1  10
BRANCH   1  28
ATOM     27  C   LIG    1       29.027 -19.232   5.566  0.00  0.00    +0.197 C 
ATOM     28  O   LIG    1       28.741 -18.419   4.429  0.00  0.00    -0.348 OA
ENDBRANCH   1  28
BRANCH   4  29
ATOM     29  C   LIG    1       28.514 -13.160   3.893  0.00  0.00    +0.351 C 
ATOM     30  O   LIG    1       29.472 -12.800   3.233  0.00  0.00    -0.244 OA
BRANCH  29  31
ATOM     31  O   LIG    1       28.280 -12.639   5.118  0.00  0.00    -0.476 OA
ATOM     32  H   LIG    1       29.033 -12.681   5.749  0.00  0.00    +0.295 HD
ENDBRANCH  29  31
ENDBRANCH   4  29
BRANCH   5  33
ATOM     33  C   LIG    1       25.932 -12.666   2.356  0.00  0.00    +0.112 C 
BRANCH  33  34
ATOM     34  S   LIG    1       24.125 -12.734   2.156  0.00  0.00    -0.080 S 
BRANCH  34  35
ATOM     35  C   LIG    1       23.659 -13.504   3.632  0.00  0.00    +0.209 A 
ATOM     36  N   LIG    1       23.690 -12.896   4.855  0.00  0.00    -0.223 N 
ATOM     37  C   LIG    1       24.106 -11.570   5.214  0.00  0.00    +0.177 C 
ATOM     38  N   LIG    1       23.218 -13.743   5.788  0.00  0.00    -0.043 NA
ATOM     39  N   LIG    1       22.898 -14.847   5.123  0.00  0.00    -0.022 NA
ATOM     40  N   LIG    1       23.166 -14.712   3.779  0.00  0.00    -0.102 NA
ENDBRANCH  34  35
ENDBRANCH  33  34
ENDBRANCH   5  33
TORSDOF 12
ENDMDL
MODEL 2
REMARK VINA RESULT:       7.3      2.961      7.957
REMARK  Name = *****
REMARK                            x       y       z     vdW  Elec       q    Type
REMARK                         _______ _______ _______ _____ _____    ______ ____
ROOT
ATOM      1  C   LIG    1       22.435 -16.895   3.903  0.00  0.00    +0.258 C 
ATOM      2  C   LIG    1       23.181 -18.179   3.289  0.00  0.00    +0.274 C 
ATOM      3  N   LIG    1       22.567 -18.971   4.375  0.00  0.00    -0.230 N 
ATOM      4  C   LIG    1       23.256 -20.065   4.866  0.00  0.00    +0.125 C 
ATOM      5  C   LIG    1       24.497 -20.386   4.392  0.00  0.00    -0.005 C 
ATOM      6  C   LIG    1       25.189 -19.506   3.371  0.00  0.00    +0.196 C 
ATOM      7  O   LIG    1       24.620 -18.198   3.313  0.00  0.00    -0.349 OA
ATOM      8  C   LIG    1       22.243 -17.887   5.121  0.00  0.00    +0.277 C 
ATOM      9  O   LIG    1       21.964 -17.816   6.319  0.00  0.00    -0.270 OA
ENDROOT
BRANCH   1  10
ATOM     10  N   LIG    1       23.317 -15.737   4.202  0.00  0.00    -0.276 N 
ATOM     11  H   LIG    1       24.089 -15.856   4.850  0.00  0.00    +0.152 HD
ATOM     12  C   LIG    1       23.226 -14.557   3.494  0.00  0.00    +0.234 C 
ATOM     13  O   LIG    1       22.424 -14.386   2.575  0.00  0.00    -0.275 OA
BRANCH  12  14
ATOM     14  C   LIG    1       24.229 -13.483   3.904  0.00  0.00    +0.213 C 
BRANCH  14  15
ATOM     15  C   LIG    1       25.616 -14.062   4.153  0.00  0.00    -0.025 A 
ATOM     16  C   LIG    1       26.120 -15.101   3.354  0.00  0.00    +0.008 A 
ATOM     17  C   LIG    1       27.386 -15.633   3.590  0.00  0.00    +0.045 A 
ATOM     18  C   LIG    1       28.170 -15.119   4.612  0.00  0.00    +0.117 A 
ATOM     19  C   LIG    1       27.708 -14.072   5.403  0.00  0.00    +0.045 A 
ATOM     20  C   LIG    1       26.435 -13.542   5.173  0.00  0.00    +0.008 A 
BRANCH  18  21
ATOM     21  O   LIG    1       29.399 -15.675   4.801  0.00  0.00    -0.507 OA
ATOM     22  H   LIG    1       29.496 -15.910   5.738  0.00  0.00    +0.292 HD
ENDBRANCH  18  21
ENDBRANCH  14  15
BRANCH  14  23
ATOM     23  C   LIG    1       24.286 -12.311   2.942  0.00  0.00    +0.321 C 
ATOM     24  O   LIG    1       25.283 -12.061   2.273  0.00  0.00    -0.250 OA
BRANCH  23  25
ATOM     25  O   LIG    1       23.153 -11.585   2.819  0.00  0.00    -0.480 OA
ATOM     26  H   LIG    1       23.174 -10.940   2.073  0.00  0.00    +0.295 HD
ENDBRANCH  23  25
ENDBRANCH  14  23
ENDBRANCH  12  14
ENDBRANCH   1  10
BRANCH   1  28
ATOM     27  C   LIG    1       20.631 -17.406   2.323  0.00  0.00    +0.197 C 
ATOM     28  O   LIG    1       21.161 -16.524   3.313  0.00  0.00    -0.348 OA
ENDBRANCH   1  28
BRANCH   4  29
ATOM     29  C   LIG    1       22.522 -20.981   5.816  0.00  0.00    +0.351 C 
ATOM     30  O   LIG    1       22.918 -21.268   6.931  0.00  0.00    -0.244 OA
BRANCH  29  31
ATOM     31  O   LIG    1       21.421 -21.571   5.298  0.00  0.00    -0.476 OA
ATOM     32  H   LIG    1       20.571 -21.344   5.737  0.00  0.00    +0.295 HD
ENDBRANCH  29  31
ENDBRANCH   4  29
BRANCH   5  33
ATOM     33  C   LIG    1       25.347 -21.565   4.841  0.00  0.00    +0.112 C 
BRANCH  33  34
ATOM     34  S   LIG    1       25.702 -21.434   6.621  0.00  0.00    -0.080 S 
BRANCH  34  35
ATOM     35  C   LIG    1       27.354 -20.924   6.590  0.00  0.00    +0.209 A 
ATOM     36  N   LIG    1       27.772 -19.715   6.113  0.00  0.00    -0.223 N 
ATOM     37  C   LIG    1       27.015 -18.642   5.534  0.00  0.00    +0.177 C 
ATOM     38  N   LIG    1       29.103 -19.604   6.278  0.00  0.00    -0.043 NA
ATOM     39  N   LIG    1       29.475 -20.738   6.860  0.00  0.00    -0.022 NA
ATOM     40  N   LIG    1       28.395 -21.570   7.062  0.00  0.00    -0.102 NA
ENDBRANCH  34  35
ENDBRANCH  33  34
ENDBRANCH   5  33
TORSDOF 12
ENDMDL
