MODEL 1
REMARK VINA RESULT:      -8.7      0.000      0.000
REMARK  Name = *****
REMARK                            x       y       z     vdW  Elec       q    Type
REMARK                         _______ _______ _______ _____ _____    ______ ____
ROOT
ATOM      1  O   LIG    1       23.262 -21.367   8.007  0.00  0.00    -0.287 OA
ATOM      2  C   LIG    1       23.726 -21.730   6.927  0.00  0.00    +0.193 C 
ENDROOT
BRANCH   2   3
ATOM      3  C   LIG    1       24.271 -23.107   6.803  0.00  0.00    +0.022 A 
ATOM      4  C   LIG    1       23.391 -24.140   6.455  0.00  0.00    +0.012 A 
ATOM      5  C   LIG    1       23.861 -25.444   6.307  0.00  0.00    +0.001 A 
ATOM      6  C   LIG    1       25.215 -25.722   6.496  0.00  0.00    +0.000 A 
ATOM      7  C   LIG    1       26.100 -24.695   6.821  0.00  0.00    +0.001 A 
ATOM      8  C   LIG    1       25.633 -23.386   6.966  0.00  0.00    +0.012 A 
ENDBRANCH   2   3
BRANCH   2   9
ATOM      9  C   LIG    1       23.721 -20.775   5.788  0.00  0.00    +0.022 A 
ATOM     10  C   LIG    1       24.805 -20.661   4.909  0.00  0.00    +0.012 A 
ATOM     11  C   LIG    1       24.758 -19.738   3.862  0.00  0.00    +0.001 A 
ATOM     12  C   LIG    1       23.641 -18.918   3.700  0.00  0.00    +0.000 A 
ATOM     13  C   LIG    1       22.570 -19.011   4.588  0.00  0.00    +0.001 A 
ATOM     14  C   LIG    1       22.612 -19.934   5.634  0.00  0.00    +0.012 A 
ENDBRANCH   2   9
TORSDOF 2
ENDMDL
MODEL 2
REMARK VINA RESULT:      -8.7      0.070      5.134
REMARK  Name = *****
REMARK                            x       y       z     vdW  Elec       q    Type
REMARK                         _______ _______ _______ _____ _____    ______ ____
ROOT
ATOM      1  O   LIG    1       23.262 -21.356   7.990  0.00  0.00    -0.287 OA
ATOM      2  C   LIG    1       23.698 -21.709   6.896  0.00  0.00    +0.193 C 
ENDROOT
BRANCH   2   3
ATOM      3  C   LIG    1       23.697 -20.736   5.772  0.00  0.00    +0.022 A 
ATOM      4  C   LIG    1       22.572 -19.918   5.605  0.00  0.00    +0.012 A 
ATOM      5  C   LIG    1       22.533 -18.976   4.577  0.00  0.00    +0.001 A 
ATOM      6  C   LIG    1       23.622 -18.841   3.716  0.00  0.00    +0.000 A 
ATOM      7  C   LIG    1       24.753 -19.637   3.890  0.00  0.00    +0.001 A 
ATOM      8  C   LIG    1       24.797 -20.578   4.922  0.00  0.00    +0.012 A 
ENDBRANCH   2   3
BRANCH   2   9
ATOM      9  C   LIG    1       24.211 -23.095   6.741  0.00  0.00    +0.022 A 
ATOM     10  C   LIG    1       23.372 -24.165   6.406  0.00  0.00    +0.012 A 
ATOM     11  C   LIG    1       23.900 -25.453   6.287  0.00  0.00    +0.001 A 
ATOM     12  C   LIG    1       25.258 -25.678   6.517  0.00  0.00    +0.000 A 
ATOM     13  C   LIG    1       26.091 -24.619   6.876  0.00  0.00    +0.001 A 
ATOM     14  C   LIG    1       25.569 -23.331   6.993  0.00  0.00    +0.012 A 
ENDBRANCH   2   9
TORSDOF 2
ENDMDL
MODEL 3
REMARK VINA RESULT:      -8.7      0.169      1.302
REMARK  Name = *****
REMARK                            x       y       z     vdW  Elec       q    Type
REMARK                         _______ _______ _______ _____ _____    ______ ____
ROOT
ATOM      1  O   LIG    1       23.341 -21.164   8.042  0.00  0.00    -0.287 OA
ATOM      2  C   LIG    1       23.756 -21.545   6.949  0.00  0.00    +0.193 C 
ENDROOT
BRANCH   2   3
ATOM      3  C   LIG    1       24.277 -22.931   6.819  0.00  0.00    +0.022 A 
ATOM      4  C   LIG    1       23.374 -23.951   6.490  0.00  0.00    +0.012 A 
ATOM      5  C   LIG    1       23.821 -25.263   6.337  0.00  0.00    +0.001 A 
ATOM      6  C   LIG    1       25.173 -25.562   6.503  0.00  0.00    +0.000 A 
ATOM      7  C   LIG    1       26.081 -24.548   6.809  0.00  0.00    +0.001 A 
ATOM      8  C   LIG    1       25.637 -23.232   6.958  0.00  0.00    +0.012 A 
ENDBRANCH   2   3
BRANCH   2   9
ATOM      9  C   LIG    1       23.719 -20.603   5.799  0.00  0.00    +0.022 A 
ATOM     10  C   LIG    1       22.590 -19.827   5.510  0.00  0.00    +0.012 A 
ATOM     11  C   LIG    1       22.599 -18.967   4.409  0.00  0.00    +0.001 A 
ATOM     12  C   LIG    1       23.724 -18.893   3.588  0.00  0.00    +0.000 A 
ATOM     13  C   LIG    1       24.841 -19.684   3.857  0.00  0.00    +0.001 A 
ATOM     14  C   LIG    1       24.837 -20.542   4.958  0.00  0.00    +0.012 A 
ENDBRANCH   2   9
TORSDOF 2
ENDMDL
MODEL 4
REMARK VINA RESULT:      -8.7      0.181      5.100
REMARK  Name = *****
REMARK                            x       y       z     vdW  Elec       q    Type
REMARK                         _______ _______ _______ _____ _____    ______ ____
ROOT
ATOM      1  O   LIG    1       23.331 -21.159   8.049  0.00  0.00    -0.287 OA
ATOM      2  C   LIG    1       23.746 -21.533   6.954  0.00  0.00    +0.193 C 
ENDROOT
BRANCH   2   3
ATOM      3  C   LIG    1       23.705 -20.588   5.807  0.00  0.00    +0.022 A 
ATOM      4  C   LIG    1       24.826 -20.513   4.970  0.00  0.00    +0.012 A 
ATOM      5  C   LIG    1       24.825 -19.656   3.869  0.00  0.00    +0.001 A 
ATOM      6  C   LIG    1       23.702 -18.875   3.595  0.00  0.00    +0.000 A 
ATOM      7  C   LIG    1       22.575 -18.961   4.413  0.00  0.00    +0.001 A 
ATOM      8  C   LIG    1       22.571 -19.822   5.513  0.00  0.00    +0.012 A 
ENDBRANCH   2   3
BRANCH   2   9
ATOM      9  C   LIG    1       24.274 -22.915   6.820  0.00  0.00    +0.022 A 
ATOM     10  C   LIG    1       25.635 -23.209   6.967  0.00  0.00    +0.012 A 
ATOM     11  C   LIG    1       26.084 -24.523   6.818  0.00  0.00    +0.001 A 
ATOM     12  C   LIG    1       25.182 -25.540   6.505  0.00  0.00    +0.000 A 
ATOM     13  C   LIG    1       23.829 -25.248   6.332  0.00  0.00    +0.001 A 
ATOM     14  C   LIG    1       23.376 -23.937   6.484  0.00  0.00    +0.012 A 
ENDBRANCH   2   9
TORSDOF 2
ENDMDL
MODEL 5
REMARK VINA RESULT:      -8.4      2.807      4.950
REMARK  Name = *****
REMARK                            x       y       z     vdW  Elec       q    Type
REMARK                         _______ _______ _______ _____ _____    ______ ____
ROOT
ATOM      1  O   LIG    1       25.784 -20.957   9.398  0.00  0.00    -0.287 OA
ATOM      2  C   LIG    1       25.995 -21.296   8.235  0.00  0.00    +0.193 C 
ENDROOT
BRANCH   2   3
ATOM      3  C   LIG    1       27.055 -20.598   7.461  0.00  0.00    +0.022 A 
ATOM      4  C   LIG    1       26.807 -20.302   6.114  0.00  0.00    +0.012 A 
ATOM      5  C   LIG    1       27.764 -19.629   5.354  0.00  0.00    +0.001 A 
ATOM      6  C   LIG    1       28.971 -19.242   5.938  0.00  0.00    +0.000 A 
ATOM      7  C   LIG    1       29.215 -19.516   7.284  0.00  0.00    +0.001 A 
ATOM      8  C   LIG    1       28.256 -20.184   8.049  0.00  0.00    +0.012 A 
ENDBRANCH   2   3
BRANCH   2   9
ATOM      9  C   LIG    1       25.180 -22.392   7.648  0.00  0.00    +0.022 A 
ATOM     10  C   LIG    1       25.744 -23.617   7.271  0.00  0.00    +0.012 A 
ATOM     11  C   LIG    1       24.938 -24.611   6.710  0.00  0.00    +0.001 A 
ATOM     12  C   LIG    1       23.577 -24.379   6.510  0.00  0.00    +0.000 A 
ATOM     13  C   LIG    1       23.017 -23.151   6.860  0.00  0.00    +0.001 A 
ATOM     14  C   LIG    1       23.818 -22.156   7.423  0.00  0.00    +0.012 A 
ENDBRANCH   2   9
TORSDOF 2
ENDMDL
MODEL 6
REMARK VINA RESULT:      -8.4      2.827      3.680
REMARK  Name = *****
REMARK                            x       y       z     vdW  Elec       q    Type
REMARK                         _______ _______ _______ _____ _____    ______ ____
ROOT
ATOM      1  O   LIG    1       25.844 -20.991   9.384  0.00  0.00    -0.287 OA
ATOM      2  C   LIG    1       26.020 -21.304   8.208  0.00  0.00    +0.193 C 
ENDROOT
BRANCH   2   3
ATOM      3  C   LIG    1       25.210 -22.406   7.627  0.00  0.00    +0.022 A 
ATOM      4  C   LIG    1       23.848 -22.174   7.390  0.00  0.00    +0.012 A 
ATOM      5  C   LIG    1       23.053 -23.171   6.827  0.00  0.00    +0.001 A 
ATOM      6  C   LIG    1       23.615 -24.402   6.488  0.00  0.00    +0.000 A 
ATOM      7  C   LIG    1       24.973 -24.632   6.701  0.00  0.00    +0.001 A 
ATOM      8  C   LIG    1       25.774 -23.633   7.260  0.00  0.00    +0.012 A 
ENDBRANCH   2   3
BRANCH   2   9
ATOM      9  C   LIG    1       27.038 -20.567   7.415  0.00  0.00    +0.022 A 
ATOM     10  C   LIG    1       26.864 -20.295   6.052  0.00  0.00    +0.012 A 
ATOM     11  C   LIG    1       27.857 -19.612   5.346  0.00  0.00    +0.001 A 
ATOM     12  C   LIG    1       29.027 -19.213   5.992  0.00  0.00    +0.000 A 
ATOM     13  C   LIG    1       29.215 -19.505   7.343  0.00  0.00    +0.001 A 
ATOM     14  C   LIG    1       28.225 -20.185   8.052  0.00  0.00    +0.012 A 
ENDBRANCH   2   9
TORSDOF 2
ENDMDL
MODEL 7
REMARK VINA RESULT:      -8.4      2.808      3.727
REMARK  Name = *****
REMARK                            x       y       z     vdW  Elec       q    Type
REMARK                         _______ _______ _______ _____ _____    ______ ____
ROOT
ATOM      1  O   LIG    1       25.867 -21.057   9.392  0.00  0.00    -0.287 OA
ATOM      2  C   LIG    1       26.042 -21.346   8.209  0.00  0.00    +0.193 C 
ENDROOT
BRANCH   2   3
ATOM      3  C   LIG    1       25.201 -22.405   7.594  0.00  0.00    +0.022 A 
ATOM      4  C   LIG    1       25.804 -23.630   7.279  0.00  0.00    +0.012 A 
ATOM      5  C   LIG    1       25.050 -24.662   6.719  0.00  0.00    +0.001 A 
ATOM      6  C   LIG    1       23.688 -24.477   6.478  0.00  0.00    +0.000 A 
ATOM      7  C   LIG    1       23.078 -23.268   6.809  0.00  0.00    +0.001 A 
ATOM      8  C   LIG    1       23.829 -22.235   7.375  0.00  0.00    +0.012 A 
ENDBRANCH   2   3
BRANCH   2   9
ATOM      9  C   LIG    1       27.089 -20.621   7.442  0.00  0.00    +0.022 A 
ATOM     10  C   LIG    1       28.279 -20.185   8.037  0.00  0.00    +0.012 A 
ATOM     11  C   LIG    1       29.226 -19.495   7.276  0.00  0.00    +0.001 A 
ATOM     12  C   LIG    1       28.980 -19.225   5.929  0.00  0.00    +0.000 A 
ATOM     13  C   LIG    1       27.785 -19.636   5.340  0.00  0.00    +0.001 A 
ATOM     14  C   LIG    1       26.838 -20.328   6.095  0.00  0.00    +0.012 A 
ENDBRANCH   2   9
TORSDOF 2
ENDMDL
MODEL 8
REMARK VINA RESULT:      -8.0      0.737      5.054
REMARK  Name = *****
REMARK                            x       y       z     vdW  Elec       q    Type
REMARK                         _______ _______ _______ _____ _____    ______ ____
ROOT
ATOM      1  O   LIG    1       24.956 -21.384   7.988  0.00  0.00    -0.287 OA
ATOM      2  C   LIG    1       24.596 -21.877   6.920  0.00  0.00    +0.193 C 
ENDROOT
BRANCH   2   3
ATOM      3  C   LIG    1       24.075 -20.984   5.852  0.00  0.00    +0.022 A 
ATOM      4  C   LIG    1       22.971 -20.173   6.146  0.00  0.00    +0.012 A 
ATOM      5  C   LIG    1       22.461 -19.304   5.182  0.00  0.00    +0.001 A 
ATOM      6  C   LIG    1       23.056 -19.234   3.923  0.00  0.00    +0.000 A 
ATOM      7  C   LIG    1       24.168 -20.023   3.631  0.00  0.00    +0.001 A 
ATOM      8  C   LIG    1       24.685 -20.890   4.596  0.00  0.00    +0.012 A 
ENDBRANCH   2   3
BRANCH   2   9
ATOM      9  C   LIG    1       24.698 -23.349   6.740  0.00  0.00    +0.022 A 
ATOM     10  C   LIG    1       25.917 -24.029   6.848  0.00  0.00    +0.012 A 
ATOM     11  C   LIG    1       25.963 -25.411   6.656  0.00  0.00    +0.001 A 
ATOM     12  C   LIG    1       24.800 -26.113   6.339  0.00  0.00    +0.000 A 
ATOM     13  C   LIG    1       23.589 -25.436   6.204  0.00  0.00    +0.001 A 
ATOM     14  C   LIG    1       23.538 -24.056   6.399  0.00  0.00    +0.012 A 
ENDBRANCH   2   9
TORSDOF 2
ENDMDL
MODEL 9
REMARK VINA RESULT:      -7.7      3.369      5.151
REMARK  Name = *****
REMARK                            x       y       z     vdW  Elec       q    Type
REMARK                         _______ _______ _______ _____ _____    ______ ____
ROOT
ATOM      1  O   LIG    1       26.593 -22.278   6.901  0.00  0.00    -0.287 OA
ATOM      2  C   LIG    1       26.524 -21.124   6.481  0.00  0.00    +0.193 C 
ENDROOT
BRANCH   2   3
ATOM      3  C   LIG    1       25.264 -20.665   5.839  0.00  0.00    +0.022 A 
ATOM      4  C   LIG    1       24.087 -20.686   6.598  0.00  0.00    +0.012 A 
ATOM      5  C   LIG    1       22.885 -20.245   6.045  0.00  0.00    +0.001 A 
ATOM      6  C   LIG    1       22.854 -19.774   4.733  0.00  0.00    +0.000 A 
ATOM      7  C   LIG    1       24.026 -19.731   3.978  0.00  0.00    +0.001 A 
ATOM      8  C   LIG    1       25.233 -20.167   4.531  0.00  0.00    +0.012 A 
ENDBRANCH   2   3
BRANCH   2   9
ATOM      9  C   LIG    1       27.703 -20.233   6.633  0.00  0.00    +0.022 A 
ATOM     10  C   LIG    1       28.253 -19.535   5.551  0.00  0.00    +0.012 A 
ATOM     11  C   LIG    1       29.371 -18.721   5.743  0.00  0.00    +0.001 A 
ATOM     12  C   LIG    1       29.953 -18.616   7.007  0.00  0.00    +0.000 A 
ATOM     13  C   LIG    1       29.424 -19.330   8.082  0.00  0.00    +0.001 A 
ATOM     14  C   LIG    1       28.305 -20.142   7.895  0.00  0.00    +0.012 A 
ENDBRANCH   2   9
TORSDOF 2
ENDMDL
