MODEL 1
REMARK VINA RESULT:      -9.5      0.000      0.000
REMARK  Name = *****
REMARK                            x       y       z     vdW  Elec       q    Type
REMARK                         _______ _______ _______ _____ _____    ______ ____
ROOT
ATOM      1  C   LIG    1       24.635 -20.592   5.244  0.00  0.00    +0.213 C 
ATOM      2  O   LIG    1       24.609 -20.555   6.679  0.00  0.00    -0.444 OA
ATOM      3  C   LIG    1       24.782 -21.825   7.178  0.00  0.00    +0.408 C 
ATOM      4  O   LIG    1       24.874 -22.036   8.373  0.00  0.00    -0.226 OA
ATOM      5  N   LIG    1       24.864 -22.725   6.129  0.00  0.00    -0.234 N 
ATOM      6  C   LIG    1       24.526 -22.063   4.901  0.00  0.00    +0.163 C 
ENDROOT
BRANCH   5   7
ATOM      7  C   LIG    1       24.984 -24.136   6.223  0.00  0.00    +0.040 A 
ATOM      8  C   LIG    1       23.863 -24.956   6.073  0.00  0.00    +0.025 A 
ATOM      9  C   LIG    1       23.956 -26.358   6.181  0.00  0.00    +0.025 A 
ATOM     10  C   LIG    1       25.159 -27.009   6.495  0.00  0.00    +0.036 A 
ATOM     11  C   LIG    1       26.278 -26.171   6.614  0.00  0.00    +0.025 A 
ATOM     12  C   LIG    1       26.199 -24.770   6.464  0.00  0.00    +0.025 A 
BRANCH  10  13
ATOM     13  N   LIG    1       25.219 -28.447   6.698  0.00  0.00    -0.267 N 
ATOM     14  C   LIG    1       25.630 -29.040   7.912  0.00  0.00    +0.246 C 
ATOM     15  O   LIG    1       25.931 -28.445   8.949  0.00  0.00    -0.273 OA
ATOM     16  C   LIG    1       25.602 -30.586   7.966  0.00  0.00    +0.256 C 
ATOM     17  O   LIG    1       25.495 -31.331   6.769  0.00  0.00    -0.369 OA
ATOM     18  C   LIG    1       24.522 -30.732   5.929  0.00  0.00    +0.180 C 
ATOM     19  C   LIG    1       25.000 -29.337   5.544  0.00  0.00    +0.141 C 
ENDBRANCH  10  13
ENDBRANCH   5   7
BRANCH   1  20
ATOM     20  C   LIG    1       25.936 -19.990   4.701  0.00  0.00    +0.150 C 
BRANCH  20  23
ATOM     21  O   LIG    1       28.274 -18.419   4.877  0.00  0.00    -0.270 OA
ATOM     22  C   LIG    1       28.188 -19.409   5.600  0.00  0.00    +0.251 C 
ATOM     23  N   LIG    1       27.072 -20.221   5.571  0.00  0.00    -0.307 N 
ATOM     24  H   LIG    1       27.004 -20.955   6.268  0.00  0.00    +0.149 HD
BRANCH  22  25
ATOM     25  C   LIG    1       29.229 -19.813   6.541  0.00  0.00    +0.075 A 
ATOM     26  S   LIG    1       29.030 -21.199   7.543  0.00  0.00    -0.072 S 
ATOM     27  C   LIG    1       30.529 -20.960   8.277  0.00  0.00    +0.079 A 
ATOM     28 CL   LIG    1       31.039 -22.031   9.517  0.00  0.00    -0.076 Cl
ATOM     29  C   LIG    1       31.215 -19.880   7.785  0.00  0.00    +0.028 A 
ATOM     30  C   LIG    1       30.457 -19.209   6.774  0.00  0.00    +0.022 A 
ENDBRANCH  22  25
ENDBRANCH  20  23
ENDBRANCH   1  20
TORSDOF 5
ENDMDL
MODEL 2
REMARK VINA RESULT:      -8.9      3.844      9.208
REMARK  Name = *****
REMARK                            x       y       z     vdW  Elec       q    Type
REMARK                         _______ _______ _______ _____ _____    ______ ____
ROOT
ATOM      1  C   LIG    1       24.314 -23.266   5.713  0.00  0.00    +0.213 C 
ATOM      2  O   LIG    1       23.985 -22.074   4.984  0.00  0.00    -0.444 OA
ATOM      3  C   LIG    1       24.935 -21.108   5.223  0.00  0.00    +0.408 C 
ATOM      4  O   LIG    1       24.914 -20.034   4.653  0.00  0.00    -0.226 OA
ATOM      5  N   LIG    1       25.861 -21.588   6.134  0.00  0.00    -0.234 N 
ATOM      6  C   LIG    1       25.399 -22.833   6.678  0.00  0.00    +0.163 C 
ENDROOT
BRANCH   5   7
ATOM      7  C   LIG    1       26.961 -20.881   6.685  0.00  0.00    +0.040 A 
ATOM      8  C   LIG    1       27.133 -20.800   8.068  0.00  0.00    +0.025 A 
ATOM      9  C   LIG    1       28.208 -20.088   8.637  0.00  0.00    +0.025 A 
ATOM     10  C   LIG    1       29.135 -19.378   7.858  0.00  0.00    +0.036 A 
ATOM     11  C   LIG    1       28.962 -19.495   6.471  0.00  0.00    +0.025 A 
ATOM     12  C   LIG    1       27.913 -20.242   5.895  0.00  0.00    +0.025 A 
BRANCH  10  13
ATOM     13  N   LIG    1       30.181 -18.570   8.463  0.00  0.00    -0.267 N 
ATOM     14  C   LIG    1       31.537 -18.646   8.075  0.00  0.00    +0.246 C 
ATOM     15  O   LIG    1       31.999 -19.340   7.168  0.00  0.00    -0.273 OA
ATOM     16  C   LIG    1       32.513 -17.689   8.801  0.00  0.00    +0.256 C 
ATOM     17  O   LIG    1       32.111 -17.043   9.993  0.00  0.00    -0.369 OA
ATOM     18  C   LIG    1       30.785 -16.561   9.841  0.00  0.00    +0.180 C 
ATOM     19  C   LIG    1       29.853 -17.751   9.643  0.00  0.00    +0.141 C 
ENDBRANCH  10  13
ENDBRANCH   5   7
BRANCH   1  20
ATOM     20  C   LIG    1       24.816 -24.367   4.771  0.00  0.00    +0.150 C 
BRANCH  20  23
ATOM     21  O   LIG    1       26.834 -26.056   5.790  0.00  0.00    -0.270 OA
ATOM     22  C   LIG    1       25.677 -26.472   5.792  0.00  0.00    +0.251 C 
ATOM     23  N   LIG    1       24.638 -25.699   5.313  0.00  0.00    -0.307 N 
ATOM     24  H   LIG    1       23.694 -26.044   5.444  0.00  0.00    +0.149 HD
BRANCH  22  25
ATOM     25  C   LIG    1       25.295 -27.790   6.291  0.00  0.00    +0.075 A 
ATOM     26  S   LIG    1       24.592 -28.964   5.248  0.00  0.00    -0.072 S 
ATOM     27  C   LIG    1       24.441 -30.079   6.503  0.00  0.00    +0.079 A 
ATOM     28 CL   LIG    1       23.722 -31.606   6.190  0.00  0.00    -0.076 Cl
ATOM     29  C   LIG    1       24.925 -29.626   7.701  0.00  0.00    +0.028 A 
ATOM     30  C   LIG    1       25.423 -28.289   7.580  0.00  0.00    +0.022 A 
ENDBRANCH  22  25
ENDBRANCH  20  23
ENDBRANCH   1  20
TORSDOF 5
ENDMDL
MODEL 3
REMARK VINA RESULT:      -8.8      1.898      2.128
REMARK  Name = *****
REMARK                            x       y       z     vdW  Elec       q    Type
REMARK                         _______ _______ _______ _____ _____    ______ ____
ROOT
ATOM      1  C   LIG    1       24.661 -21.443   6.284  0.00  0.00    +0.213 C 
ATOM      2  O   LIG    1       23.278 -21.798   6.434  0.00  0.00    -0.444 OA
ATOM      3  C   LIG    1       23.158 -23.164   6.541  0.00  0.00    +0.408 C 
ATOM      4  O   LIG    1       22.087 -23.698   6.755  0.00  0.00    -0.226 OA
ATOM      5  N   LIG    1       24.407 -23.747   6.408  0.00  0.00    -0.234 N 
ATOM      6  C   LIG    1       25.358 -22.756   5.992  0.00  0.00    +0.163 C 
ENDROOT
BRANCH   5   7
ATOM      7  C   LIG    1       24.704 -25.135   6.401  0.00  0.00    +0.040 A 
ATOM      8  C   LIG    1       23.954 -26.018   5.623  0.00  0.00    +0.025 A 
ATOM      9  C   LIG    1       24.219 -27.402   5.615  0.00  0.00    +0.025 A 
ATOM     10  C   LIG    1       25.211 -27.981   6.420  0.00  0.00    +0.036 A 
ATOM     11  C   LIG    1       25.973 -27.075   7.173  0.00  0.00    +0.025 A 
ATOM     12  C   LIG    1       25.740 -25.684   7.152  0.00  0.00    +0.025 A 
BRANCH  10  13
ATOM     13  N   LIG    1       25.409 -29.420   6.473  0.00  0.00    -0.267 N 
ATOM     14  C   LIG    1       25.430 -30.153   7.680  0.00  0.00    +0.246 C 
ATOM     15  O   LIG    1       25.237 -29.703   8.811  0.00  0.00    -0.273 OA
ATOM     16  C   LIG    1       25.618 -31.684   7.550  0.00  0.00    +0.256 C 
ATOM     17  O   LIG    1       26.072 -32.238   6.332  0.00  0.00    -0.369 OA
ATOM     18  C   LIG    1       25.396 -31.613   5.252  0.00  0.00    +0.180 C 
ATOM     19  C   LIG    1       25.765 -30.135   5.234  0.00  0.00    +0.141 C 
ENDBRANCH  10  13
ENDBRANCH   5   7
BRANCH   1  20
ATOM     20  C   LIG    1       25.206 -20.797   7.563  0.00  0.00    +0.150 C 
BRANCH  20  23
ATOM     21  O   LIG    1       27.604 -21.714   8.734  0.00  0.00    -0.270 OA
ATOM     22  C   LIG    1       27.660 -20.730   7.999  0.00  0.00    +0.251 C 
ATOM     23  N   LIG    1       26.528 -20.228   7.389  0.00  0.00    -0.307 N 
ATOM     24  H   LIG    1       26.649 -19.489   6.706  0.00  0.00    +0.149 HD
BRANCH  22  25
ATOM     25  C   LIG    1       28.897 -20.014   7.704  0.00  0.00    +0.075 A 
ATOM     26  S   LIG    1       29.742 -19.157   8.936  0.00  0.00    -0.072 S 
ATOM     27  C   LIG    1       30.926 -18.642   7.852  0.00  0.00    +0.079 A 
ATOM     28 CL   LIG    1       32.191 -17.625   8.408  0.00  0.00    -0.076 Cl
ATOM     29  C   LIG    1       30.742 -19.109   6.576  0.00  0.00    +0.028 A 
ATOM     30  C   LIG    1       29.558 -19.907   6.488  0.00  0.00    +0.022 A 
ENDBRANCH  22  25
ENDBRANCH  20  23
ENDBRANCH   1  20
TORSDOF 5
ENDMDL
MODEL 4
REMARK VINA RESULT:      -8.3      2.322      3.029
REMARK  Name = *****
REMARK                            x       y       z     vdW  Elec       q    Type
REMARK                         _______ _______ _______ _____ _____    ______ ____
ROOT
ATOM      1  C   LIG    1       25.735 -23.007   6.515  0.00  0.00    +0.213 C 
ATOM      2  O   LIG    1       24.301 -23.007   6.587  0.00  0.00    -0.444 OA
ATOM      3  C   LIG    1       23.837 -24.302   6.604  0.00  0.00    +0.408 C 
ATOM      4  O   LIG    1       22.656 -24.557   6.740  0.00  0.00    -0.226 OA
ATOM      5  N   LIG    1       24.906 -25.175   6.486  0.00  0.00    -0.234 N 
ATOM      6  C   LIG    1       26.096 -24.438   6.171  0.00  0.00    +0.163 C 
ENDROOT
BRANCH   5   7
ATOM      7  C   LIG    1       24.846 -26.590   6.404  0.00  0.00    +0.040 A 
ATOM      8  C   LIG    1       25.366 -27.384   7.429  0.00  0.00    +0.025 A 
ATOM      9  C   LIG    1       25.334 -28.791   7.360  0.00  0.00    +0.025 A 
ATOM     10  C   LIG    1       24.830 -29.477   6.245  0.00  0.00    +0.036 A 
ATOM     11  C   LIG    1       24.287 -28.664   5.239  0.00  0.00    +0.025 A 
ATOM     12  C   LIG    1       24.276 -27.255   5.322  0.00  0.00    +0.025 A 
BRANCH  10  13
ATOM     13  N   LIG    1       24.892 -30.926   6.148  0.00  0.00    -0.267 N 
ATOM     14  C   LIG    1       24.164 -31.789   6.997  0.00  0.00    +0.246 C 
ATOM     15  O   LIG    1       23.363 -31.450   7.869  0.00  0.00    -0.273 OA
ATOM     16  C   LIG    1       24.322 -33.305   6.732  0.00  0.00    +0.256 C 
ATOM     17  O   LIG    1       25.380 -33.774   5.921  0.00  0.00    -0.369 OA
ATOM     18  C   LIG    1       25.500 -32.940   4.779  0.00  0.00    +0.180 C 
ATOM     19  C   LIG    1       25.876 -31.536   5.236  0.00  0.00    +0.141 C 
ENDBRANCH  10  13
ENDBRANCH   5   7
BRANCH   1  20
ATOM     20  C   LIG    1       26.353 -22.585   7.853  0.00  0.00    +0.150 C 
BRANCH  20  23
ATOM     21  O   LIG    1       26.802 -19.983   8.848  0.00  0.00    -0.270 OA
ATOM     22  C   LIG    1       27.703 -20.519   8.208  0.00  0.00    +0.251 C 
ATOM     23  N   LIG    1       27.556 -21.793   7.695  0.00  0.00    -0.307 N 
ATOM     24  H   LIG    1       28.370 -22.230   7.276  0.00  0.00    +0.149 HD
BRANCH  22  25
ATOM     25  C   LIG    1       28.989 -19.882   7.937  0.00  0.00    +0.075 A 
ATOM     26  S   LIG    1       29.711 -18.817   9.080  0.00  0.00    -0.072 S 
ATOM     27  C   LIG    1       31.028 -18.526   8.070  0.00  0.00    +0.079 A 
ATOM     28 CL   LIG    1       32.251 -17.433   8.577  0.00  0.00    -0.076 Cl
ATOM     29  C   LIG    1       30.980 -19.221   6.891  0.00  0.00    +0.028 A 
ATOM     30  C   LIG    1       29.790 -20.011   6.811  0.00  0.00    +0.022 A 
ENDBRANCH  22  25
ENDBRANCH  20  23
ENDBRANCH   1  20
TORSDOF 5
ENDMDL
MODEL 5
REMARK VINA RESULT:      -8.0      5.630      7.821
REMARK  Name = *****
REMARK                            x       y       z     vdW  Elec       q    Type
REMARK                         _______ _______ _______ _____ _____    ______ ____
ROOT
ATOM      1  C   LIG    1       22.557 -20.197   4.257  0.00  0.00    +0.213 C 
ATOM      2  O   LIG    1       22.154 -20.998   5.378  0.00  0.00    -0.444 OA
ATOM      3  C   LIG    1       23.209 -21.143   6.248  0.00  0.00    +0.408 C 
ATOM      4  O   LIG    1       23.088 -21.717   7.313  0.00  0.00    -0.226 OA
ATOM      5  N   LIG    1       24.328 -20.517   5.723  0.00  0.00    -0.234 N 
ATOM      6  C   LIG    1       24.066 -20.123   4.368  0.00  0.00    +0.163 C 
ENDROOT
BRANCH   5   7
ATOM      7  C   LIG    1       25.631 -20.487   6.284  0.00  0.00    +0.040 A 
ATOM      8  C   LIG    1       25.824 -20.725   7.646  0.00  0.00    +0.025 A 
ATOM      9  C   LIG    1       27.107 -20.682   8.227  0.00  0.00    +0.025 A 
ATOM     10  C   LIG    1       28.254 -20.349   7.491  0.00  0.00    +0.036 A 
ATOM     11  C   LIG    1       28.044 -20.141   6.120  0.00  0.00    +0.025 A 
ATOM     12  C   LIG    1       26.768 -20.226   5.524  0.00  0.00    +0.025 A 
BRANCH  10  13
ATOM     13  N   LIG    1       29.555 -20.215   8.125  0.00  0.00    -0.267 N 
ATOM     14  C   LIG    1       30.156 -18.966   8.399  0.00  0.00    +0.246 C 
ATOM     15  O   LIG    1       29.658 -17.857   8.197  0.00  0.00    -0.273 OA
ATOM     16  C   LIG    1       31.530 -19.007   9.108  0.00  0.00    +0.256 C 
ATOM     17  O   LIG    1       32.262 -20.215   9.161  0.00  0.00    -0.369 OA
ATOM     18  C   LIG    1       31.382 -21.282   9.475  0.00  0.00    +0.180 C 
ATOM     19  C   LIG    1       30.365 -21.426   8.349  0.00  0.00    +0.141 C 
ENDBRANCH  10  13
ENDBRANCH   5   7
BRANCH   1  20
ATOM     20  C   LIG    1       21.926 -18.801   4.322  0.00  0.00    +0.150 C 
BRANCH  20  23
ATOM     21  O   LIG    1       21.841 -16.177   5.356  0.00  0.00    -0.270 OA
ATOM     22  C   LIG    1       22.770 -16.472   4.608  0.00  0.00    +0.251 C 
ATOM     23  N   LIG    1       22.878 -17.738   4.068  0.00  0.00    -0.307 N 
ATOM     24  H   LIG    1       23.723 -17.960   3.553  0.00  0.00    +0.149 HD
BRANCH  22  25
ATOM     25  C   LIG    1       23.826 -15.539   4.228  0.00  0.00    +0.075 A 
ATOM     26  S   LIG    1       25.277 -16.095   3.485  0.00  0.00    -0.072 S 
ATOM     27  C   LIG    1       25.909 -14.535   3.409  0.00  0.00    +0.079 A 
ATOM     28 CL   LIG    1       27.481 -14.295   2.763  0.00  0.00    -0.076 Cl
ATOM     29  C   LIG    1       25.063 -13.575   3.899  0.00  0.00    +0.028 A 
ATOM     30  C   LIG    1       23.848 -14.160   4.379  0.00  0.00    +0.022 A 
ENDBRANCH  22  25
ENDBRANCH  20  23
ENDBRANCH   1  20
TORSDOF 5
ENDMDL
MODEL 6
REMARK VINA RESULT:      -7.9      1.721      2.102
REMARK  Name = *****
REMARK                            x       y       z     vdW  Elec       q    Type
REMARK                         _______ _______ _______ _____ _____    ______ ____
ROOT
ATOM      1  C   LIG    1       25.529 -20.452   5.928  0.00  0.00    +0.213 C 
ATOM      2  O   LIG    1       25.754 -20.558   7.342  0.00  0.00    -0.444 OA
ATOM      3  C   LIG    1       25.736 -21.882   7.716  0.00  0.00    +0.408 C 
ATOM      4  O   LIG    1       25.982 -22.229   8.856  0.00  0.00    -0.226 OA
ATOM      5  N   LIG    1       25.448 -22.668   6.613  0.00  0.00    -0.234 N 
ATOM      6  C   LIG    1       25.055 -21.830   5.516  0.00  0.00    +0.163 C 
ENDROOT
BRANCH   5   7
ATOM      7  C   LIG    1       25.281 -24.077   6.590  0.00  0.00    +0.040 A 
ATOM      8  C   LIG    1       24.026 -24.640   6.352  0.00  0.00    +0.025 A 
ATOM      9  C   LIG    1       23.834 -26.036   6.343  0.00  0.00    +0.025 A 
ATOM     10  C   LIG    1       24.872 -26.939   6.622  0.00  0.00    +0.036 A 
ATOM     11  C   LIG    1       26.130 -26.356   6.831  0.00  0.00    +0.025 A 
ATOM     12  C   LIG    1       26.337 -24.960   6.798  0.00  0.00    +0.025 A 
BRANCH  10  13
ATOM     13  N   LIG    1       24.637 -28.371   6.704  0.00  0.00    -0.267 N 
ATOM     14  C   LIG    1       24.415 -29.184   5.570  0.00  0.00    +0.246 C 
ATOM     15  O   LIG    1       24.444 -28.818   4.394  0.00  0.00    -0.273 OA
ATOM     16  C   LIG    1       24.215 -30.694   5.837  0.00  0.00    +0.256 C 
ATOM     17  O   LIG    1       23.940 -31.149   7.147  0.00  0.00    -0.369 OA
ATOM     18  C   LIG    1       24.786 -30.475   8.065  0.00  0.00    +0.180 C 
ATOM     19  C   LIG    1       24.457 -28.987   8.031  0.00  0.00    +0.141 C 
ENDBRANCH  10  13
ENDBRANCH   5   7
BRANCH   1  20
ATOM     20  C   LIG    1       26.817 -20.064   5.193  0.00  0.00    +0.150 C 
BRANCH  20  23
ATOM     21  O   LIG    1       28.733 -21.772   6.366  0.00  0.00    -0.270 OA
ATOM     22  C   LIG    1       28.788 -20.574   6.632  0.00  0.00    +0.251 C 
ATOM     23  N   LIG    1       27.886 -19.679   6.092  0.00  0.00    -0.307 N 
ATOM     24  H   LIG    1       28.048 -18.691   6.254  0.00  0.00    +0.149 HD
BRANCH  22  25
ATOM     25  C   LIG    1       29.788 -19.991   7.522  0.00  0.00    +0.075 A 
ATOM     26  S   LIG    1       30.101 -18.298   7.518  0.00  0.00    -0.072 S 
ATOM     27  C   LIG    1       31.295 -18.454   8.698  0.00  0.00    +0.079 A 
ATOM     28 CL   LIG    1       32.151 -17.059   9.217  0.00  0.00    -0.076 Cl
ATOM     29  C   LIG    1       31.470 -19.740   9.136  0.00  0.00    +0.028 A 
ATOM     30  C   LIG    1       30.593 -20.638   8.449  0.00  0.00    +0.022 A 
ENDBRANCH  22  25
ENDBRANCH  20  23
ENDBRANCH   1  20
TORSDOF 5
ENDMDL
MODEL 7
REMARK VINA RESULT:      -7.8      3.690      6.567
REMARK  Name = *****
REMARK                            x       y       z     vdW  Elec       q    Type
REMARK                         _______ _______ _______ _____ _____    ______ ____
ROOT
ATOM      1  C   LIG    1       25.088 -27.384   5.438  0.00  0.00    +0.213 C 
ATOM      2  O   LIG    1       24.493 -28.634   5.058  0.00  0.00    -0.444 OA
ATOM      3  C   LIG    1       24.348 -29.435   6.167  0.00  0.00    +0.408 C 
ATOM      4  O   LIG    1       23.795 -30.516   6.108  0.00  0.00    -0.226 OA
ATOM      5  N   LIG    1       24.880 -28.791   7.272  0.00  0.00    -0.234 N 
ATOM      6  C   LIG    1       25.587 -27.616   6.849  0.00  0.00    +0.163 C 
ENDROOT
BRANCH   5   7
ATOM      7  C   LIG    1       24.979 -29.303   8.592  0.00  0.00    +0.040 A 
ATOM      8  C   LIG    1       23.889 -29.937   9.192  0.00  0.00    +0.025 A 
ATOM      9  C   LIG    1       23.959 -30.436  10.508  0.00  0.00    +0.025 A 
ATOM     10  C   LIG    1       25.101 -30.282  11.309  0.00  0.00    +0.036 A 
ATOM     11  C   LIG    1       26.194 -29.668  10.680  0.00  0.00    +0.025 A 
ATOM     12  C   LIG    1       26.143 -29.205   9.348  0.00  0.00    +0.025 A 
BRANCH  10  13
ATOM     13  N   LIG    1       25.124 -30.717  12.696  0.00  0.00    -0.267 N 
ATOM     14  C   LIG    1       25.449 -32.034  13.088  0.00  0.00    +0.246 C 
ATOM     15  O   LIG    1       25.799 -32.951  12.343  0.00  0.00    -0.273 OA
ATOM     16  C   LIG    1       25.458 -32.316  14.609  0.00  0.00    +0.256 C 
ATOM     17  O   LIG    1       24.853 -31.400  15.499  0.00  0.00    -0.369 OA
ATOM     18  C   LIG    1       25.203 -30.078  15.122  0.00  0.00    +0.180 C 
ATOM     19  C   LIG    1       24.632 -29.797  13.738  0.00  0.00    +0.141 C 
ENDBRANCH  10  13
ENDBRANCH   5   7
BRANCH   1  20
ATOM     20  C   LIG    1       24.059 -26.248   5.392  0.00  0.00    +0.150 C 
BRANCH  20  23
ATOM     21  O   LIG    1       22.666 -24.307   6.894  0.00  0.00    -0.270 OA
ATOM     22  C   LIG    1       23.841 -24.083   6.608  0.00  0.00    +0.251 C 
ATOM     23  N   LIG    1       24.585 -24.989   5.879  0.00  0.00    -0.307 N 
ATOM     24  H   LIG    1       25.577 -24.806   5.772  0.00  0.00    +0.149 HD
BRANCH  22  25
ATOM     25  C   LIG    1       24.549 -22.868   7.003  0.00  0.00    +0.075 A 
ATOM     26  S   LIG    1       26.264 -22.851   7.156  0.00  0.00    -0.072 S 
ATOM     27  C   LIG    1       26.267 -21.233   7.630  0.00  0.00    +0.079 A 
ATOM     28 CL   LIG    1       27.756 -20.475   8.022  0.00  0.00    -0.076 Cl
ATOM     29  C   LIG    1       25.019 -20.668   7.660  0.00  0.00    +0.028 A 
ATOM     30  C   LIG    1       24.016 -21.621   7.296  0.00  0.00    +0.022 A 
ENDBRANCH  22  25
ENDBRANCH  20  23
ENDBRANCH   1  20
TORSDOF 5
ENDMDL
MODEL 8
REMARK VINA RESULT:      -7.8      3.629      6.513
REMARK  Name = *****
REMARK                            x       y       z     vdW  Elec       q    Type
REMARK                         _______ _______ _______ _____ _____    ______ ____
ROOT
ATOM      1  C   LIG    1       25.082 -27.356   5.518  0.00  0.00    +0.213 C 
ATOM      2  O   LIG    1       24.499 -28.584   5.055  0.00  0.00    -0.444 OA
ATOM      3  C   LIG    1       24.342 -29.450   6.112  0.00  0.00    +0.408 C 
ATOM      4  O   LIG    1       23.795 -30.528   5.981  0.00  0.00    -0.226 OA
ATOM      5  N   LIG    1       24.853 -28.871   7.262  0.00  0.00    -0.234 N 
ATOM      6  C   LIG    1       25.560 -27.669   6.921  0.00  0.00    +0.163 C 
ENDROOT
BRANCH   5   7
ATOM      7  C   LIG    1       24.935 -29.460   8.550  0.00  0.00    +0.040 A 
ATOM      8  C   LIG    1       23.806 -30.023   9.147  0.00  0.00    +0.025 A 
ATOM      9  C   LIG    1       23.860 -30.596  10.433  0.00  0.00    +0.025 A 
ATOM     10  C   LIG    1       25.030 -30.592  11.208  0.00  0.00    +0.036 A 
ATOM     11  C   LIG    1       26.160 -30.048  10.581  0.00  0.00    +0.025 A 
ATOM     12  C   LIG    1       26.122 -29.511   9.277  0.00  0.00    +0.025 A 
BRANCH  10  13
ATOM     13  N   LIG    1       25.045 -31.101  12.570  0.00  0.00    -0.267 N 
ATOM     14  C   LIG    1       25.054 -30.264  13.708  0.00  0.00    +0.246 C 
ATOM     15  O   LIG    1       24.995 -29.033  13.708  0.00  0.00    -0.273 OA
ATOM     16  C   LIG    1       25.036 -30.974  15.082  0.00  0.00    +0.256 C 
ATOM     17  O   LIG    1       25.333 -32.353  15.168  0.00  0.00    -0.369 OA
ATOM     18  C   LIG    1       24.672 -33.041  14.118  0.00  0.00    +0.180 C 
ATOM     19  C   LIG    1       25.224 -32.548  12.786  0.00  0.00    +0.141 C 
ENDBRANCH  10  13
ENDBRANCH   5   7
BRANCH   1  20
ATOM     20  C   LIG    1       24.047 -26.224   5.524  0.00  0.00    +0.150 C 
BRANCH  20  23
ATOM     21  O   LIG    1       22.619 -24.158   6.811  0.00  0.00    -0.270 OA
ATOM     22  C   LIG    1       23.823 -23.999   6.626  0.00  0.00    +0.251 C 
ATOM     23  N   LIG    1       24.587 -24.969   6.007  0.00  0.00    -0.307 N 
ATOM     24  H   LIG    1       25.591 -24.835   5.984  0.00  0.00    +0.149 HD
BRANCH  22  25
ATOM     25  C   LIG    1       24.550 -22.800   7.035  0.00  0.00    +0.075 A 
ATOM     26  S   LIG    1       26.271 -22.772   7.062  0.00  0.00    -0.072 S 
ATOM     27  C   LIG    1       26.297 -21.183   7.625  0.00  0.00    +0.079 A 
ATOM     28 CL   LIG    1       27.805 -20.430   7.948  0.00  0.00    -0.076 Cl
ATOM     29  C   LIG    1       25.051 -20.634   7.778  0.00  0.00    +0.028 A 
ATOM     30  C   LIG    1       24.031 -21.577   7.436  0.00  0.00    +0.022 A 
ENDBRANCH  22  25
ENDBRANCH  20  23
ENDBRANCH   1  20
TORSDOF 5
ENDMDL
MODEL 9
REMARK VINA RESULT:      -7.7      3.915      6.490
REMARK  Name = *****
REMARK                            x       y       z     vdW  Elec       q    Type
REMARK                         _______ _______ _______ _____ _____    ______ ____
ROOT
ATOM      1  C   LIG    1       25.574 -26.987   5.366  0.00  0.00    +0.213 C 
ATOM      2  O   LIG    1       25.255 -28.293   4.861  0.00  0.00    -0.444 OA
ATOM      3  C   LIG    1       25.078 -29.165   5.910  0.00  0.00    +0.408 C 
ATOM      4  O   LIG    1       24.722 -30.315   5.734  0.00  0.00    -0.226 OA
ATOM      5  N   LIG    1       25.326 -28.507   7.103  0.00  0.00    -0.234 N 
ATOM      6  C   LIG    1       25.888 -27.214   6.830  0.00  0.00    +0.163 C 
ENDROOT
BRANCH   5   7
ATOM      7  C   LIG    1       25.309 -29.068   8.406  0.00  0.00    +0.040 A 
ATOM      8  C   LIG    1       24.201 -29.788   8.855  0.00  0.00    +0.025 A 
ATOM      9  C   LIG    1       24.154 -30.338  10.152  0.00  0.00    +0.025 A 
ATOM     10  C   LIG    1       25.188 -30.153  11.083  0.00  0.00    +0.036 A 
ATOM     11  C   LIG    1       26.304 -29.451  10.605  0.00  0.00    +0.025 A 
ATOM     12  C   LIG    1       26.374 -28.936   9.293  0.00  0.00    +0.025 A 
BRANCH  10  13
ATOM     13  N   LIG    1       25.083 -30.644  12.447  0.00  0.00    -0.267 N 
ATOM     14  C   LIG    1       25.323 -31.989  12.805  0.00  0.00    +0.246 C 
ATOM     15  O   LIG    1       25.694 -32.889  12.050  0.00  0.00    -0.273 OA
ATOM     16  C   LIG    1       25.200 -32.332  14.308  0.00  0.00    +0.256 C 
ATOM     17  O   LIG    1       24.562 -31.428  15.188  0.00  0.00    -0.369 OA
ATOM     18  C   LIG    1       24.994 -30.108  14.898  0.00  0.00    +0.180 C 
ATOM     19  C   LIG    1       24.547 -29.747  13.486  0.00  0.00    +0.141 C 
ENDBRANCH  10  13
ENDBRANCH   5   7
BRANCH   1  20
ATOM     20  C   LIG    1       24.393 -26.025   5.194  0.00  0.00    +0.150 C 
BRANCH  20  23
ATOM     21  O   LIG    1       23.726 -23.905   6.932  0.00  0.00    -0.270 OA
ATOM     22  C   LIG    1       24.435 -23.653   5.960  0.00  0.00    +0.251 C 
ATOM     23  N   LIG    1       24.805 -24.642   5.069  0.00  0.00    -0.307 N 
ATOM     24  H   LIG    1       25.482 -24.402   4.353  0.00  0.00    +0.149 HD
BRANCH  22  25
ATOM     25  C   LIG    1       24.947 -22.319   5.659  0.00  0.00    +0.075 A 
ATOM     26  S   LIG    1       24.329 -21.410   4.334  0.00  0.00    -0.072 S 
ATOM     27  C   LIG    1       25.379 -20.128   4.644  0.00  0.00    +0.079 A 
ATOM     28 CL   LIG    1       25.359 -18.756   3.613  0.00  0.00    -0.076 Cl
ATOM     29  C   LIG    1       26.181 -20.328   5.737  0.00  0.00    +0.028 A 
ATOM     30  C   LIG    1       25.932 -21.607   6.328  0.00  0.00    +0.022 A 
ENDBRANCH  22  25
ENDBRANCH  20  23
ENDBRANCH   1  20
TORSDOF 5
ENDMDL
