MODEL 1
REMARK VINA RESULT:      -7.6      0.000      0.000
REMARK  Name = *****
REMARK                            x       y       z     vdW  Elec       q    Type
REMARK                         _______ _______ _______ _____ _____    ______ ____
ROOT
ATOM      1  C   LIG    1       23.025 -19.455   4.713  0.00  0.00    +0.117 A 
ATOM      2  C   LIG    1       23.181 -20.331   5.785  0.00  0.00    +0.050 A 
ATOM      3  C   LIG    1       24.432 -20.911   6.067  0.00  0.00    -0.032 A 
ATOM      4  C   LIG    1       24.631 -21.830   7.293  0.00  0.00    +0.028 C 
ATOM      5  C   LIG    1       24.796 -20.886   8.512  0.00  0.00    +0.030 C 
ATOM      6  C   LIG    1       26.082 -20.046   8.409  0.00  0.00    +0.086 C 
ATOM      7  N   LIG    1       27.299 -20.821   8.068  0.00  0.00    -0.296 NA
ATOM      8  C   LIG    1       27.107 -21.739   6.894  0.00  0.00    +0.093 C 
ATOM      9  C   LIG    1       26.912 -21.091   5.510  0.00  0.00    +0.057 C 
ATOM     10  C   LIG    1       25.927 -22.698   7.202  0.00  0.00    +0.091 C 
ATOM     11  C   LIG    1       25.813 -23.911   6.247  0.00  0.00    +0.037 C 
ATOM     12  C   LIG    1       24.498 -23.998   5.481  0.00  0.00    +0.003 C 
ATOM     13  C   LIG    1       23.268 -23.807   6.366  0.00  0.00    +0.001 C 
ATOM     14  C   LIG    1       23.449 -22.804   7.513  0.00  0.00    +0.014 C 
ATOM     15  C   LIG    1       25.528 -20.552   5.256  0.00  0.00    -0.042 A 
ATOM     16  C   LIG    1       25.346 -19.681   4.167  0.00  0.00    +0.007 A 
ATOM     17  C   LIG    1       24.096 -19.130   3.897  0.00  0.00    +0.045 A 
ENDROOT
BRANCH   1  18
ATOM     18  O   LIG    1       21.788 -18.922   4.506  0.00  0.00    -0.507 OA
ATOM     19  H   LIG    1       21.245 -19.574   4.035  0.00  0.00    +0.292 HD
ENDBRANCH   1  18
BRANCH  10  20
ATOM     20  O   LIG    1       26.217 -23.293   8.500  0.00  0.00    -0.386 OA
ATOM     21  H   LIG    1       27.169 -23.523   8.466  0.00  0.00    +0.210 HD
ENDBRANCH  10  20
BRANCH   7  22
ATOM     22  C   LIG    1       28.437 -19.886   7.929  0.00  0.00    +0.088 C 
BRANCH  22  23
ATOM     23  C   LIG    1       29.798 -20.573   7.831  0.00  0.00    +0.003 C 
ATOM     24  C   LIG    1       31.061 -19.929   8.479  0.00  0.00    +0.005 C 
ATOM     25  C   LIG    1       31.477 -21.345   8.917  0.00  0.00    +0.001 C 
ATOM     26  C   LIG    1       29.983 -21.717   8.871  0.00  0.00    +0.005 C 
ENDBRANCH  22  23
ENDBRANCH   7  22
TORSDOF 4
ENDMDL
MODEL 2
REMARK VINA RESULT:      -6.7      8.072     10.841
REMARK  Name = *****
REMARK                            x       y       z     vdW  Elec       q    Type
REMARK                         _______ _______ _______ _____ _____    ______ ____
ROOT
ATOM      1  C   LIG    1       25.414 -27.683   6.843  0.00  0.00    +0.117 A 
ATOM      2  C   LIG    1       25.671 -28.660   7.802  0.00  0.00    +0.050 A 
ATOM      3  C   LIG    1       25.100 -29.942   7.697  0.00  0.00    -0.032 A 
ATOM      4  C   LIG    1       25.433 -31.053   8.719  0.00  0.00    +0.028 C 
ATOM      5  C   LIG    1       26.807 -31.631   8.288  0.00  0.00    +0.030 C 
ATOM      6  C   LIG    1       26.723 -32.334   6.922  0.00  0.00    +0.086 C 
ATOM      7  N   LIG    1       25.590 -33.283   6.784  0.00  0.00    -0.296 NA
ATOM      8  C   LIG    1       24.276 -32.703   7.223  0.00  0.00    +0.093 C 
ATOM      9  C   LIG    1       23.673 -31.577   6.362  0.00  0.00    +0.057 C 
ATOM     10  C   LIG    1       24.408 -32.231   8.696  0.00  0.00    +0.091 C 
ATOM     11  C   LIG    1       23.064 -31.918   9.397  0.00  0.00    +0.037 C 
ATOM     12  C   LIG    1       22.927 -30.486   9.902  0.00  0.00    +0.003 C 
ATOM     13  C   LIG    1       24.147 -30.000  10.684  0.00  0.00    +0.001 C 
ATOM     14  C   LIG    1       25.492 -30.533  10.174  0.00  0.00    +0.014 C 
ATOM     15  C   LIG    1       24.291 -30.219   6.576  0.00  0.00    -0.042 A 
ATOM     16  C   LIG    1       24.028 -29.214   5.629  0.00  0.00    +0.007 A 
ATOM     17  C   LIG    1       24.591 -27.947   5.760  0.00  0.00    +0.045 A 
ENDROOT
BRANCH   1  18
ATOM     18  O   LIG    1       26.010 -26.467   7.001  0.00  0.00    -0.507 OA
ATOM     19  H   LIG    1       26.864 -26.598   7.443  0.00  0.00    +0.292 HD
ENDBRANCH   1  18
BRANCH  10  20
ATOM     20  O   LIG    1       24.940 -33.366   9.437  0.00  0.00    -0.386 OA
ATOM     21  H   LIG    1       24.177 -33.721   9.940  0.00  0.00    +0.210 HD
ENDBRANCH  10  20
BRANCH   7  22
ATOM     22  C   LIG    1       25.587 -33.825   5.408  0.00  0.00    +0.088 C 
BRANCH  22  23
ATOM     23  C   LIG    1       26.435 -33.022   4.422  0.00  0.00    +0.003 C 
ATOM     24  C   LIG    1       27.488 -33.734   3.519  0.00  0.00    +0.005 C 
ATOM     25  C   LIG    1       27.043 -32.799   2.379  0.00  0.00    +0.001 C 
ATOM     26  C   LIG    1       25.685 -32.691   3.097  0.00  0.00    +0.005 C 
ENDBRANCH  22  23
ENDBRANCH   7  22
TORSDOF 4
ENDMDL
MODEL 3
REMARK VINA RESULT:      -6.6      7.542      9.801
REMARK  Name = *****
REMARK                            x       y       z     vdW  Elec       q    Type
REMARK                         _______ _______ _______ _____ _____    ______ ____
ROOT
ATOM      1  C   LIG    1       24.679 -28.060   6.474  0.00  0.00    +0.117 A 
ATOM      2  C   LIG    1       24.323 -29.320   6.947  0.00  0.00    +0.050 A 
ATOM      3  C   LIG    1       24.947 -29.867   8.085  0.00  0.00    -0.032 A 
ATOM      4  C   LIG    1       24.512 -31.235   8.657  0.00  0.00    +0.028 C 
ATOM      5  C   LIG    1       23.234 -30.961   9.492  0.00  0.00    +0.030 C 
ATOM      6  C   LIG    1       23.534 -30.075  10.715  0.00  0.00    +0.086 C 
ATOM      7  N   LIG    1       24.707 -30.505  11.515  0.00  0.00    -0.296 NA
ATOM      8  C   LIG    1       25.926 -30.779  10.680  0.00  0.00    +0.093 C 
ATOM      9  C   LIG    1       26.604 -29.575   9.998  0.00  0.00    +0.057 C 
ATOM     10  C   LIG    1       25.571 -31.857   9.623  0.00  0.00    +0.091 C 
ATOM     11  C   LIG    1       26.790 -32.487   8.907  0.00  0.00    +0.037 C 
ATOM     12  C   LIG    1       26.805 -32.306   7.394  0.00  0.00    +0.003 C 
ATOM     13  C   LIG    1       25.471 -32.646   6.730  0.00  0.00    +0.001 C 
ATOM     14  C   LIG    1       24.231 -32.285   7.557  0.00  0.00    +0.014 C 
ATOM     15  C   LIG    1       25.916 -29.087   8.750  0.00  0.00    -0.042 A 
ATOM     16  C   LIG    1       26.275 -27.825   8.245  0.00  0.00    +0.007 A 
ATOM     17  C   LIG    1       25.655 -27.309   7.109  0.00  0.00    +0.045 A 
ENDROOT
BRANCH   1  18
ATOM     18  O   LIG    1       24.025 -27.587   5.375  0.00  0.00    -0.507 OA
ATOM     19  H   LIG    1       24.414 -27.996   4.585  0.00  0.00    +0.292 HD
ENDBRANCH   1  18
BRANCH  10  20
ATOM     20  O   LIG    1       24.979 -32.966  10.359  0.00  0.00    -0.386 OA
ATOM     21  H   LIG    1       24.859 -32.629  11.271  0.00  0.00    +0.210 HD
ENDBRANCH  10  20
BRANCH   7  22
ATOM     22  C   LIG    1       24.924 -29.529  12.605  0.00  0.00    +0.088 C 
BRANCH  22  23
ATOM     23  C   LIG    1       24.035 -28.288  12.514  0.00  0.00    +0.003 C 
ATOM     24  C   LIG    1       22.808 -28.120  13.460  0.00  0.00    +0.005 C 
ATOM     25  C   LIG    1       23.188 -26.632  13.579  0.00  0.00    +0.001 C 
ATOM     26  C   LIG    1       24.633 -27.052  13.250  0.00  0.00    +0.005 C 
ENDBRANCH  22  23
ENDBRANCH   7  22
TORSDOF 4
ENDMDL
MODEL 4
REMARK VINA RESULT:      -6.0      1.811      3.913
REMARK  Name = *****
REMARK                            x       y       z     vdW  Elec       q    Type
REMARK                         _______ _______ _______ _____ _____    ______ ____
ROOT
ATOM      1  C   LIG    1       25.498 -25.460   5.016  0.00  0.00    +0.117 A 
ATOM      2  C   LIG    1       24.924 -24.201   4.854  0.00  0.00    +0.050 A 
ATOM      3  C   LIG    1       24.957 -23.254   5.895  0.00  0.00    -0.032 A 
ATOM      4  C   LIG    1       24.383 -21.832   5.702  0.00  0.00    +0.028 C 
ATOM      5  C   LIG    1       25.473 -21.031   4.941  0.00  0.00    +0.030 C 
ATOM      6  C   LIG    1       26.744 -20.855   5.792  0.00  0.00    +0.086 C 
ATOM      7  N   LIG    1       26.499 -20.389   7.178  0.00  0.00    -0.296 NA
ATOM      8  C   LIG    1       25.428 -21.171   7.885  0.00  0.00    +0.093 C 
ATOM      9  C   LIG    1       25.737 -22.638   8.240  0.00  0.00    +0.057 C 
ATOM     10  C   LIG    1       24.122 -21.090   7.051  0.00  0.00    +0.091 C 
ATOM     11  C   LIG    1       22.849 -21.558   7.798  0.00  0.00    +0.037 C 
ATOM     12  C   LIG    1       22.122 -22.728   7.145  0.00  0.00    +0.003 C 
ATOM     13  C   LIG    1       21.912 -22.548   5.642  0.00  0.00    +0.001 C 
ATOM     14  C   LIG    1       23.051 -21.822   4.916  0.00  0.00    +0.014 C 
ATOM     15  C   LIG    1       25.617 -23.603   7.090  0.00  0.00    -0.042 A 
ATOM     16  C   LIG    1       26.174 -24.886   7.241  0.00  0.00    +0.007 A 
ATOM     17  C   LIG    1       26.117 -25.813   6.203  0.00  0.00    +0.045 A 
ENDROOT
BRANCH   1  18
ATOM     18  O   LIG    1       25.440 -26.323   3.962  0.00  0.00    -0.507 OA
ATOM     19  H   LIG    1       25.774 -27.187   4.252  0.00  0.00    +0.292 HD
ENDBRANCH   1  18
BRANCH  10  20
ATOM     20  O   LIG    1       23.888 -19.674   6.802  0.00  0.00    -0.386 OA
ATOM     21  H   LIG    1       22.947 -19.528   7.034  0.00  0.00    +0.210 HD
ENDBRANCH  10  20
BRANCH   7  22
ATOM     22  C   LIG    1       27.790 -20.337   7.899  0.00  0.00    +0.088 C 
BRANCH  22  23
ATOM     23  C   LIG    1       29.004 -20.160   6.987  0.00  0.00    +0.003 C 
ATOM     24  C   LIG    1       29.536 -18.737   6.641  0.00  0.00    +0.005 C 
ATOM     25  C   LIG    1       30.959 -19.307   6.783  0.00  0.00    +0.001 C 
ATOM     26  C   LIG    1       30.360 -20.368   7.724  0.00  0.00    +0.005 C 
ENDBRANCH  22  23
ENDBRANCH   7  22
TORSDOF 4
ENDMDL
MODEL 5
REMARK VINA RESULT:      -5.9      7.626      9.543
REMARK  Name = *****
REMARK                            x       y       z     vdW  Elec       q    Type
REMARK                         _______ _______ _______ _____ _____    ______ ____
ROOT
ATOM      1  C   LIG    1       24.261 -28.746   5.895  0.00  0.00    +0.117 A 
ATOM      2  C   LIG    1       24.108 -29.914   6.638  0.00  0.00    +0.050 A 
ATOM      3  C   LIG    1       24.804 -30.097   7.848  0.00  0.00    -0.032 A 
ATOM      4  C   LIG    1       24.589 -31.359   8.713  0.00  0.00    +0.028 C 
ATOM      5  C   LIG    1       23.279 -31.115   9.506  0.00  0.00    +0.030 C 
ATOM      6  C   LIG    1       23.427 -29.949  10.501  0.00  0.00    +0.086 C 
ATOM      7  N   LIG    1       24.649 -30.006  11.340  0.00  0.00    -0.296 NA
ATOM      8  C   LIG    1       25.900 -30.260  10.549  0.00  0.00    +0.093 C 
ATOM      9  C   LIG    1       26.383 -29.142   9.605  0.00  0.00    +0.057 C 
ATOM     10  C   LIG    1       25.728 -31.584   9.759  0.00  0.00    +0.091 C 
ATOM     11  C   LIG    1       27.036 -32.155   9.160  0.00  0.00    +0.037 C 
ATOM     12  C   LIG    1       27.030 -32.306   7.643  0.00  0.00    +0.003 C 
ATOM     13  C   LIG    1       25.772 -32.986   7.107  0.00  0.00    +0.001 C 
ATOM     14  C   LIG    1       24.485 -32.653   7.873  0.00  0.00    +0.014 C 
ATOM     15  C   LIG    1       25.633 -29.050   8.302  0.00  0.00    -0.042 A 
ATOM     16  C   LIG    1       25.789 -27.886   7.527  0.00  0.00    +0.007 A 
ATOM     17  C   LIG    1       25.101 -27.733   6.326  0.00  0.00    +0.045 A 
ENDROOT
BRANCH   1  18
ATOM     18  O   LIG    1       23.547 -28.631   4.740  0.00  0.00    -0.507 OA
ATOM     19  H   LIG    1       23.587 -27.708   4.443  0.00  0.00    +0.292 HD
ENDBRANCH   1  18
BRANCH  10  20
ATOM     20  O   LIG    1       25.315 -32.586  10.733  0.00  0.00    -0.386 OA
ATOM     21  H   LIG    1       24.657 -32.132  11.299  0.00  0.00    +0.210 HD
ENDBRANCH  10  20
BRANCH   7  22
ATOM     22  C   LIG    1       24.701 -28.796  12.189  0.00  0.00    +0.088 C 
BRANCH  22  23
ATOM     23  C   LIG    1       26.069 -28.539  12.822  0.00  0.00    +0.003 C 
ATOM     24  C   LIG    1       26.774 -27.159  12.654  0.00  0.00    +0.005 C 
ATOM     25  C   LIG    1       27.210 -27.278  14.126  0.00  0.00    +0.001 C 
ATOM     26  C   LIG    1       25.986 -28.188  14.337  0.00  0.00    +0.005 C 
ENDBRANCH  22  23
ENDBRANCH   7  22
TORSDOF 4
ENDMDL
MODEL 6
REMARK VINA RESULT:      -5.5      7.965     10.160
REMARK  Name = *****
REMARK                            x       y       z     vdW  Elec       q    Type
REMARK                         _______ _______ _______ _____ _____    ______ ____
ROOT
ATOM      1  C   LIG    1       24.357 -28.640   5.961  0.00  0.00    +0.117 A 
ATOM      2  C   LIG    1       24.170 -29.826   6.666  0.00  0.00    +0.050 A 
ATOM      3  C   LIG    1       24.856 -30.066   7.872  0.00  0.00    -0.032 A 
ATOM      4  C   LIG    1       24.605 -31.349   8.696  0.00  0.00    +0.028 C 
ATOM      5  C   LIG    1       23.298 -31.095   9.492  0.00  0.00    +0.030 C 
ATOM      6  C   LIG    1       23.473 -29.966  10.524  0.00  0.00    +0.086 C 
ATOM      7  N   LIG    1       24.689 -30.082  11.365  0.00  0.00    -0.296 NA
ATOM      8  C   LIG    1       25.937 -30.344  10.570  0.00  0.00    +0.093 C 
ATOM      9  C   LIG    1       26.452 -29.209   9.663  0.00  0.00    +0.057 C 
ATOM     10  C   LIG    1       25.733 -31.637   9.737  0.00  0.00    +0.091 C 
ATOM     11  C   LIG    1       27.028 -32.222   9.125  0.00  0.00    +0.037 C 
ATOM     12  C   LIG    1       27.025 -32.325   7.604  0.00  0.00    +0.003 C 
ATOM     13  C   LIG    1       25.751 -32.955   7.042  0.00  0.00    +0.001 C 
ATOM     14  C   LIG    1       24.470 -32.613   7.814  0.00  0.00    +0.014 C 
ATOM     15  C   LIG    1       25.710 -29.056   8.361  0.00  0.00    -0.042 A 
ATOM     16  C   LIG    1       25.900 -27.873   7.625  0.00  0.00    +0.007 A 
ATOM     17  C   LIG    1       25.221 -27.663   6.427  0.00  0.00    +0.045 A 
ENDROOT
BRANCH   1  18
ATOM     18  O   LIG    1       23.650 -28.470   4.808  0.00  0.00    -0.507 OA
ATOM     19  H   LIG    1       22.723 -28.701   4.977  0.00  0.00    +0.292 HD
ENDBRANCH   1  18
BRANCH  10  20
ATOM     20  O   LIG    1       25.291 -32.658  10.677  0.00  0.00    -0.386 OA
ATOM     21  H   LIG    1       24.338 -32.476  10.820  0.00  0.00    +0.210 HD
ENDBRANCH  10  20
BRANCH   7  22
ATOM     22  C   LIG    1       24.770 -28.901  12.252  0.00  0.00    +0.088 C 
BRANCH  22  23
ATOM     23  C   LIG    1       24.414 -29.193  13.710  0.00  0.00    +0.003 C 
ATOM     24  C   LIG    1       22.925 -29.245  14.168  0.00  0.00    +0.005 C 
ATOM     25  C   LIG    1       23.308 -30.450  15.047  0.00  0.00    +0.001 C 
ATOM     26  C   LIG    1       24.460 -30.710  14.059  0.00  0.00    +0.005 C 
ENDBRANCH  22  23
ENDBRANCH   7  22
TORSDOF 4
ENDMDL
MODEL 7
REMARK VINA RESULT:      -5.4      8.204     10.755
REMARK  Name = *****
REMARK                            x       y       z     vdW  Elec       q    Type
REMARK                         _______ _______ _______ _____ _____    ______ ____
ROOT
ATOM      1  C   LIG    1       24.613 -26.383  14.045  0.00  0.00    +0.117 A 
ATOM      2  C   LIG    1       25.469 -27.444  13.763  0.00  0.00    +0.050 A 
ATOM      3  C   LIG    1       25.018 -28.562  13.036  0.00  0.00    -0.032 A 
ATOM      4  C   LIG    1       25.979 -29.713  12.660  0.00  0.00    +0.028 C 
ATOM      5  C   LIG    1       26.765 -29.224  11.416  0.00  0.00    +0.030 C 
ATOM      6  C   LIG    1       25.841 -29.037  10.198  0.00  0.00    +0.086 C 
ATOM      7  N   LIG    1       24.929 -30.178   9.936  0.00  0.00    -0.296 NA
ATOM      8  C   LIG    1       24.193 -30.642  11.160  0.00  0.00    +0.093 C 
ATOM      9  C   LIG    1       23.132 -29.695  11.752  0.00  0.00    +0.057 C 
ATOM     10  C   LIG    1       25.231 -31.022  12.249  0.00  0.00    +0.091 C 
ATOM     11  C   LIG    1       24.654 -31.824  13.440  0.00  0.00    +0.037 C 
ATOM     12  C   LIG    1       24.821 -31.156  14.800  0.00  0.00    +0.003 C 
ATOM     13  C   LIG    1       26.236 -30.635  15.049  0.00  0.00    +0.001 C 
ATOM     14  C   LIG    1       26.948 -30.086  13.806  0.00  0.00    +0.014 C 
ATOM     15  C   LIG    1       23.687 -28.560  12.573  0.00  0.00    -0.042 A 
ATOM     16  C   LIG    1       22.832 -27.487  12.884  0.00  0.00    +0.007 A 
ATOM     17  C   LIG    1       23.295 -26.397  13.617  0.00  0.00    +0.045 A 
ENDROOT
BRANCH   1  18
ATOM     18  O   LIG    1       25.120 -25.327  14.743  0.00  0.00    -0.507 OA
ATOM     19  H   LIG    1       25.512 -25.661  15.565  0.00  0.00    +0.292 HD
ENDBRANCH   1  18
BRANCH  10  20
ATOM     20  O   LIG    1       26.162 -31.946  11.615  0.00  0.00    -0.386 OA
ATOM     21  H   LIG    1       26.889 -32.056  12.262  0.00  0.00    +0.210 HD
ENDBRANCH  10  20
BRANCH   7  22
ATOM     22  C   LIG    1       24.054 -29.835   8.793  0.00  0.00    +0.088 C 
BRANCH  22  23
ATOM     23  C   LIG    1       24.800 -29.652   7.472  0.00  0.00    +0.003 C 
ATOM     24  C   LIG    1       24.317 -30.379   6.181  0.00  0.00    +0.005 C 
ATOM     25  C   LIG    1       24.643 -29.086   5.411  0.00  0.00    +0.001 C 
ATOM     26  C   LIG    1       24.427 -28.332   6.735  0.00  0.00    +0.005 C 
ENDBRANCH  22  23
ENDBRANCH   7  22
TORSDOF 4
ENDMDL
MODEL 8
REMARK VINA RESULT:      -5.2      9.170     10.592
REMARK  Name = *****
REMARK                            x       y       z     vdW  Elec       q    Type
REMARK                         _______ _______ _______ _____ _____    ______ ____
ROOT
ATOM      1  C   LIG    1       21.326 -29.720  11.893  0.00  0.00    +0.117 A 
ATOM      2  C   LIG    1       22.277 -30.525  11.270  0.00  0.00    +0.050 A 
ATOM      3  C   LIG    1       23.646 -30.204  11.331  0.00  0.00    -0.032 A 
ATOM      4  C   LIG    1       24.714 -31.126  10.701  0.00  0.00    +0.028 C 
ATOM      5  C   LIG    1       24.940 -32.275  11.719  0.00  0.00    +0.030 C 
ATOM      6  C   LIG    1       25.558 -31.756  13.030  0.00  0.00    +0.086 C 
ATOM      7  N   LIG    1       26.727 -30.861  12.849  0.00  0.00    -0.296 NA
ATOM      8  C   LIG    1       26.486 -29.768  11.846  0.00  0.00    +0.093 C 
ATOM      9  C   LIG    1       25.474 -28.669  12.222  0.00  0.00    +0.057 C 
ATOM     10  C   LIG    1       26.089 -30.416  10.493  0.00  0.00    +0.091 C 
ATOM     11  C   LIG    1       26.131 -29.455   9.281  0.00  0.00    +0.037 C 
ATOM     12  C   LIG    1       24.800 -29.285   8.556  0.00  0.00    +0.003 C 
ATOM     13  C   LIG    1       24.101 -30.610   8.255  0.00  0.00    +0.001 C 
ATOM     14  C   LIG    1       24.285 -31.692   9.327  0.00  0.00    +0.014 C 
ATOM     15  C   LIG    1       24.028 -29.065  12.069  0.00  0.00    -0.042 A 
ATOM     16  C   LIG    1       23.052 -28.254  12.674  0.00  0.00    +0.007 A 
ATOM     17  C   LIG    1       21.701 -28.583  12.590  0.00  0.00    +0.045 A 
ENDROOT
BRANCH   1  18
ATOM     18  O   LIG    1       20.019 -30.098  11.803  0.00  0.00    -0.507 OA
ATOM     19  H   LIG    1       19.849 -30.780  12.473  0.00  0.00    +0.292 HD
ENDBRANCH   1  18
BRANCH  10  20
ATOM     20  O   LIG    1       27.119 -31.403  10.200  0.00  0.00    -0.386 OA
ATOM     21  H   LIG    1       27.157 -31.445   9.221  0.00  0.00    +0.210 HD
ENDBRANCH  10  20
BRANCH   7  22
ATOM     22  C   LIG    1       27.170 -30.381  14.177  0.00  0.00    +0.088 C 
BRANCH  22  23
ATOM     23  C   LIG    1       28.451 -29.547  14.140  0.00  0.00    +0.003 C 
ATOM     24  C   LIG    1       28.540 -28.197  14.913  0.00  0.00    +0.005 C 
ATOM     25  C   LIG    1       29.977 -28.591  15.301  0.00  0.00    +0.001 C 
ATOM     26  C   LIG    1       29.542 -30.058  15.127  0.00  0.00    +0.005 C 
ENDBRANCH  22  23
ENDBRANCH   7  22
TORSDOF 4
ENDMDL
MODEL 9
REMARK VINA RESULT:      -5.1      9.094     11.639
REMARK  Name = *****
REMARK                            x       y       z     vdW  Elec       q    Type
REMARK                         _______ _______ _______ _____ _____    ______ ____
ROOT
ATOM      1  C   LIG    1       26.359 -29.106   9.790  0.00  0.00    +0.117 A 
ATOM      2  C   LIG    1       25.451 -30.134   9.547  0.00  0.00    +0.050 A 
ATOM      3  C   LIG    1       24.706 -30.702  10.598  0.00  0.00    -0.032 A 
ATOM      4  C   LIG    1       23.648 -31.795  10.329  0.00  0.00    +0.028 C 
ATOM      5  C   LIG    1       22.380 -31.051   9.836  0.00  0.00    +0.030 C 
ATOM      6  C   LIG    1       21.784 -30.156  10.937  0.00  0.00    +0.086 C 
ATOM      7  N   LIG    1       21.629 -30.819  12.255  0.00  0.00    -0.296 NA
ATOM      8  C   LIG    1       22.866 -31.547  12.701  0.00  0.00    +0.093 C 
ATOM      9  C   LIG    1       24.095 -30.695  13.071  0.00  0.00    +0.057 C 
ATOM     10  C   LIG    1       23.248 -32.587  11.615  0.00  0.00    +0.091 C 
ATOM     11  C   LIG    1       24.292 -33.637  12.066  0.00  0.00    +0.037 C 
ATOM     12  C   LIG    1       25.576 -33.652  11.243  0.00  0.00    +0.003 C 
ATOM     13  C   LIG    1       25.329 -33.652   9.735  0.00  0.00    +0.001 C 
ATOM     14  C   LIG    1       24.111 -32.836   9.283  0.00  0.00    +0.014 C 
ATOM     15  C   LIG    1       24.880 -30.177  11.895  0.00  0.00    -0.042 A 
ATOM     16  C   LIG    1       25.816 -29.152  12.122  0.00  0.00    +0.007 A 
ATOM     17  C   LIG    1       26.553 -28.614  11.070  0.00  0.00    +0.045 A 
ENDROOT
BRANCH   1  18
ATOM     18  O   LIG    1       27.037 -28.594   8.723  0.00  0.00    -0.507 OA
ATOM     19  H   LIG    1       27.359 -27.709   8.958  0.00  0.00    +0.292 HD
ENDBRANCH   1  18
BRANCH  10  20
ATOM     20  O   LIG    1       22.045 -33.368  11.362  0.00  0.00    -0.386 OA
ATOM     21  H   LIG    1       22.151 -34.179  11.903  0.00  0.00    +0.210 HD
ENDBRANCH  10  20
BRANCH   7  22
ATOM     22  C   LIG    1       21.120 -29.830  13.230  0.00  0.00    +0.088 C 
BRANCH  22  23
ATOM     23  C   LIG    1       21.195 -28.383  12.744  0.00  0.00    +0.003 C 
ATOM     24  C   LIG    1       20.393 -27.260  13.470  0.00  0.00    +0.005 C 
ATOM     25  C   LIG    1       21.623 -26.353  13.280  0.00  0.00    +0.001 C 
ATOM     26  C   LIG    1       22.471 -27.637  13.235  0.00  0.00    +0.005 C 
ENDBRANCH  22  23
ENDBRANCH   7  22
TORSDOF 4
ENDMDL
