MODEL 1
REMARK VINA RESULT:      -3.8      0.000      0.000
REMARK  Name = *****
REMARK                            x       y       z     vdW  Elec       q    Type
REMARK                         _______ _______ _______ _____ _____    ______ ____
ROOT
ATOM      1  C   LIG    1       23.999 -12.325   1.812  0.00  0.00    +0.036 C 
ATOM      2  C   LIG    1       23.479 -13.410   2.706  0.00  0.00    -0.021 C 
ATOM      3  C   LIG    1       24.149 -14.083   3.669  0.00  0.00    -0.015 C 
ENDROOT
BRANCH   3   4
ATOM      4  C   LIG    1       25.552 -13.714   3.960  0.00  0.00    -0.017 A 
ATOM      5  C   LIG    1       26.509 -13.714   2.934  0.00  0.00    +0.012 A 
ATOM      6  C   LIG    1       27.824 -13.326   3.200  0.00  0.00    +0.046 A 
ATOM      7  C   LIG    1       28.183 -12.946   4.490  0.00  0.00    +0.117 A 
ATOM      8  C   LIG    1       27.250 -12.953   5.522  0.00  0.00    +0.046 A 
ATOM      9  C   LIG    1       25.933 -13.337   5.255  0.00  0.00    +0.012 A 
BRANCH   7  10
ATOM     10  O   LIG    1       29.475 -12.566   4.702  0.00  0.00    -0.507 OA
ATOM     11  H   LIG    1       29.828 -13.076   5.449  0.00  0.00    +0.292 HD
ENDBRANCH   7  10
ENDBRANCH   3   4
BRANCH   3  12
ATOM     12  C   LIG    1       23.465 -15.152   4.427  0.00  0.00    -0.015 C 
ATOM     13  C   LIG    1       22.629 -14.826   5.432  0.00  0.00    -0.021 C 
ATOM     14  C   LIG    1       21.846 -15.762   6.301  0.00  0.00    +0.036 C 
BRANCH  12  15
ATOM     15  C   LIG    1       23.709 -16.581   4.113  0.00  0.00    -0.017 A 
ATOM     16  C   LIG    1       22.690 -17.523   4.317  0.00  0.00    +0.012 A 
ATOM     17  C   LIG    1       22.914 -18.875   4.051  0.00  0.00    +0.046 A 
ATOM     18  C   LIG    1       24.157 -19.286   3.582  0.00  0.00    +0.117 A 
ATOM     19  C   LIG    1       25.180 -18.368   3.372  0.00  0.00    +0.046 A 
ATOM     20  C   LIG    1       24.955 -17.013   3.637  0.00  0.00    +0.012 A 
BRANCH  18  21
ATOM     21  O   LIG    1       24.333 -20.618   3.344  0.00  0.00    -0.507 OA
ATOM     22  H   LIG    1       25.106 -20.729   2.766  0.00  0.00    +0.292 HD
ENDBRANCH  18  21
ENDBRANCH  12  15
ENDBRANCH   3  12
TORSDOF 5
ENDMDL
MODEL 2
REMARK VINA RESULT:      -3.8      0.625      5.772
REMARK  Name = *****
REMARK                            x       y       z     vdW  Elec       q    Type
REMARK                         _______ _______ _______ _____ _____    ______ ____
ROOT
ATOM      1  C   LIG    1       21.985 -16.131   5.753  0.00  0.00    +0.036 C 
ATOM      2  C   LIG    1       22.721 -15.065   4.998  0.00  0.00    -0.021 C 
ATOM      3  C   LIG    1       23.775 -15.217   4.166  0.00  0.00    -0.015 C 
ENDROOT
BRANCH   3   4
ATOM      4  C   LIG    1       24.278 -16.579   3.883  0.00  0.00    -0.017 A 
ATOM      5  C   LIG    1       25.621 -16.778   3.531  0.00  0.00    +0.012 A 
ATOM      6  C   LIG    1       26.104 -18.068   3.305  0.00  0.00    +0.046 A 
ATOM      7  C   LIG    1       25.245 -19.156   3.421  0.00  0.00    +0.117 A 
ATOM      8  C   LIG    1       23.906 -18.977   3.755  0.00  0.00    +0.046 A 
ATOM      9  C   LIG    1       23.423 -17.686   3.987  0.00  0.00    +0.012 A 
BRANCH   7  10
ATOM     10  O   LIG    1       25.762 -20.398   3.200  0.00  0.00    -0.507 OA
ATOM     11  H   LIG    1       25.512 -20.973   3.942  0.00  0.00    +0.292 HD
ENDBRANCH   7  10
ENDBRANCH   3   4
BRANCH   3  12
ATOM     12  C   LIG    1       24.389 -14.027   3.537  0.00  0.00    -0.015 C 
ATOM     13  C   LIG    1       23.730 -13.376   2.560  0.00  0.00    -0.021 C 
ATOM     14  C   LIG    1       24.183 -12.158   1.815  0.00  0.00    +0.036 C 
BRANCH  12  15
ATOM     15  C   LIG    1       25.734 -13.558   3.950  0.00  0.00    -0.017 A 
ATOM     16  C   LIG    1       25.991 -13.281   5.301  0.00  0.00    +0.012 A 
ATOM     17  C   LIG    1       27.245 -12.815   5.700  0.00  0.00    +0.046 A 
ATOM     18  C   LIG    1       28.241 -12.623   4.749  0.00  0.00    +0.117 A 
ATOM     19  C   LIG    1       28.007 -12.892   3.405  0.00  0.00    +0.046 A 
ATOM     20  C   LIG    1       26.751 -13.361   3.006  0.00  0.00    +0.012 A 
BRANCH  18  21
ATOM     21  O   LIG    1       29.448 -12.156   5.184  0.00  0.00    -0.507 OA
ATOM     22  H   LIG    1       29.529 -11.223   4.926  0.00  0.00    +0.292 HD
ENDBRANCH  18  21
ENDBRANCH  12  15
ENDBRANCH   3  12
TORSDOF 5
ENDMDL
MODEL 3
REMARK VINA RESULT:      -3.1      3.040      4.467
REMARK  Name = *****
REMARK                            x       y       z     vdW  Elec       q    Type
REMARK                         _______ _______ _______ _____ _____    ______ ____
ROOT
ATOM      1  C   LIG    1       28.763 -13.918   3.962  0.00  0.00    +0.036 C 
ATOM      2  C   LIG    1       28.153 -15.287   3.945  0.00  0.00    -0.021 C 
ATOM      3  C   LIG    1       26.857 -15.615   3.742  0.00  0.00    -0.015 C 
ENDROOT
BRANCH   3   4
ATOM      4  C   LIG    1       25.883 -14.542   3.444  0.00  0.00    -0.017 A 
ATOM      5  C   LIG    1       24.972 -14.123   4.425  0.00  0.00    +0.012 A 
ATOM      6  C   LIG    1       24.080 -13.084   4.156  0.00  0.00    +0.046 A 
ATOM      7  C   LIG    1       24.093 -12.469   2.909  0.00  0.00    +0.117 A 
ATOM      8  C   LIG    1       24.981 -12.880   1.919  0.00  0.00    +0.046 A 
ATOM      9  C   LIG    1       25.877 -13.918   2.189  0.00  0.00    +0.012 A 
BRANCH   7  10
ATOM     10  O   LIG    1       23.212 -11.451   2.694  0.00  0.00    -0.507 OA
ATOM     11  H   LIG    1       23.598 -10.839   2.046  0.00  0.00    +0.292 HD
ENDBRANCH   7  10
ENDBRANCH   3   4
BRANCH   3  12
ATOM     12  C   LIG    1       26.443 -17.034   3.798  0.00  0.00    -0.015 C 
ATOM     13  C   LIG    1       25.292 -17.415   3.212  0.00  0.00    -0.021 C 
ATOM     14  C   LIG    1       24.715 -18.796   3.158  0.00  0.00    +0.036 C 
BRANCH  12  15
ATOM     15  C   LIG    1       27.267 -18.038   4.514  0.00  0.00    -0.017 A 
ATOM     16  C   LIG    1       26.702 -19.267   4.883  0.00  0.00    +0.012 A 
ATOM     17  C   LIG    1       27.458 -20.211   5.580  0.00  0.00    +0.046 A 
ATOM     18  C   LIG    1       28.777 -19.926   5.911  0.00  0.00    +0.117 A 
ATOM     19  C   LIG    1       29.357 -18.713   5.555  0.00  0.00    +0.046 A 
ATOM     20  C   LIG    1       28.600 -17.768   4.855  0.00  0.00    +0.012 A 
BRANCH  18  21
ATOM     21  O   LIG    1       29.475 -20.875   6.602  0.00  0.00    -0.507 OA
ATOM     22  H   LIG    1       29.922 -20.446   7.350  0.00  0.00    +0.292 HD
ENDBRANCH  18  21
ENDBRANCH  12  15
ENDBRANCH   3  12
TORSDOF 5
ENDMDL
MODEL 4
REMARK VINA RESULT:      -3.0      3.093      6.061
REMARK  Name = *****
REMARK                            x       y       z     vdW  Elec       q    Type
REMARK                         _______ _______ _______ _____ _____    ______ ____
ROOT
ATOM      1  C   LIG    1       24.997 -18.854   2.970  0.00  0.00    +0.036 C 
ATOM      2  C   LIG    1       25.552 -17.465   3.064  0.00  0.00    -0.021 C 
ATOM      3  C   LIG    1       26.594 -17.038   3.813  0.00  0.00    -0.015 C 
ENDROOT
BRANCH   3   4
ATOM      4  C   LIG    1       27.351 -18.021   4.618  0.00  0.00    -0.017 A 
ATOM      5  C   LIG    1       26.738 -19.208   5.044  0.00  0.00    +0.012 A 
ATOM      6  C   LIG    1       27.465 -20.154   5.768  0.00  0.00    +0.046 A 
ATOM      7  C   LIG    1       28.800 -19.911   6.073  0.00  0.00    +0.117 A 
ATOM      8  C   LIG    1       29.422 -18.733   5.670  0.00  0.00    +0.046 A 
ATOM      9  C   LIG    1       28.695 -17.788   4.941  0.00  0.00    +0.012 A 
BRANCH   7  10
ATOM     10  O   LIG    1       29.475 -20.867   6.774  0.00  0.00    -0.507 OA
ATOM     11  H   LIG    1       30.320 -20.492   7.072  0.00  0.00    +0.292 HD
ENDBRANCH   7  10
ENDBRANCH   3   4
BRANCH   3  12
ATOM     12  C   LIG    1       26.970 -15.608   3.796  0.00  0.00    -0.015 C 
ATOM     13  C   LIG    1       28.230 -15.247   4.106  0.00  0.00    -0.021 C 
ATOM     14  C   LIG    1       28.796 -13.860   4.136  0.00  0.00    +0.036 C 
BRANCH  12  15
ATOM     15  C   LIG    1       25.969 -14.562   3.468  0.00  0.00    -0.017 A 
ATOM     16  C   LIG    1       26.097 -13.822   2.284  0.00  0.00    +0.012 A 
ATOM     17  C   LIG    1       25.177 -12.818   1.977  0.00  0.00    +0.046 A 
ATOM     18  C   LIG    1       24.131 -12.553   2.853  0.00  0.00    +0.117 A 
ATOM     19  C   LIG    1       23.986 -13.276   4.032  0.00  0.00    +0.046 A 
ATOM     20  C   LIG    1       24.907 -14.283   4.339  0.00  0.00    +0.012 A 
BRANCH  18  21
ATOM     21  O   LIG    1       23.262 -11.555   2.516  0.00  0.00    -0.507 OA
ATOM     22  H   LIG    1       23.754 -10.862   2.047  0.00  0.00    +0.292 HD
ENDBRANCH  18  21
ENDBRANCH  12  15
ENDBRANCH   3  12
TORSDOF 5
ENDMDL
MODEL 5
REMARK VINA RESULT:      -2.8      2.537      4.349
REMARK  Name = *****
REMARK                            x       y       z     vdW  Elec       q    Type
REMARK                         _______ _______ _______ _____ _____    ______ ____
ROOT
ATOM      1  C   LIG    1       21.913 -16.286   4.635  0.00  0.00    +0.036 C 
ATOM      2  C   LIG    1       22.623 -17.599   4.493  0.00  0.00    -0.021 C 
ATOM      3  C   LIG    1       23.902 -17.812   4.112  0.00  0.00    -0.015 C 
ENDROOT
BRANCH   3   4
ATOM      4  C   LIG    1       24.774 -16.648   3.838  0.00  0.00    -0.017 A 
ATOM      5  C   LIG    1       26.063 -16.838   3.320  0.00  0.00    +0.012 A 
ATOM      6  C   LIG    1       26.870 -15.738   3.023  0.00  0.00    +0.046 A 
ATOM      7  C   LIG    1       26.392 -14.452   3.251  0.00  0.00    +0.117 A 
ATOM      8  C   LIG    1       25.121 -14.244   3.777  0.00  0.00    +0.046 A 
ATOM      9  C   LIG    1       24.311 -15.345   4.070  0.00  0.00    +0.012 A 
BRANCH   7  10
ATOM     10  O   LIG    1       27.211 -13.407   2.938  0.00  0.00    -0.507 OA
ATOM     11  H   LIG    1       27.994 -13.446   3.511  0.00  0.00    +0.292 HD
ENDBRANCH   7  10
ENDBRANCH   3   4
BRANCH   3  12
ATOM     12  C   LIG    1       24.411 -19.195   3.998  0.00  0.00    -0.015 C 
ATOM     13  C   LIG    1       23.820 -20.056   3.147  0.00  0.00    -0.021 C 
ATOM     14  C   LIG    1       24.195 -21.483   2.892  0.00  0.00    +0.036 C 
BRANCH  12  15
ATOM     15  C   LIG    1       25.549 -19.657   4.831  0.00  0.00    -0.017 A 
ATOM     16  C   LIG    1       26.862 -19.334   4.459  0.00  0.00    +0.012 A 
ATOM     17  C   LIG    1       27.942 -19.784   5.219  0.00  0.00    +0.046 A 
ATOM     18  C   LIG    1       27.711 -20.558   6.351  0.00  0.00    +0.117 A 
ATOM     19  C   LIG    1       26.418 -20.889   6.737  0.00  0.00    +0.046 A 
ATOM     20  C   LIG    1       25.335 -20.437   5.977  0.00  0.00    +0.012 A 
BRANCH  18  21
ATOM     21  O   LIG    1       28.799 -20.983   7.058  0.00  0.00    -0.507 OA
ATOM     22  H   LIG    1       29.433 -21.382   6.439  0.00  0.00    +0.292 HD
ENDBRANCH  18  21
ENDBRANCH  12  15
ENDBRANCH   3  12
TORSDOF 5
ENDMDL
MODEL 6
REMARK VINA RESULT:      -2.6      1.822      5.776
REMARK  Name = *****
REMARK                            x       y       z     vdW  Elec       q    Type
REMARK                         _______ _______ _______ _____ _____    ______ ____
ROOT
ATOM      1  C   LIG    1       20.386 -18.795   3.179  0.00  0.00    +0.036 C 
ATOM      2  C   LIG    1       20.930 -17.509   3.726  0.00  0.00    -0.021 C 
ATOM      3  C   LIG    1       22.102 -17.313   4.370  0.00  0.00    -0.015 C 
ENDROOT
BRANCH   3   4
ATOM      4  C   LIG    1       23.028 -18.454   4.541  0.00  0.00    -0.017 A 
ATOM      5  C   LIG    1       24.125 -18.608   3.681  0.00  0.00    +0.012 A 
ATOM      6  C   LIG    1       25.021 -19.662   3.867  0.00  0.00    +0.046 A 
ATOM      7  C   LIG    1       24.818 -20.564   4.907  0.00  0.00    +0.117 A 
ATOM      8  C   LIG    1       23.728 -20.434   5.762  0.00  0.00    +0.046 A 
ATOM      9  C   LIG    1       22.833 -19.377   5.578  0.00  0.00    +0.012 A 
BRANCH   7  10
ATOM     10  O   LIG    1       25.724 -21.572   5.058  0.00  0.00    -0.507 OA
ATOM     11  H   LIG    1       26.571 -21.284   4.680  0.00  0.00    +0.292 HD
ENDBRANCH   7  10
ENDBRANCH   3   4
BRANCH   3  12
ATOM     12  C   LIG    1       22.447 -15.964   4.868  0.00  0.00    -0.015 C 
ATOM     13  C   LIG    1       21.808 -15.468   5.945  0.00  0.00    -0.021 C 
ATOM     14  C   LIG    1       22.023 -14.135   6.595  0.00  0.00    +0.036 C 
BRANCH  12  15
ATOM     15  C   LIG    1       23.468 -15.138   4.179  0.00  0.00    -0.017 A 
ATOM     16  C   LIG    1       24.798 -15.579   4.121  0.00  0.00    +0.012 A 
ATOM     17  C   LIG    1       25.774 -14.799   3.498  0.00  0.00    +0.046 A 
ATOM     18  C   LIG    1       25.422 -13.578   2.936  0.00  0.00    +0.117 A 
ATOM     19  C   LIG    1       24.109 -13.122   2.982  0.00  0.00    +0.046 A 
ATOM     20  C   LIG    1       23.131 -13.904   3.604  0.00  0.00    +0.012 A 
BRANCH  18  21
ATOM     21  O   LIG    1       26.412 -12.845   2.346  0.00  0.00    -0.507 OA
ATOM     22  H   LIG    1       27.267 -13.251   2.563  0.00  0.00    +0.292 HD
ENDBRANCH  18  21
ENDBRANCH  12  15
ENDBRANCH   3  12
TORSDOF 5
ENDMDL
MODEL 7
REMARK VINA RESULT:      -2.6      1.395      6.488
REMARK  Name = *****
REMARK                            x       y       z     vdW  Elec       q    Type
REMARK                         _______ _______ _______ _____ _____    ______ ____
ROOT
ATOM      1  C   LIG    1       27.100 -18.661   3.663  0.00  0.00    +0.036 C 
ATOM      2  C   LIG    1       26.719 -17.212   3.662  0.00  0.00    -0.021 C 
ATOM      3  C   LIG    1       25.478 -16.680   3.738  0.00  0.00    -0.015 C 
ENDROOT
BRANCH   3   4
ATOM      4  C   LIG    1       24.318 -17.584   3.896  0.00  0.00    -0.017 A 
ATOM      5  C   LIG    1       24.463 -18.963   3.682  0.00  0.00    +0.012 A 
ATOM      6  C   LIG    1       23.378 -19.820   3.871  0.00  0.00    +0.046 A 
ATOM      7  C   LIG    1       22.149 -19.301   4.264  0.00  0.00    +0.117 A 
ATOM      8  C   LIG    1       21.983 -17.935   4.468  0.00  0.00    +0.046 A 
ATOM      9  C   LIG    1       23.070 -17.076   4.283  0.00  0.00    +0.012 A 
BRANCH   7  10
ATOM     10  O   LIG    1       21.119 -20.176   4.446  0.00  0.00    -0.507 OA
ATOM     11  H   LIG    1       21.434 -21.071   4.237  0.00  0.00    +0.292 HD
ENDBRANCH   7  10
ENDBRANCH   3   4
BRANCH   3  12
ATOM     12  C   LIG    1       25.306 -15.212   3.687  0.00  0.00    -0.015 C 
ATOM     13  C   LIG    1       24.126 -14.694   3.294  0.00  0.00    -0.021 C 
ATOM     14  C   LIG    1       23.763 -13.245   3.185  0.00  0.00    +0.036 C 
BRANCH  12  15
ATOM     15  C   LIG    1       26.425 -14.303   4.036  0.00  0.00    -0.017 A 
ATOM     16  C   LIG    1       26.497 -13.750   5.323  0.00  0.00    +0.012 A 
ATOM     17  C   LIG    1       27.530 -12.873   5.657  0.00  0.00    +0.046 A 
ATOM     18  C   LIG    1       28.489 -12.546   4.704  0.00  0.00    +0.117 A 
ATOM     19  C   LIG    1       28.435 -13.084   3.423  0.00  0.00    +0.046 A 
ATOM     20  C   LIG    1       27.401 -13.964   3.089  0.00  0.00    +0.012 A 
BRANCH  18  21
ATOM     21  O   LIG    1       29.475 -11.676   5.073  0.00  0.00    -0.507 OA
ATOM     22  H   LIG    1       29.285 -10.809   4.678  0.00  0.00    +0.292 HD
ENDBRANCH  18  21
ENDBRANCH  12  15
ENDBRANCH   3  12
TORSDOF 5
ENDMDL
MODEL 8
REMARK VINA RESULT:      -2.5      2.630      4.766
REMARK  Name = *****
REMARK                            x       y       z     vdW  Elec       q    Type
REMARK                         _______ _______ _______ _____ _____    ______ ____
ROOT
ATOM      1  C   LIG    1       20.633 -18.084   2.869  0.00  0.00    +0.036 C 
ATOM      2  C   LIG    1       21.401 -18.966   3.807  0.00  0.00    -0.021 C 
ATOM      3  C   LIG    1       22.562 -18.689   4.442  0.00  0.00    -0.015 C 
ENDROOT
BRANCH   3   4
ATOM      4  C   LIG    1       23.172 -17.351   4.272  0.00  0.00    -0.017 A 
ATOM      5  C   LIG    1       22.521 -16.211   4.766  0.00  0.00    +0.012 A 
ATOM      6  C   LIG    1       23.116 -14.955   4.643  0.00  0.00    +0.046 A 
ATOM      7  C   LIG    1       24.355 -14.837   4.020  0.00  0.00    +0.117 A 
ATOM      8  C   LIG    1       25.008 -15.955   3.512  0.00  0.00    +0.046 A 
ATOM      9  C   LIG    1       24.415 -17.214   3.640  0.00  0.00    +0.012 A 
BRANCH   7  10
ATOM     10  O   LIG    1       24.903 -13.591   3.931  0.00  0.00    -0.507 OA
ATOM     11  H   LIG    1       24.479 -13.120   3.195  0.00  0.00    +0.292 HD
ENDBRANCH   7  10
ENDBRANCH   3   4
BRANCH   3  12
ATOM     12  C   LIG    1       23.185 -19.712   5.307  0.00  0.00    -0.015 C 
ATOM     13  C   LIG    1       22.409 -20.481   6.095  0.00  0.00    -0.021 C 
ATOM     14  C   LIG    1       22.854 -21.566   7.028  0.00  0.00    +0.036 C 
BRANCH  12  15
ATOM     15  C   LIG    1       24.658 -19.885   5.340  0.00  0.00    -0.017 A 
ATOM     16  C   LIG    1       25.288 -20.267   6.533  0.00  0.00    +0.012 A 
ATOM     17  C   LIG    1       26.676 -20.408   6.585  0.00  0.00    +0.046 A 
ATOM     18  C   LIG    1       27.434 -20.165   5.445  0.00  0.00    +0.117 A 
ATOM     19  C   LIG    1       26.829 -19.787   4.252  0.00  0.00    +0.046 A 
ATOM     20  C   LIG    1       25.438 -19.647   4.200  0.00  0.00    +0.012 A 
BRANCH  18  21
ATOM     21  O   LIG    1       28.789 -20.306   5.545  0.00  0.00    -0.507 OA
ATOM     22  H   LIG    1       29.052 -20.114   6.460  0.00  0.00    +0.292 HD
ENDBRANCH  18  21
ENDBRANCH  12  15
ENDBRANCH   3  12
TORSDOF 5
ENDMDL
MODEL 9
REMARK VINA RESULT:      -1.6      2.706      6.045
REMARK  Name = *****
REMARK                            x       y       z     vdW  Elec       q    Type
REMARK                         _______ _______ _______ _____ _____    ______ ____
ROOT
ATOM      1  C   LIG    1       22.843 -21.572   7.046  0.00  0.00    +0.036 C 
ATOM      2  C   LIG    1       22.359 -20.508   6.108  0.00  0.00    -0.021 C 
ATOM      3  C   LIG    1       23.101 -19.696   5.321  0.00  0.00    -0.015 C 
ENDROOT
BRANCH   3   4
ATOM      4  C   LIG    1       24.570 -19.864   5.299  0.00  0.00    -0.017 A 
ATOM      5  C   LIG    1       25.299 -19.560   4.140  0.00  0.00    +0.012 A 
ATOM      6  C   LIG    1       26.689 -19.679   4.132  0.00  0.00    +0.046 A 
ATOM      7  C   LIG    1       27.350 -20.110   5.278  0.00  0.00    +0.117 A 
ATOM      8  C   LIG    1       26.644 -20.430   6.433  0.00  0.00    +0.046 A 
ATOM      9  C   LIG    1       25.251 -20.306   6.442  0.00  0.00    +0.012 A 
BRANCH   7  10
ATOM     10  O   LIG    1       28.710 -20.203   5.228  0.00  0.00    -0.507 OA
ATOM     11  H   LIG    1       29.021 -19.759   4.422  0.00  0.00    +0.292 HD
ENDBRANCH   7  10
ENDBRANCH   3   4
BRANCH   3  12
ATOM     12  C   LIG    1       22.432 -18.678   4.484  0.00  0.00    -0.015 C 
ATOM     13  C   LIG    1       21.383 -19.031   3.716  0.00  0.00    -0.021 C 
ATOM     14  C   LIG    1       20.580 -18.145   2.813  0.00  0.00    +0.036 C 
BRANCH  12  15
ATOM     15  C   LIG    1       22.920 -17.277   4.456  0.00  0.00    -0.017 A 
ATOM     16  C   LIG    1       24.078 -16.956   3.733  0.00  0.00    +0.012 A 
ATOM     17  C   LIG    1       24.562 -15.647   3.720  0.00  0.00    +0.046 A 
ATOM     18  C   LIG    1       23.891 -14.659   4.431  0.00  0.00    +0.117 A 
ATOM     19  C   LIG    1       22.741 -14.956   5.154  0.00  0.00    +0.046 A 
ATOM     20  C   LIG    1       22.255 -16.267   5.166  0.00  0.00    +0.012 A 
BRANCH  18  21
ATOM     21  O   LIG    1       24.407 -13.395   4.397  0.00  0.00    -0.507 OA
ATOM     22  H   LIG    1       24.524 -13.086   5.310  0.00  0.00    +0.292 HD
ENDBRANCH  18  21
ENDBRANCH  12  15
ENDBRANCH   3  12
TORSDOF 5
ENDMDL
