MODEL 1
REMARK VINA RESULT:      -9.3      0.000      0.000
REMARK  Name = *****
REMARK                            x       y       z     vdW  Elec       q    Type
REMARK                         _______ _______ _______ _____ _____    ______ ____
ROOT
ATOM      1  C   LIG    1       28.518 -19.867   7.426  0.00  0.00    +0.250 C 
ATOM      2  N   LIG    1       27.915 -20.525   6.359  0.00  0.00    -0.283 N 
ATOM      3  H   LIG    1       28.477 -20.634   5.519  0.00  0.00    +0.155 HD
ATOM      4  O   LIG    1       28.080 -19.774   8.569  0.00  0.00    -0.272 OA
ENDROOT
BRANCH   2   5
ATOM      5  C   LIG    1       26.700 -21.229   6.439  0.00  0.00    +0.034 A 
ATOM      6  C   LIG    1       25.526 -20.632   5.965  0.00  0.00    +0.037 A 
ATOM      7  C   LIG    1       24.285 -21.319   6.013  0.00  0.00    +0.074 A 
ATOM      8  C   LIG    1       24.246 -22.605   6.573  0.00  0.00    +0.064 A 
ATOM      9  C   LIG    1       25.418 -23.184   7.066  0.00  0.00    +0.021 A 
ATOM     10  C   LIG    1       26.631 -22.504   6.994  0.00  0.00    +0.024 A 
BRANCH   7  11
ATOM     11  C   LIG    1       23.070 -20.626   5.440  0.00  0.00    +0.419 C 
ATOM     12  F   LIG    1       23.376 -19.882   4.341  0.00  0.00    -0.166 F 
ATOM     13  F   LIG    1       22.521 -19.755   6.333  0.00  0.00    -0.166 F 
ATOM     14  F   LIG    1       22.058 -21.447   5.060  0.00  0.00    -0.166 F 
ENDBRANCH   7  11
BRANCH   8  15
ATOM     15  C   LIG    1       23.042 -23.391   6.677  0.00  0.00    +0.100 C 
ATOM     16  N   LIG    1       22.104 -24.040   6.808  0.00  0.00    -0.191 NA
ENDBRANCH   8  15
ENDBRANCH   2   5
BRANCH   1  18
ATOM     17  C   LIG    1       29.606 -18.420   5.740  0.00  0.00    +0.053 C 
ATOM     18  C   LIG    1       29.857 -19.201   7.053  0.00  0.00    +0.158 C 
BRANCH  18  19
ATOM     19  O   LIG    1       30.870 -20.165   6.759  0.00  0.00    -0.378 OA
ATOM     20  H   LIG    1       31.728 -19.746   6.969  0.00  0.00    +0.211 HD
ENDBRANCH  18  19
BRANCH  18  21
ATOM     21  C   LIG    1       30.316 -18.227   8.141  0.00  0.00    +0.215 C 
BRANCH  21  22
ATOM     22  S   LIG    1       31.904 -18.499   8.895  0.00  0.00    +0.000 S 
ATOM     23  O   LIG    1       32.939 -18.091   7.965  0.00  0.00    -0.169 OA
ATOM     24  O   LIG    1       31.901 -19.850   9.425  0.00  0.00    -0.169 OA
BRANCH  22  25
ATOM     25  C   LIG    1       32.043 -17.430  10.316  0.00  0.00    +0.088 A 
ATOM     26  C   LIG    1       31.310 -17.734  11.472  0.00  0.00    +0.030 A 
ATOM     27  C   LIG    1       31.517 -16.995  12.635  0.00  0.00    +0.040 A 
ATOM     28  C   LIG    1       32.389 -15.913  12.614  0.00  0.00    +0.123 A 
ATOM     29  F   LIG    1       32.615 -15.227  13.741  0.00  0.00    -0.205 F 
ATOM     30  C   LIG    1       33.025 -15.531  11.434  0.00  0.00    +0.040 A 
ATOM     31  C   LIG    1       32.854 -16.291  10.272  0.00  0.00    +0.030 A 
ENDBRANCH  22  25
ENDBRANCH  21  22
ENDBRANCH  18  21
ENDBRANCH   1  18
TORSDOF 8
ENDMDL
MODEL 2
REMARK VINA RESULT:      -9.2      5.497      7.515
REMARK  Name = *****
REMARK                            x       y       z     vdW  Elec       q    Type
REMARK                         _______ _______ _______ _____ _____    ______ ____
ROOT
ATOM      1  C   LIG    1       24.192 -24.473   6.271  0.00  0.00    +0.250 C 
ATOM      2  N   LIG    1       25.212 -25.377   5.992  0.00  0.00    -0.283 N 
ATOM      3  H   LIG    1       26.107 -24.981   5.718  0.00  0.00    +0.155 HD
ATOM      4  O   LIG    1       23.100 -24.734   6.767  0.00  0.00    -0.272 OA
ENDROOT
BRANCH   2   5
ATOM      5  C   LIG    1       25.157 -26.754   6.275  0.00  0.00    +0.034 A 
ATOM      6  C   LIG    1       25.683 -27.231   7.482  0.00  0.00    +0.037 A 
ATOM      7  C   LIG    1       25.628 -28.610   7.810  0.00  0.00    +0.074 A 
ATOM      8  C   LIG    1       25.059 -29.502   6.888  0.00  0.00    +0.064 A 
ATOM      9  C   LIG    1       24.557 -29.022   5.675  0.00  0.00    +0.021 A 
ATOM     10  C   LIG    1       24.602 -27.662   5.377  0.00  0.00    +0.024 A 
BRANCH   7  11
ATOM     11  C   LIG    1       26.177 -29.041   9.151  0.00  0.00    +0.419 C 
ATOM     12  F   LIG    1       25.196 -29.478   9.988  0.00  0.00    -0.166 F 
ATOM     13  F   LIG    1       26.783 -28.008   9.802  0.00  0.00    -0.166 F 
ATOM     14  F   LIG    1       27.098 -30.037   9.109  0.00  0.00    -0.166 F 
ENDBRANCH   7  11
BRANCH   8  15
ATOM     15  C   LIG    1       24.955 -30.921   7.114  0.00  0.00    +0.100 C 
ATOM     16  N   LIG    1       24.899 -32.045   7.344  0.00  0.00    -0.191 NA
ENDBRANCH   8  15
ENDBRANCH   2   5
BRANCH   1  18
ATOM     17  C   LIG    1       23.335 -22.153   6.309  0.00  0.00    +0.053 C 
ATOM     18  C   LIG    1       24.538 -23.025   5.873  0.00  0.00    +0.158 C 
BRANCH  18  19
ATOM     19  O   LIG    1       24.652 -22.872   4.457  0.00  0.00    -0.378 OA
ATOM     20  H   LIG    1       24.360 -23.715   4.057  0.00  0.00    +0.211 HD
ENDBRANCH  18  19
BRANCH  18  21
ATOM     21  C   LIG    1       25.801 -22.538   6.588  0.00  0.00    +0.215 C 
BRANCH  21  22
ATOM     22  S   LIG    1       26.044 -20.785   6.762  0.00  0.00    +0.000 S 
ATOM     23  O   LIG    1       25.477 -20.358   8.027  0.00  0.00    -0.169 OA
ATOM     24  O   LIG    1       25.601 -20.166   5.526  0.00  0.00    -0.169 OA
BRANCH  22  25
ATOM     25  C   LIG    1       27.796 -20.466   6.853  0.00  0.00    +0.088 A 
ATOM     26  C   LIG    1       28.368 -19.542   5.967  0.00  0.00    +0.030 A 
ATOM     27  C   LIG    1       29.704 -19.175   6.120  0.00  0.00    +0.040 A 
ATOM     28  C   LIG    1       30.476 -19.788   7.099  0.00  0.00    +0.123 A 
ATOM     29  F   LIG    1       31.749 -19.409   7.268  0.00  0.00    -0.205 F 
ATOM     30  C   LIG    1       29.945 -20.798   7.900  0.00  0.00    +0.040 A 
ATOM     31  C   LIG    1       28.595 -21.144   7.780  0.00  0.00    +0.030 A 
ENDBRANCH  22  25
ENDBRANCH  21  22
ENDBRANCH  18  21
ENDBRANCH   1  18
TORSDOF 8
ENDMDL
MODEL 3
REMARK VINA RESULT:      -9.0      4.856      9.717
REMARK  Name = *****
REMARK                            x       y       z     vdW  Elec       q    Type
REMARK                         _______ _______ _______ _____ _____    ______ ____
ROOT
ATOM      1  C   LIG    1       25.595 -20.796   6.158  0.00  0.00    +0.250 C 
ATOM      2  N   LIG    1       26.840 -20.797   5.538  0.00  0.00    -0.283 N 
ATOM      3  H   LIG    1       26.859 -21.071   4.560  0.00  0.00    +0.155 HD
ATOM      4  O   LIG    1       25.333 -20.350   7.272  0.00  0.00    -0.272 OA
ENDROOT
BRANCH   2   5
ATOM      5  C   LIG    1       28.007 -20.241   6.093  0.00  0.00    +0.034 A 
ATOM      6  C   LIG    1       28.675 -20.923   7.118  0.00  0.00    +0.037 A 
ATOM      7  C   LIG    1       29.865 -20.402   7.688  0.00  0.00    +0.074 A 
ATOM      8  C   LIG    1       30.353 -19.170   7.226  0.00  0.00    +0.064 A 
ATOM      9  C   LIG    1       29.668 -18.484   6.220  0.00  0.00    +0.021 A 
ATOM     10  C   LIG    1       28.512 -19.019   5.657  0.00  0.00    +0.024 A 
BRANCH   7  11
ATOM     11  C   LIG    1       30.552 -21.218   8.759  0.00  0.00    +0.419 C 
ATOM     12  F   LIG    1       29.784 -22.260   9.180  0.00  0.00    -0.166 F 
ATOM     13  F   LIG    1       30.804 -20.474   9.873  0.00  0.00    -0.166 F 
ATOM     14  F   LIG    1       31.745 -21.757   8.403  0.00  0.00    -0.166 F 
ENDBRANCH   7  11
BRANCH   8  15
ATOM     15  C   LIG    1       31.548 -18.546   7.736  0.00  0.00    +0.100 C 
ATOM     16  N   LIG    1       32.468 -18.008   8.165  0.00  0.00    -0.191 NA
ENDBRANCH   8  15
ENDBRANCH   2   5
BRANCH   1  18
ATOM     17  C   LIG    1       24.521 -20.746   3.930  0.00  0.00    +0.053 C 
ATOM     18  C   LIG    1       24.491 -21.454   5.307  0.00  0.00    +0.158 C 
BRANCH  18  19
ATOM     19  O   LIG    1       23.189 -21.222   5.849  0.00  0.00    -0.378 OA
ATOM     20  H   LIG    1       23.313 -20.973   6.786  0.00  0.00    +0.211 HD
ENDBRANCH  18  19
BRANCH  18  21
ATOM     21  C   LIG    1       24.754 -22.950   5.113  0.00  0.00    +0.215 C 
BRANCH  21  22
ATOM     22  S   LIG    1       24.516 -24.030   6.506  0.00  0.00    +0.000 S 
ATOM     23  O   LIG    1       23.122 -23.981   6.902  0.00  0.00    -0.169 OA
ATOM     24  O   LIG    1       25.553 -23.719   7.472  0.00  0.00    -0.169 OA
BRANCH  22  25
ATOM     25  C   LIG    1       24.841 -25.704   5.982  0.00  0.00    +0.088 A 
ATOM     26  C   LIG    1       25.876 -25.943   5.068  0.00  0.00    +0.030 A 
ATOM     27  C   LIG    1       26.237 -27.254   4.760  0.00  0.00    +0.040 A 
ATOM     28  C   LIG    1       25.512 -28.309   5.302  0.00  0.00    +0.123 A 
ATOM     29  F   LIG    1       25.882 -29.568   5.034  0.00  0.00    -0.205 F 
ATOM     30  C   LIG    1       24.402 -28.073   6.112  0.00  0.00    +0.040 A 
ATOM     31  C   LIG    1       24.059 -26.762   6.458  0.00  0.00    +0.030 A 
ENDBRANCH  22  25
ENDBRANCH  21  22
ENDBRANCH  18  21
ENDBRANCH   1  18
TORSDOF 8
ENDMDL
MODEL 4
REMARK VINA RESULT:      -8.9      6.235      8.388
REMARK  Name = *****
REMARK                            x       y       z     vdW  Elec       q    Type
REMARK                         _______ _______ _______ _____ _____    ______ ____
ROOT
ATOM      1  C   LIG    1       25.509 -25.695   6.000  0.00  0.00    +0.250 C 
ATOM      2  N   LIG    1       24.562 -26.653   6.348  0.00  0.00    -0.283 N 
ATOM      3  H   LIG    1       23.595 -26.343   6.379  0.00  0.00    +0.155 HD
ATOM      4  O   LIG    1       26.695 -25.896   5.752  0.00  0.00    -0.272 OA
ENDROOT
BRANCH   2   5
ATOM      5  C   LIG    1       24.819 -28.033   6.437  0.00  0.00    +0.034 A 
ATOM      6  C   LIG    1       25.207 -28.584   7.664  0.00  0.00    +0.037 A 
ATOM      7  C   LIG    1       25.456 -29.974   7.796  0.00  0.00    +0.074 A 
ATOM      8  C   LIG    1       25.335 -30.793   6.662  0.00  0.00    +0.064 A 
ATOM      9  C   LIG    1       24.972 -30.232   5.435  0.00  0.00    +0.021 A 
ATOM     10  C   LIG    1       24.711 -28.868   5.328  0.00  0.00    +0.024 A 
BRANCH   7  11
ATOM     11  C   LIG    1       25.827 -30.501   9.164  0.00  0.00    +0.419 C 
ATOM     12  F   LIG    1       25.788 -29.527  10.114  0.00  0.00    -0.166 F 
ATOM     13  F   LIG    1       27.100 -30.987   9.187  0.00  0.00    -0.166 F 
ATOM     14  F   LIG    1       25.044 -31.506   9.631  0.00  0.00    -0.166 F 
ENDBRANCH   7  11
BRANCH   8  15
ATOM     15  C   LIG    1       25.569 -32.215   6.679  0.00  0.00    +0.100 C 
ATOM     16  N   LIG    1       25.810 -33.338   6.702  0.00  0.00    -0.191 NA
ENDBRANCH   8  15
ENDBRANCH   2   5
BRANCH   1  18
ATOM     17  C   LIG    1       23.524 -24.338   6.582  0.00  0.00    +0.053 C 
ATOM     18  C   LIG    1       24.940 -24.263   5.959  0.00  0.00    +0.158 C 
BRANCH  18  19
ATOM     19  O   LIG    1       24.765 -23.795   4.620  0.00  0.00    -0.378 OA
ATOM     20  H   LIG    1       25.195 -22.918   4.570  0.00  0.00    +0.211 HD
ENDBRANCH  18  19
BRANCH  18  21
ATOM     21  C   LIG    1       25.803 -23.298   6.778  0.00  0.00    +0.215 C 
BRANCH  21  22
ATOM     22  S   LIG    1       25.351 -21.578   6.796  0.00  0.00    +0.000 S 
ATOM     23  O   LIG    1       24.701 -21.280   8.058  0.00  0.00    -0.169 OA
ATOM     24  O   LIG    1       24.665 -21.302   5.547  0.00  0.00    -0.169 OA
BRANCH  22  25
ATOM     25  C   LIG    1       26.843 -20.604   6.745  0.00  0.00    +0.088 A 
ATOM     26  C   LIG    1       27.611 -20.471   7.910  0.00  0.00    +0.030 A 
ATOM     27  C   LIG    1       28.851 -19.836   7.852  0.00  0.00    +0.040 A 
ATOM     28  C   LIG    1       29.275 -19.270   6.655  0.00  0.00    +0.123 A 
ATOM     29  F   LIG    1       30.481 -18.692   6.592  0.00  0.00    -0.205 F 
ATOM     30  C   LIG    1       28.459 -19.290   5.526  0.00  0.00    +0.040 A 
ATOM     31  C   LIG    1       27.232 -19.961   5.565  0.00  0.00    +0.030 A 
ENDBRANCH  22  25
ENDBRANCH  21  22
ENDBRANCH  18  21
ENDBRANCH   1  18
TORSDOF 8
ENDMDL
MODEL 5
REMARK VINA RESULT:      -8.6      6.418      9.300
REMARK  Name = *****
REMARK                            x       y       z     vdW  Elec       q    Type
REMARK                         _______ _______ _______ _____ _____    ______ ____
ROOT
ATOM      1  C   LIG    1       25.524 -25.486   6.031  0.00  0.00    +0.250 C 
ATOM      2  N   LIG    1       24.538 -26.391   6.411  0.00  0.00    -0.283 N 
ATOM      3  H   LIG    1       23.594 -26.025   6.494  0.00  0.00    +0.155 HD
ATOM      4  O   LIG    1       26.681 -25.753   5.721  0.00  0.00    -0.272 OA
ENDROOT
BRANCH   2   5
ATOM      5  C   LIG    1       24.715 -27.786   6.465  0.00  0.00    +0.034 A 
ATOM      6  C   LIG    1       25.212 -28.372   7.635  0.00  0.00    +0.037 A 
ATOM      7  C   LIG    1       25.386 -29.777   7.732  0.00  0.00    +0.074 A 
ATOM      8  C   LIG    1       25.075 -30.575   6.620  0.00  0.00    +0.064 A 
ATOM      9  C   LIG    1       24.601 -29.980   5.448  0.00  0.00    +0.021 A 
ATOM     10  C   LIG    1       24.418 -28.602   5.376  0.00  0.00    +0.024 A 
BRANCH   7  11
ATOM     11  C   LIG    1       25.885 -30.340   9.043  0.00  0.00    +0.419 C 
ATOM     12  F   LIG    1       26.004 -29.378  10.000  0.00  0.00    -0.166 F 
ATOM     13  F   LIG    1       27.127 -30.886   8.915  0.00  0.00    -0.166 F 
ATOM     14  F   LIG    1       25.113 -31.312   9.590  0.00  0.00    -0.166 F 
ENDBRANCH   7  11
BRANCH   8  15
ATOM     15  C   LIG    1       25.217 -32.010   6.605  0.00  0.00    +0.100 C 
ATOM     16  N   LIG    1       25.330 -33.150   6.537  0.00  0.00    -0.191 NA
ENDBRANCH   8  15
ENDBRANCH   2   5
BRANCH   1  18
ATOM     17  C   LIG    1       23.659 -24.022   6.737  0.00  0.00    +0.053 C 
ATOM     18  C   LIG    1       25.042 -24.022   6.041  0.00  0.00    +0.158 C 
BRANCH  18  19
ATOM     19  O   LIG    1       24.827 -23.520   4.720  0.00  0.00    -0.378 OA
ATOM     20  H   LIG    1       25.120 -24.219   4.102  0.00  0.00    +0.211 HD
ENDBRANCH  18  19
BRANCH  18  21
ATOM     21  C   LIG    1       26.004 -23.126   6.826  0.00  0.00    +0.215 C 
BRANCH  21  22
ATOM     22  S   LIG    1       25.403 -21.555   7.405  0.00  0.00    +0.000 S 
ATOM     23  O   LIG    1       26.535 -20.733   7.788  0.00  0.00    -0.169 OA
ATOM     24  O   LIG    1       24.350 -21.827   8.367  0.00  0.00    -0.169 OA
BRANCH  22  25
ATOM     25  C   LIG    1       24.602 -20.723   6.046  0.00  0.00    +0.088 A 
ATOM     26  C   LIG    1       23.224 -20.477   6.114  0.00  0.00    +0.030 A 
ATOM     27  C   LIG    1       22.611 -19.703   5.130  0.00  0.00    +0.040 A 
ATOM     28  C   LIG    1       23.358 -19.251   4.050  0.00  0.00    +0.123 A 
ATOM     29  F   LIG    1       22.777 -18.477   3.124  0.00  0.00    -0.205 F 
ATOM     30  C   LIG    1       24.701 -19.598   3.914  0.00  0.00    +0.040 A 
ATOM     31  C   LIG    1       25.334 -20.341   4.917  0.00  0.00    +0.030 A 
ENDBRANCH  22  25
ENDBRANCH  21  22
ENDBRANCH  18  21
ENDBRANCH   1  18
TORSDOF 8
ENDMDL
MODEL 6
REMARK VINA RESULT:      -8.3      7.204     10.426
REMARK  Name = *****
REMARK                            x       y       z     vdW  Elec       q    Type
REMARK                         _______ _______ _______ _____ _____    ______ ____
ROOT
ATOM      1  C   LIG    1       25.159 -28.978   7.756  0.00  0.00    +0.250 C 
ATOM      2  N   LIG    1       26.307 -28.436   8.326  0.00  0.00    -0.283 N 
ATOM      3  H   LIG    1       26.762 -27.692   7.807  0.00  0.00    +0.155 HD
ATOM      4  O   LIG    1       24.379 -29.763   8.288  0.00  0.00    -0.272 OA
ENDROOT
BRANCH   2   5
ATOM      5  C   LIG    1       26.737 -28.687   9.642  0.00  0.00    +0.034 A 
ATOM      6  C   LIG    1       26.546 -27.710  10.627  0.00  0.00    +0.037 A 
ATOM      7  C   LIG    1       26.950 -27.935  11.968  0.00  0.00    +0.074 A 
ATOM      8  C   LIG    1       27.575 -29.149  12.291  0.00  0.00    +0.064 A 
ATOM      9  C   LIG    1       27.784 -30.109  11.298  0.00  0.00    +0.021 A 
ATOM     10  C   LIG    1       27.364 -29.881   9.990  0.00  0.00    +0.024 A 
BRANCH   7  11
ATOM     11  C   LIG    1       26.669 -26.851  12.984  0.00  0.00    +0.419 C 
ATOM     12  F   LIG    1       25.623 -27.170  13.795  0.00  0.00    -0.166 F 
ATOM     13  F   LIG    1       26.324 -25.677  12.383  0.00  0.00    -0.166 F 
ATOM     14  F   LIG    1       27.700 -26.549  13.812  0.00  0.00    -0.166 F 
ENDBRANCH   7  11
BRANCH   8  15
ATOM     15  C   LIG    1       28.030 -29.482  13.618  0.00  0.00    +0.100 C 
ATOM     16  N   LIG    1       28.390 -29.692  14.688  0.00  0.00    -0.191 NA
ENDBRANCH   8  15
ENDBRANCH   2   5
BRANCH   1  18
ATOM     17  C   LIG    1       23.898 -29.496   5.692  0.00  0.00    +0.053 C 
ATOM     18  C   LIG    1       24.921 -28.511   6.306  0.00  0.00    +0.158 C 
BRANCH  18  19
ATOM     19  O   LIG    1       26.105 -28.612   5.511  0.00  0.00    -0.378 OA
ATOM     20  H   LIG    1       25.909 -29.248   4.794  0.00  0.00    +0.211 HD
ENDBRANCH  18  19
BRANCH  18  21
ATOM     21  C   LIG    1       24.345 -27.092   6.267  0.00  0.00    +0.215 C 
BRANCH  21  22
ATOM     22  S   LIG    1       25.429 -25.759   5.806  0.00  0.00    +0.000 S 
ATOM     23  O   LIG    1       25.426 -25.633   4.362  0.00  0.00    -0.169 OA
ATOM     24  O   LIG    1       26.682 -25.963   6.511  0.00  0.00    -0.169 OA
BRANCH  22  25
ATOM     25  C   LIG    1       24.759 -24.240   6.455  0.00  0.00    +0.088 A 
ATOM     26  C   LIG    1       25.638 -23.228   6.865  0.00  0.00    +0.030 A 
ATOM     27  C   LIG    1       25.132 -21.983   7.238  0.00  0.00    +0.040 A 
ATOM     28  C   LIG    1       23.758 -21.785   7.276  0.00  0.00    +0.123 A 
ATOM     29  F   LIG    1       23.274 -20.579   7.600  0.00  0.00    -0.205 F 
ATOM     30  C   LIG    1       22.877 -22.827   6.990  0.00  0.00    +0.040 A 
ATOM     31  C   LIG    1       23.376 -24.067   6.576  0.00  0.00    +0.030 A 
ENDBRANCH  22  25
ENDBRANCH  21  22
ENDBRANCH  18  21
ENDBRANCH   1  18
TORSDOF 8
ENDMDL
MODEL 7
REMARK VINA RESULT:      -8.3      6.554      8.718
REMARK  Name = *****
REMARK                            x       y       z     vdW  Elec       q    Type
REMARK                         _______ _______ _______ _____ _____    ______ ____
ROOT
ATOM      1  C   LIG    1       25.761 -26.297   6.139  0.00  0.00    +0.250 C 
ATOM      2  N   LIG    1       24.909 -27.176   6.798  0.00  0.00    -0.283 N 
ATOM      3  H   LIG    1       23.958 -26.853   6.955  0.00  0.00    +0.155 HD
ATOM      4  O   LIG    1       26.885 -26.549   5.713  0.00  0.00    -0.272 OA
ENDROOT
BRANCH   2   5
ATOM      5  C   LIG    1       25.200 -28.529   7.053  0.00  0.00    +0.034 A 
ATOM      6  C   LIG    1       25.189 -29.446   5.995  0.00  0.00    +0.037 A 
ATOM      7  C   LIG    1       25.496 -30.815   6.211  0.00  0.00    +0.074 A 
ATOM      8  C   LIG    1       25.786 -31.245   7.515  0.00  0.00    +0.064 A 
ATOM      9  C   LIG    1       25.771 -30.328   8.569  0.00  0.00    +0.021 A 
ATOM     10  C   LIG    1       25.487 -28.985   8.337  0.00  0.00    +0.024 A 
BRANCH   7  11
ATOM     11  C   LIG    1       25.507 -31.735   5.012  0.00  0.00    +0.419 C 
ATOM     12  F   LIG    1       26.673 -32.432   4.913  0.00  0.00    -0.166 F 
ATOM     13  F   LIG    1       25.394 -31.041   3.844  0.00  0.00    -0.166 F 
ATOM     14  F   LIG    1       24.518 -32.664   4.982  0.00  0.00    -0.166 F 
ENDBRANCH   7  11
BRANCH   8  15
ATOM     15  C   LIG    1       26.106 -32.610   7.850  0.00  0.00    +0.100 C 
ATOM     16  N   LIG    1       26.415 -33.686   8.105  0.00  0.00    -0.191 NA
ENDBRANCH   8  15
ENDBRANCH   2   5
BRANCH   1  18
ATOM     17  C   LIG    1       23.698 -24.967   6.447  0.00  0.00    +0.053 C 
ATOM     18  C   LIG    1       25.172 -24.881   5.980  0.00  0.00    +0.158 C 
BRANCH  18  19
ATOM     19  O   LIG    1       25.136 -24.467   4.613  0.00  0.00    -0.378 OA
ATOM     20  H   LIG    1       24.574 -23.668   4.574  0.00  0.00    +0.211 HD
ENDBRANCH  18  19
BRANCH  18  21
ATOM     21  C   LIG    1       25.921 -23.867   6.849  0.00  0.00    +0.215 C 
BRANCH  21  22
ATOM     22  S   LIG    1       25.467 -22.152   6.716  0.00  0.00    +0.000 S 
ATOM     23  O   LIG    1       24.726 -21.771   7.902  0.00  0.00    -0.169 OA
ATOM     24  O   LIG    1       24.874 -21.967   5.403  0.00  0.00    -0.169 OA
BRANCH  22  25
ATOM     25  C   LIG    1       26.958 -21.174   6.707  0.00  0.00    +0.088 A 
ATOM     26  C   LIG    1       27.950 -21.436   7.662  0.00  0.00    +0.030 A 
ATOM     27  C   LIG    1       29.178 -20.781   7.579  0.00  0.00    +0.040 A 
ATOM     28  C   LIG    1       29.376 -19.817   6.598  0.00  0.00    +0.123 A 
ATOM     29  F   LIG    1       30.568 -19.215   6.497  0.00  0.00    -0.205 F 
ATOM     30  C   LIG    1       28.348 -19.464   5.725  0.00  0.00    +0.040 A 
ATOM     31  C   LIG    1       27.127 -20.144   5.775  0.00  0.00    +0.030 A 
ENDBRANCH  22  25
ENDBRANCH  21  22
ENDBRANCH  18  21
ENDBRANCH   1  18
TORSDOF 8
ENDMDL
MODEL 8
REMARK VINA RESULT:      -8.2      2.019      2.463
REMARK  Name = *****
REMARK                            x       y       z     vdW  Elec       q    Type
REMARK                         _______ _______ _______ _____ _____    ______ ____
ROOT
ATOM      1  C   LIG    1       28.199 -19.775   6.193  0.00  0.00    +0.250 C 
ATOM      2  N   LIG    1       27.714 -20.638   7.171  0.00  0.00    -0.283 N 
ATOM      3  H   LIG    1       28.208 -20.641   8.058  0.00  0.00    +0.155 HD
ATOM      4  O   LIG    1       27.659 -19.504   5.125  0.00  0.00    -0.272 OA
ENDROOT
BRANCH   2   5
ATOM      5  C   LIG    1       26.485 -21.319   7.095  0.00  0.00    +0.034 A 
ATOM      6  C   LIG    1       26.458 -22.643   6.641  0.00  0.00    +0.037 A 
ATOM      7  C   LIG    1       25.240 -23.367   6.569  0.00  0.00    +0.074 A 
ATOM      8  C   LIG    1       24.049 -22.723   6.936  0.00  0.00    +0.064 A 
ATOM      9  C   LIG    1       24.080 -21.394   7.365  0.00  0.00    +0.021 A 
ATOM     10  C   LIG    1       25.287 -20.704   7.449  0.00  0.00    +0.024 A 
BRANCH   7  11
ATOM     11  C   LIG    1       25.298 -24.807   6.111  0.00  0.00    +0.419 C 
ATOM     12  F   LIG    1       26.563 -25.308   6.161  0.00  0.00    -0.166 F 
ATOM     13  F   LIG    1       24.902 -24.938   4.814  0.00  0.00    -0.166 F 
ATOM     14  F   LIG    1       24.529 -25.673   6.818  0.00  0.00    -0.166 F 
ENDBRANCH   7  11
BRANCH   8  15
ATOM     15  C   LIG    1       22.756 -23.360   6.897  0.00  0.00    +0.100 C 
ATOM     16  N   LIG    1       21.715 -23.839   6.819  0.00  0.00    -0.191 NA
ENDBRANCH   8  15
ENDBRANCH   2   5
BRANCH   1  18
ATOM     17  C   LIG    1       29.670 -17.839   5.740  0.00  0.00    +0.053 C 
ATOM     18  C   LIG    1       29.561 -19.151   6.554  0.00  0.00    +0.158 C 
BRANCH  18  19
ATOM     19  O   LIG    1       30.653 -19.974   6.138  0.00  0.00    -0.378 OA
ATOM     20  H   LIG    1       31.097 -20.287   6.951  0.00  0.00    +0.211 HD
ENDBRANCH  18  19
BRANCH  18  21
ATOM     21  C   LIG    1       29.647 -18.829   8.049  0.00  0.00    +0.215 C 
BRANCH  21  22
ATOM     22  S   LIG    1       31.139 -19.260   8.916  0.00  0.00    +0.000 S 
ATOM     23  O   LIG    1       32.219 -19.377   7.957  0.00  0.00    -0.169 OA
ATOM     24  O   LIG    1       30.820 -20.378   9.786  0.00  0.00    -0.169 OA
BRANCH  22  25
ATOM     25  C   LIG    1       31.565 -17.915  10.006  0.00  0.00    +0.088 A 
ATOM     26  C   LIG    1       30.973 -17.852  11.275  0.00  0.00    +0.030 A 
ATOM     27  C   LIG    1       31.402 -16.893  12.191  0.00  0.00    +0.040 A 
ATOM     28  C   LIG    1       32.356 -15.958  11.807  0.00  0.00    +0.123 A 
ATOM     29  F   LIG    1       32.793 -15.059  12.699  0.00  0.00    -0.205 F 
ATOM     30  C   LIG    1       32.855 -15.938  10.506  0.00  0.00    +0.040 A 
ATOM     31  C   LIG    1       32.460 -16.922   9.594  0.00  0.00    +0.030 A 
ENDBRANCH  22  25
ENDBRANCH  21  22
ENDBRANCH  18  21
ENDBRANCH   1  18
TORSDOF 8
ENDMDL
MODEL 9
REMARK VINA RESULT:      -8.0      5.099      9.997
REMARK  Name = *****
REMARK                            x       y       z     vdW  Elec       q    Type
REMARK                         _______ _______ _______ _____ _____    ______ ____
ROOT
ATOM      1  C   LIG    1       25.538 -21.998   7.297  0.00  0.00    +0.250 C 
ATOM      2  N   LIG    1       26.603 -21.769   6.431  0.00  0.00    -0.283 N 
ATOM      3  H   LIG    1       26.444 -21.985   5.452  0.00  0.00    +0.155 HD
ATOM      4  O   LIG    1       25.467 -21.658   8.475  0.00  0.00    -0.272 OA
ENDROOT
BRANCH   2   5
ATOM      5  C   LIG    1       27.773 -21.067   6.774  0.00  0.00    +0.034 A 
ATOM      6  C   LIG    1       28.663 -21.623   7.700  0.00  0.00    +0.037 A 
ATOM      7  C   LIG    1       29.862 -20.953   8.056  0.00  0.00    +0.074 A 
ATOM      8  C   LIG    1       30.131 -19.701   7.482  0.00  0.00    +0.064 A 
ATOM      9  C   LIG    1       29.226 -19.141   6.577  0.00  0.00    +0.021 A 
ATOM     10  C   LIG    1       28.063 -19.821   6.224  0.00  0.00    +0.024 A 
BRANCH   7  11
ATOM     11  C   LIG    1       30.795 -21.638   9.028  0.00  0.00    +0.419 C 
ATOM     12  F   LIG    1       31.441 -20.747   9.830  0.00  0.00    -0.166 F 
ATOM     13  F   LIG    1       31.775 -22.329   8.382  0.00  0.00    -0.166 F 
ATOM     14  F   LIG    1       30.208 -22.531   9.865  0.00  0.00    -0.166 F 
ENDBRANCH   7  11
BRANCH   8  15
ATOM     15  C   LIG    1       31.314 -18.930   7.774  0.00  0.00    +0.100 C 
ATOM     16  N   LIG    1       32.253 -18.293   7.955  0.00  0.00    -0.191 NA
ENDBRANCH   8  15
ENDBRANCH   2   5
BRANCH   1  18
ATOM     17  C   LIG    1       24.509 -22.553   5.117  0.00  0.00    +0.053 C 
ATOM     18  C   LIG    1       24.378 -22.774   6.644  0.00  0.00    +0.158 C 
BRANCH  18  19
ATOM     19  O   LIG    1       23.103 -22.247   7.018  0.00  0.00    -0.378 OA
ATOM     20  H   LIG    1       23.224 -21.285   7.150  0.00  0.00    +0.211 HD
ENDBRANCH  18  19
BRANCH  18  21
ATOM     21  C   LIG    1       24.470 -24.272   6.949  0.00  0.00    +0.215 C 
BRANCH  21  22
ATOM     22  S   LIG    1       25.454 -25.289   5.871  0.00  0.00    +0.000 S 
ATOM     23  O   LIG    1       26.856 -25.010   6.116  0.00  0.00    -0.169 OA
ATOM     24  O   LIG    1       24.912 -25.142   4.532  0.00  0.00    -0.169 OA
BRANCH  22  25
ATOM     25  C   LIG    1       25.186 -26.997   6.308  0.00  0.00    +0.088 A 
ATOM     26  C   LIG    1       25.829 -27.519   7.439  0.00  0.00    +0.030 A 
ATOM     27  C   LIG    1       25.518 -28.806   7.877  0.00  0.00    +0.040 A 
ATOM     28  C   LIG    1       24.635 -29.586   7.140  0.00  0.00    +0.123 A 
ATOM     29  F   LIG    1       24.310 -30.808   7.581  0.00  0.00    -0.205 F 
ATOM     30  C   LIG    1       24.090 -29.116   5.946  0.00  0.00    +0.040 A 
ATOM     31  C   LIG    1       24.365 -27.811   5.522  0.00  0.00    +0.030 A 
ENDBRANCH  22  25
ENDBRANCH  21  22
ENDBRANCH  18  21
ENDBRANCH   1  18
TORSDOF 8
ENDMDL
