MODEL 1
REMARK VINA RESULT:      -4.4      0.000      0.000
REMARK  Name = *****
REMARK                            x       y       z     vdW  Elec       q    Type
REMARK                         _______ _______ _______ _____ _____    ______ ____
ROOT
ATOM      1  C   LIG    1       22.805 -20.409   5.148  0.00  0.00    +0.387 C 
ATOM      2  F   LIG    1       22.789 -19.913   6.409  0.00  0.00    -0.172 F 
ATOM      3  F   LIG    1       21.645 -21.097   4.973  0.00  0.00    -0.172 F 
ENDROOT
BRANCH   1   4
ATOM      4  C   LIG    1       22.925 -19.296   4.098  0.00  0.00    +0.270 C 
ATOM      5 CL   LIG    1       24.628 -18.982   3.633  0.00  0.00    -0.095 Cl
ATOM      6 CL   LIG    1       22.197 -17.761   4.665  0.00  0.00    -0.095 Cl
ENDBRANCH   1   4
BRANCH   1   8
ATOM      7  C   LIG    1       24.558 -21.499   6.279  0.00  0.00    +0.200 C 
ATOM      8  O   LIG    1       23.871 -21.354   5.045  0.00  0.00    -0.321 OA
ENDBRANCH   1   8
TORSDOF 2
ENDMDL
MODEL 2
REMARK VINA RESULT:      -4.3      6.755      7.372
REMARK  Name = *****
REMARK                            x       y       z     vdW  Elec       q    Type
REMARK                         _______ _______ _______ _____ _____    ______ ____
ROOT
ATOM      1  C   LIG    1       26.359 -14.935   3.360  0.00  0.00    +0.387 C 
ATOM      2  F   LIG    1       26.544 -16.254   3.109  0.00  0.00    -0.172 F 
ATOM      3  F   LIG    1       25.121 -14.801   3.906  0.00  0.00    -0.172 F 
ENDROOT
BRANCH   1   4
ATOM      4  C   LIG    1       27.423 -14.381   4.317  0.00  0.00    +0.270 C 
ATOM      5 CL   LIG    1       26.701 -13.455   5.672  0.00  0.00    -0.095 Cl
ATOM      6 CL   LIG    1       28.600 -13.328   3.471  0.00  0.00    -0.095 Cl
ENDBRANCH   1   4
BRANCH   1   8
ATOM      7  C   LIG    1       25.366 -13.206   2.110  0.00  0.00    +0.200 C 
ATOM      8  O   LIG    1       26.346 -14.233   2.116  0.00  0.00    -0.321 OA
ENDBRANCH   1   8
TORSDOF 2
ENDMDL
MODEL 3
REMARK VINA RESULT:      -4.3      6.728      7.260
REMARK  Name = *****
REMARK                            x       y       z     vdW  Elec       q    Type
REMARK                         _______ _______ _______ _____ _____    ______ ____
ROOT
ATOM      1  C   LIG    1       26.503 -14.565   3.229  0.00  0.00    +0.387 C 
ATOM      2  F   LIG    1       26.154 -15.873   3.172  0.00  0.00    -0.172 F 
ATOM      3  F   LIG    1       26.959 -14.219   1.996  0.00  0.00    -0.172 F 
ENDROOT
BRANCH   1   4
ATOM      4  C   LIG    1       25.318 -13.674   3.625  0.00  0.00    +0.270 C 
ATOM      5 CL   LIG    1       23.883 -14.631   4.115  0.00  0.00    -0.095 Cl
ATOM      6 CL   LIG    1       24.840 -12.570   2.298  0.00  0.00    -0.095 Cl
ENDBRANCH   1   4
BRANCH   1   8
ATOM      7  C   LIG    1       28.402 -13.302   3.810  0.00  0.00    +0.200 C 
ATOM      8  O   LIG    1       27.599 -14.426   4.134  0.00  0.00    -0.321 OA
ENDBRANCH   1   8
TORSDOF 2
ENDMDL
MODEL 4
REMARK VINA RESULT:      -4.2      2.366      2.742
REMARK  Name = *****
REMARK                            x       y       z     vdW  Elec       q    Type
REMARK                         _______ _______ _______ _____ _____    ______ ____
ROOT
ATOM      1  C   LIG    1       24.101 -20.535   4.101  0.00  0.00    +0.387 C 
ATOM      2  F   LIG    1       23.861 -21.435   3.117  0.00  0.00    -0.172 F 
ATOM      3  F   LIG    1       24.531 -19.392   3.502  0.00  0.00    -0.172 F 
ENDROOT
BRANCH   1   4
ATOM      4  C   LIG    1       22.844 -20.254   4.936  0.00  0.00    +0.270 C 
ATOM      5 CL   LIG    1       22.255 -18.573   4.734  0.00  0.00    -0.095 Cl
ATOM      6 CL   LIG    1       23.120 -20.555   6.680  0.00  0.00    -0.095 Cl
ENDBRANCH   1   4
BRANCH   1   8
ATOM      7  C   LIG    1       26.225 -20.063   4.997  0.00  0.00    +0.200 C 
ATOM      8  O   LIG    1       25.177 -21.017   4.906  0.00  0.00    -0.321 OA
ENDBRANCH   1   8
TORSDOF 2
ENDMDL
MODEL 5
REMARK VINA RESULT:      -4.2      6.724      7.399
REMARK  Name = *****
REMARK                            x       y       z     vdW  Elec       q    Type
REMARK                         _______ _______ _______ _____ _____    ______ ____
ROOT
ATOM      1  C   LIG    1       24.122 -13.759   4.003  0.00  0.00    +0.387 C 
ATOM      2  F   LIG    1       23.543 -13.700   2.779  0.00  0.00    -0.172 F 
ATOM      3  F   LIG    1       23.378 -14.612   4.757  0.00  0.00    -0.172 F 
ENDROOT
BRANCH   1   4
ATOM      4  C   LIG    1       25.574 -14.251   3.923  0.00  0.00    +0.270 C 
ATOM      5 CL   LIG    1       26.600 -13.551   5.217  0.00  0.00    -0.095 Cl
ATOM      6 CL   LIG    1       26.321 -13.877   2.339  0.00  0.00    -0.095 Cl
ENDBRANCH   1   4
BRANCH   1   8
ATOM      7  C   LIG    1       23.725 -11.465   3.659  0.00  0.00    +0.200 C 
ATOM      8  O   LIG    1       24.030 -12.471   4.613  0.00  0.00    -0.321 OA
ENDBRANCH   1   8
TORSDOF 2
ENDMDL
MODEL 6
REMARK VINA RESULT:      -4.2      1.913      3.044
REMARK  Name = *****
REMARK                            x       y       z     vdW  Elec       q    Type
REMARK                         _______ _______ _______ _____ _____    ______ ____
ROOT
ATOM      1  C   LIG    1       22.994 -20.194   5.162  0.00  0.00    +0.387 C 
ATOM      2  F   LIG    1       22.058 -21.134   4.886  0.00  0.00    -0.172 F 
ATOM      3  F   LIG    1       22.605 -19.567   6.304  0.00  0.00    -0.172 F 
ENDROOT
BRANCH   1   4
ATOM      4  C   LIG    1       24.387 -20.812   5.345  0.00  0.00    +0.270 C 
ATOM      5 CL   LIG    1       24.932 -20.765   7.053  0.00  0.00    -0.095 Cl
ATOM      6 CL   LIG    1       25.618 -19.995   4.333  0.00  0.00    -0.095 Cl
ENDBRANCH   1   4
BRANCH   1   8
ATOM      7  C   LIG    1       22.121 -18.131   4.441  0.00  0.00    +0.200 C 
ATOM      8  O   LIG    1       22.978 -19.217   4.121  0.00  0.00    -0.321 OA
ENDBRANCH   1   8
TORSDOF 2
ENDMDL
MODEL 7
REMARK VINA RESULT:      -4.1      2.296      2.571
REMARK  Name = *****
REMARK                            x       y       z     vdW  Elec       q    Type
REMARK                         _______ _______ _______ _____ _____    ______ ____
ROOT
ATOM      1  C   LIG    1       24.277 -20.067   4.034  0.00  0.00    +0.387 C 
ATOM      2  F   LIG    1       23.991 -21.029   3.123  0.00  0.00    -0.172 F 
ATOM      3  F   LIG    1       24.546 -18.928   3.342  0.00  0.00    -0.172 F 
ENDROOT
BRANCH   1   4
ATOM      4  C   LIG    1       23.110 -19.834   5.004  0.00  0.00    +0.270 C 
ATOM      5 CL   LIG    1       21.928 -21.182   4.980  0.00  0.00    -0.095 Cl
ATOM      6 CL   LIG    1       22.241 -18.309   4.649  0.00  0.00    -0.095 Cl
ENDBRANCH   1   4
BRANCH   1   8
ATOM      7  C   LIG    1       25.233 -20.654   6.102  0.00  0.00    +0.200 C 
ATOM      8  O   LIG    1       25.474 -20.433   4.721  0.00  0.00    -0.321 OA
ENDBRANCH   1   8
TORSDOF 2
ENDMDL
MODEL 8
REMARK VINA RESULT:      -4.1      1.283      1.447
REMARK  Name = *****
REMARK                            x       y       z     vdW  Elec       q    Type
REMARK                         _______ _______ _______ _____ _____    ______ ____
ROOT
ATOM      1  C   LIG    1       23.471 -20.613   4.596  0.00  0.00    +0.387 C 
ATOM      2  F   LIG    1       22.241 -21.092   4.902  0.00  0.00    -0.172 F 
ATOM      3  F   LIG    1       24.105 -21.572   3.870  0.00  0.00    -0.172 F 
ENDROOT
BRANCH   1   4
ATOM      4  C   LIG    1       23.391 -19.307   3.793  0.00  0.00    +0.270 C 
ATOM      5 CL   LIG    1       25.000 -18.548   3.570  0.00  0.00    -0.095 Cl
ATOM      6 CL   LIG    1       22.300 -18.114   4.565  0.00  0.00    -0.095 Cl
ENDBRANCH   1   4
BRANCH   1   8
ATOM      7  C   LIG    1       23.428 -20.791   6.942  0.00  0.00    +0.200 C 
ATOM      8  O   LIG    1       24.209 -20.448   5.807  0.00  0.00    -0.321 OA
ENDBRANCH   1   8
TORSDOF 2
ENDMDL
MODEL 9
REMARK VINA RESULT:      -4.1      6.788      7.416
REMARK  Name = *****
REMARK                            x       y       z     vdW  Elec       q    Type
REMARK                         _______ _______ _______ _____ _____    ______ ____
ROOT
ATOM      1  C   LIG    1       25.930 -13.482   3.075  0.00  0.00    +0.387 C 
ATOM      2  F   LIG    1       26.470 -12.466   2.359  0.00  0.00    -0.172 F 
ATOM      3  F   LIG    1       26.396 -13.367   4.347  0.00  0.00    -0.172 F 
ENDROOT
BRANCH   1   4
ATOM      4  C   LIG    1       24.396 -13.433   3.066  0.00  0.00    +0.270 C 
ATOM      5 CL   LIG    1       23.767 -11.779   3.355  0.00  0.00    -0.095 Cl
ATOM      6 CL   LIG    1       23.685 -14.533   4.289  0.00  0.00    -0.095 Cl
ENDBRANCH   1   4
BRANCH   1   8
ATOM      7  C   LIG    1       27.080 -15.477   3.562  0.00  0.00    +0.200 C 
ATOM      8  O   LIG    1       26.425 -14.717   2.557  0.00  0.00    -0.321 OA
ENDBRANCH   1   8
TORSDOF 2
ENDMDL
