MODEL 1
REMARK VINA RESULT:      -3.9      0.000      0.000
REMARK  Name = *****
REMARK                            x       y       z     vdW  Elec       q    Type
REMARK                         _______ _______ _______ _____ _____    ______ ____
ROOT
ATOM      1  O   LIG    1       25.465 -17.107   3.321  0.00  0.00    -0.461 OA
ENDROOT
BRANCH   1  10
ATOM      2  C   LIG    1       28.033 -14.836   4.562  0.00  0.00    +0.193 C 
ATOM      3  N   LIG    1       27.125 -13.686   4.154  0.00  0.00    +0.247 N 
ATOM      4  C   LIG    1       27.893 -12.399   4.492  0.00  0.00    +0.193 C 
ATOM      5  C   LIG    1       26.678 -13.663   2.668  0.00  0.00    +0.102 C 
ATOM      6  C   LIG    1       25.549 -12.650   2.610  0.00  0.00    +0.201 C 
ATOM      7  C   LIG    1       24.926 -12.649   3.982  0.00  0.00    +0.201 C 
ATOM      8  O   LIG    1       24.211 -13.090   2.830  0.00  0.00    -0.357 OA
ATOM      9  C   LIG    1       26.196 -15.067   2.287  0.00  0.00    +0.102 C 
ATOM     10  C   LIG    1       25.155 -15.685   3.254  0.00  0.00    +0.187 C 
ATOM     11  C   LIG    1       25.102 -15.077   4.680  0.00  0.00    +0.102 C 
ATOM     12  C   LIG    1       25.711 -13.667   4.797  0.00  0.00    +0.102 C 
ENDBRANCH   1  10
BRANCH   1  13
ATOM     13  C   LIG    1       24.472 -17.965   3.696  0.00  0.00    +0.317 C 
ATOM     14  O   LIG    1       23.344 -17.592   4.029  0.00  0.00    -0.250 OA
BRANCH  13  15
ATOM     15  C   LIG    1       24.935 -19.408   3.624  0.00  0.00    +0.153 C 
BRANCH  15  16
ATOM     16  C   LIG    1       25.773 -19.814   4.837  0.00  0.00    -0.032 A 
ATOM     17  C   LIG    1       25.171 -20.454   5.934  0.00  0.00    +0.004 A 
ATOM     18  C   LIG    1       25.937 -20.877   7.028  0.00  0.00    +0.000 A 
ATOM     19  C   LIG    1       27.309 -20.645   7.058  0.00  0.00    +0.000 A 
ATOM     20  C   LIG    1       27.916 -19.979   6.000  0.00  0.00    +0.000 A 
ATOM     21  C   LIG    1       27.158 -19.579   4.898  0.00  0.00    +0.004 A 
ENDBRANCH  15  16
BRANCH  15  22
ATOM     22  C   LIG    1       23.701 -20.302   3.414  0.00  0.00    +0.175 C 
BRANCH  22  23
ATOM     23  O   LIG    1       24.055 -21.563   2.850  0.00  0.00    -0.394 OA
ATOM     24  H   LIG    1       24.179 -22.171   3.605  0.00  0.00    +0.209 HD
ENDBRANCH  22  23
ENDBRANCH  15  22
ENDBRANCH  13  15
ENDBRANCH   1  13
TORSDOF 6
ENDMDL
MODEL 2
REMARK VINA RESULT:      -3.9      1.693      2.783
REMARK  Name = *****
REMARK                            x       y       z     vdW  Elec       q    Type
REMARK                         _______ _______ _______ _____ _____    ______ ____
ROOT
ATOM      1  O   LIG    1       26.550 -16.811   3.502  0.00  0.00    -0.461 OA
ENDROOT
BRANCH   1  10
ATOM      2  C   LIG    1       26.586 -13.919   5.722  0.00  0.00    +0.193 C 
ATOM      3  N   LIG    1       25.725 -13.199   4.696  0.00  0.00    +0.247 N 
ATOM      4  C   LIG    1       25.497 -11.784   5.251  0.00  0.00    +0.193 C 
ATOM      5  C   LIG    1       26.300 -13.119   3.257  0.00  0.00    +0.102 C 
ATOM      6  C   LIG    1       25.137 -12.670   2.390  0.00  0.00    +0.201 C 
ATOM      7  C   LIG    1       23.892 -13.154   3.089  0.00  0.00    +0.201 C 
ATOM      8  O   LIG    1       24.284 -13.655   1.813  0.00  0.00    -0.357 OA
ATOM      9  C   LIG    1       26.797 -14.511   2.857  0.00  0.00    +0.102 C 
ATOM     10  C   LIG    1       25.775 -15.656   3.070  0.00  0.00    +0.187 C 
ATOM     11  C   LIG    1       24.627 -15.369   4.073  0.00  0.00    +0.102 C 
ATOM     12  C   LIG    1       24.372 -13.874   4.342  0.00  0.00    +0.102 C 
ENDBRANCH   1  10
BRANCH   1  13
ATOM     13  C   LIG    1       26.010 -18.051   3.324  0.00  0.00    +0.317 C 
ATOM     14  O   LIG    1       25.718 -18.511   2.217  0.00  0.00    -0.250 OA
BRANCH  13  15
ATOM     15  C   LIG    1       25.845 -18.776   4.648  0.00  0.00    +0.153 C 
BRANCH  15  16
ATOM     16  C   LIG    1       24.507 -19.508   4.750  0.00  0.00    -0.032 A 
ATOM     17  C   LIG    1       24.459 -20.843   5.189  0.00  0.00    +0.004 A 
ATOM     18  C   LIG    1       23.235 -21.507   5.336  0.00  0.00    +0.000 A 
ATOM     19  C   LIG    1       22.042 -20.861   5.024  0.00  0.00    +0.000 A 
ATOM     20  C   LIG    1       22.071 -19.555   4.553  0.00  0.00    +0.000 A 
ATOM     21  C   LIG    1       23.289 -18.883   4.428  0.00  0.00    +0.004 A 
ENDBRANCH  15  16
BRANCH  15  22
ATOM     22  C   LIG    1       27.058 -19.701   4.846  0.00  0.00    +0.175 C 
BRANCH  22  23
ATOM     23  O   LIG    1       28.272 -18.960   4.949  0.00  0.00    -0.394 OA
ATOM     24  H   LIG    1       28.068 -18.181   5.501  0.00  0.00    +0.209 HD
ENDBRANCH  22  23
ENDBRANCH  15  22
ENDBRANCH  13  15
ENDBRANCH   1  13
TORSDOF 6
ENDMDL
MODEL 3
REMARK VINA RESULT:      -3.8      1.718      2.732
REMARK  Name = *****
REMARK                            x       y       z     vdW  Elec       q    Type
REMARK                         _______ _______ _______ _____ _____    ______ ____
ROOT
ATOM      1  O   LIG    1       24.360 -16.650   3.666  0.00  0.00    -0.461 OA
ENDROOT
BRANCH   1  10
ATOM      2  C   LIG    1       24.154 -13.517   1.812  0.00  0.00    +0.193 C 
ATOM      3  N   LIG    1       25.262 -12.986   2.709  0.00  0.00    +0.247 N 
ATOM      4  C   LIG    1       25.505 -11.534   2.269  0.00  0.00    +0.193 C 
ATOM      5  C   LIG    1       24.989 -13.040   4.236  0.00  0.00    +0.102 C 
ATOM      6  C   LIG    1       26.335 -12.779   4.889  0.00  0.00    +0.201 C 
ATOM      7  C   LIG    1       27.369 -13.261   3.904  0.00  0.00    +0.201 C 
ATOM      8  O   LIG    1       27.190 -13.883   5.174  0.00  0.00    -0.357 OA
ATOM      9  C   LIG    1       24.454 -14.432   4.582  0.00  0.00    +0.102 C 
ATOM     10  C   LIG    1       25.306 -15.611   4.048  0.00  0.00    +0.187 C 
ATOM     11  C   LIG    1       26.257 -15.286   2.867  0.00  0.00    +0.102 C 
ATOM     12  C   LIG    1       26.590 -13.791   2.708  0.00  0.00    +0.102 C 
ENDBRANCH   1  10
BRANCH   1  13
ATOM     13  C   LIG    1       24.836 -17.912   3.463  0.00  0.00    +0.317 C 
ATOM     14  O   LIG    1       26.012 -18.155   3.177  0.00  0.00    -0.250 OA
BRANCH  13  15
ATOM     15  C   LIG    1       23.746 -18.950   3.657  0.00  0.00    +0.153 C 
BRANCH  15  16
ATOM     16  C   LIG    1       24.003 -19.848   4.868  0.00  0.00    -0.032 A 
ATOM     17  C   LIG    1       22.928 -20.367   5.609  0.00  0.00    +0.004 A 
ATOM     18  C   LIG    1       23.150 -21.232   6.689  0.00  0.00    +0.000 A 
ATOM     19  C   LIG    1       24.447 -21.572   7.062  0.00  0.00    +0.000 A 
ATOM     20  C   LIG    1       25.524 -21.039   6.366  0.00  0.00    +0.000 A 
ATOM     21  C   LIG    1       25.304 -20.196   5.275  0.00  0.00    +0.004 A 
ENDBRANCH  15  16
BRANCH  15  22
ATOM     22  C   LIG    1       22.392 -18.224   3.719  0.00  0.00    +0.175 C 
BRANCH  22  23
ATOM     23  O   LIG    1       22.206 -17.567   4.971  0.00  0.00    -0.394 OA
ATOM     24  H   LIG    1       22.278 -18.262   5.654  0.00  0.00    +0.209 HD
ENDBRANCH  22  23
ENDBRANCH  15  22
ENDBRANCH  13  15
ENDBRANCH   1  13
TORSDOF 6
ENDMDL
MODEL 4
REMARK VINA RESULT:      -3.8      1.213      2.257
REMARK  Name = *****
REMARK                            x       y       z     vdW  Elec       q    Type
REMARK                         _______ _______ _______ _____ _____    ______ ____
ROOT
ATOM      1  O   LIG    1       25.756 -17.013   3.002  0.00  0.00    -0.461 OA
ENDROOT
BRANCH   1  10
ATOM      2  C   LIG    1       24.508 -13.801   1.813  0.00  0.00    +0.193 C 
ATOM      3  N   LIG    1       25.265 -13.152   2.961  0.00  0.00    +0.247 N 
ATOM      4  C   LIG    1       24.969 -11.648   2.868  0.00  0.00    +0.193 C 
ATOM      5  C   LIG    1       24.927 -13.673   4.383  0.00  0.00    +0.102 C 
ATOM      6  C   LIG    1       26.025 -13.124   5.278  0.00  0.00    +0.201 C 
ATOM      7  C   LIG    1       27.230 -12.951   4.390  0.00  0.00    +0.201 C 
ATOM      8  O   LIG    1       27.213 -13.889   5.464  0.00  0.00    -0.357 OA
ATOM      9  C   LIG    1       24.938 -15.204   4.352  0.00  0.00    +0.102 C 
ATOM     10  C   LIG    1       26.209 -15.836   3.730  0.00  0.00    +0.187 C 
ATOM     11  C   LIG    1       27.045 -14.916   2.803  0.00  0.00    +0.102 C 
ATOM     12  C   LIG    1       26.797 -13.410   3.004  0.00  0.00    +0.102 C 
ENDBRANCH   1  10
BRANCH   1  13
ATOM     13  C   LIG    1       24.806 -17.803   3.582  0.00  0.00    +0.317 C 
ATOM     14  O   LIG    1       23.769 -17.359   4.082  0.00  0.00    -0.250 OA
BRANCH  13  15
ATOM     15  C   LIG    1       25.187 -19.270   3.505  0.00  0.00    +0.153 C 
BRANCH  15  16
ATOM     16  C   LIG    1       26.004 -19.726   4.715  0.00  0.00    -0.032 A 
ATOM     17  C   LIG    1       27.371 -19.415   4.807  0.00  0.00    +0.004 A 
ATOM     18  C   LIG    1       28.117 -19.782   5.935  0.00  0.00    +0.000 A 
ATOM     19  C   LIG    1       27.518 -20.487   6.976  0.00  0.00    +0.000 A 
ATOM     20  C   LIG    1       26.177 -20.837   6.885  0.00  0.00    +0.000 A 
ATOM     21  C   LIG    1       25.426 -20.451   5.773  0.00  0.00    +0.004 A 
ENDBRANCH  15  16
BRANCH  15  22
ATOM     22  C   LIG    1       23.904 -20.092   3.297  0.00  0.00    +0.175 C 
BRANCH  22  23
ATOM     23  O   LIG    1       24.186 -21.374   2.740  0.00  0.00    -0.394 OA
ATOM     24  H   LIG    1       23.330 -21.841   2.690  0.00  0.00    +0.209 HD
ENDBRANCH  22  23
ENDBRANCH  15  22
ENDBRANCH  13  15
ENDBRANCH   1  13
TORSDOF 6
ENDMDL
MODEL 5
REMARK VINA RESULT:      -3.6      1.628      1.969
REMARK  Name = *****
REMARK                            x       y       z     vdW  Elec       q    Type
REMARK                         _______ _______ _______ _____ _____    ______ ____
ROOT
ATOM      1  O   LIG    1       24.143 -16.549   4.051  0.00  0.00    -0.461 OA
ENDROOT
BRANCH   1  10
ATOM      2  C   LIG    1       27.482 -15.125   4.390  0.00  0.00    +0.193 C 
ATOM      3  N   LIG    1       26.910 -13.818   3.862  0.00  0.00    +0.247 N 
ATOM      4  C   LIG    1       28.089 -12.835   3.795  0.00  0.00    +0.193 C 
ATOM      5  C   LIG    1       26.199 -13.890   2.485  0.00  0.00    +0.102 C 
ATOM      6  C   LIG    1       25.450 -12.575   2.356  0.00  0.00    +0.201 C 
ATOM      7  C   LIG    1       25.151 -12.133   3.766  0.00  0.00    +0.201 C 
ATOM      8  O   LIG    1       24.116 -12.487   2.850  0.00  0.00    -0.357 OA
ATOM      9  C   LIG    1       25.242 -15.085   2.497  0.00  0.00    +0.102 C 
ATOM     10  C   LIG    1       24.280 -15.140   3.711  0.00  0.00    +0.187 C 
ATOM     11  C   LIG    1       24.708 -14.323   4.958  0.00  0.00    +0.102 C 
ATOM     12  C   LIG    1       25.732 -13.209   4.672  0.00  0.00    +0.102 C 
ENDBRANCH   1  10
BRANCH   1  13
ATOM     13  C   LIG    1       22.906 -17.011   4.395  0.00  0.00    +0.317 C 
ATOM     14  O   LIG    1       22.063 -16.322   4.977  0.00  0.00    -0.250 OA
BRANCH  13  15
ATOM     15  C   LIG    1       22.712 -18.449   3.953  0.00  0.00    +0.153 C 
BRANCH  15  16
ATOM     16  C   LIG    1       23.549 -19.431   4.773  0.00  0.00    -0.032 A 
ATOM     17  C   LIG    1       23.005 -20.052   5.910  0.00  0.00    +0.004 A 
ATOM     18  C   LIG    1       23.745 -20.993   6.639  0.00  0.00    +0.000 A 
ATOM     19  C   LIG    1       25.047 -21.308   6.261  0.00  0.00    +0.000 A 
ATOM     20  C   LIG    1       25.616 -20.677   5.163  0.00  0.00    +0.000 A 
ATOM     21  C   LIG    1       24.872 -19.757   4.421  0.00  0.00    +0.004 A 
ENDBRANCH  15  16
BRANCH  15  22
ATOM     22  C   LIG    1       21.207 -18.766   3.983  0.00  0.00    +0.175 C 
BRANCH  22  23
ATOM     23  O   LIG    1       20.501 -18.060   2.965  0.00  0.00    -0.394 OA
ATOM     24  H   LIG    1       20.783 -17.128   3.038  0.00  0.00    +0.209 HD
ENDBRANCH  22  23
ENDBRANCH  15  22
ENDBRANCH  13  15
ENDBRANCH   1  13
TORSDOF 6
ENDMDL
MODEL 6
REMARK VINA RESULT:      -3.1      1.740      3.271
REMARK  Name = *****
REMARK                            x       y       z     vdW  Elec       q    Type
REMARK                         _______ _______ _______ _____ _____    ______ ____
ROOT
ATOM      1  O   LIG    1       24.959 -16.944   3.368  0.00  0.00    -0.461 OA
ENDROOT
BRANCH   1  10
ATOM      2  C   LIG    1       24.404 -13.694   1.812  0.00  0.00    +0.193 C 
ATOM      3  N   LIG    1       25.349 -13.106   2.849  0.00  0.00    +0.247 N 
ATOM      4  C   LIG    1       25.395 -11.595   2.572  0.00  0.00    +0.193 C 
ATOM      5  C   LIG    1       24.980 -13.363   4.334  0.00  0.00    +0.102 C 
ATOM      6  C   LIG    1       26.220 -12.980   5.122  0.00  0.00    +0.201 C 
ATOM      7  C   LIG    1       27.384 -13.196   4.189  0.00  0.00    +0.201 C 
ATOM      8  O   LIG    1       27.213 -13.971   5.374  0.00  0.00    -0.357 OA
ATOM      9  C   LIG    1       24.644 -14.849   4.498  0.00  0.00    +0.102 C 
ATOM     10  C   LIG    1       25.704 -15.825   3.929  0.00  0.00    +0.187 C 
ATOM     11  C   LIG    1       26.675 -15.238   2.870  0.00  0.00    +0.102 C 
ATOM     12  C   LIG    1       26.783 -13.702   2.885  0.00  0.00    +0.102 C 
ENDBRANCH   1  10
BRANCH   1  13
ATOM     13  C   LIG    1       25.579 -18.157   3.294  0.00  0.00    +0.317 C 
ATOM     14  O   LIG    1       26.068 -18.606   2.253  0.00  0.00    -0.250 OA
BRANCH  13  15
ATOM     15  C   LIG    1       25.602 -18.848   4.645  0.00  0.00    +0.153 C 
BRANCH  15  16
ATOM     16  C   LIG    1       24.335 -19.665   4.904  0.00  0.00    -0.032 A 
ATOM     17  C   LIG    1       23.129 -19.329   4.264  0.00  0.00    +0.004 A 
ATOM     18  C   LIG    1       21.975 -20.100   4.454  0.00  0.00    +0.000 A 
ATOM     19  C   LIG    1       21.999 -21.203   5.304  0.00  0.00    +0.000 A 
ATOM     20  C   LIG    1       23.170 -21.528   5.975  0.00  0.00    +0.000 A 
ATOM     21  C   LIG    1       24.327 -20.774   5.769  0.00  0.00    +0.004 A 
ENDBRANCH  15  16
BRANCH  15  22
ATOM     22  C   LIG    1       26.889 -19.684   4.739  0.00  0.00    +0.175 C 
BRANCH  22  23
ATOM     23  O   LIG    1       28.051 -18.858   4.764  0.00  0.00    -0.394 OA
ATOM     24  H   LIG    1       27.753 -17.965   4.503  0.00  0.00    +0.209 HD
ENDBRANCH  22  23
ENDBRANCH  15  22
ENDBRANCH  13  15
ENDBRANCH   1  13
TORSDOF 6
ENDMDL
MODEL 7
REMARK VINA RESULT:      -2.4      1.967      3.506
REMARK  Name = *****
REMARK                            x       y       z     vdW  Elec       q    Type
REMARK                         _______ _______ _______ _____ _____    ______ ____
ROOT
ATOM      1  O   LIG    1       26.985 -17.238   4.019  0.00  0.00    -0.461 OA
ENDROOT
BRANCH   1  10
ATOM      2  C   LIG    1       24.198 -14.915   4.375  0.00  0.00    +0.193 C 
ATOM      3  N   LIG    1       25.176 -13.792   4.067  0.00  0.00    +0.247 N 
ATOM      4  C   LIG    1       24.367 -12.489   4.151  0.00  0.00    +0.193 C 
ATOM      5  C   LIG    1       26.424 -13.702   4.985  0.00  0.00    +0.102 C 
ATOM      6  C   LIG    1       27.370 -12.748   4.276  0.00  0.00    +0.201 C 
ATOM      7  C   LIG    1       27.047 -12.865   2.808  0.00  0.00    +0.201 C 
ATOM      8  O   LIG    1       28.306 -13.272   3.338  0.00  0.00    -0.357 OA
ATOM      9  C   LIG    1       27.030 -15.103   5.116  0.00  0.00    +0.102 C 
ATOM     10  C   LIG    1       27.281 -15.834   3.772  0.00  0.00    +0.187 C 
ATOM     11  C   LIG    1       26.473 -15.318   2.553  0.00  0.00    +0.102 C 
ATOM     12  C   LIG    1       25.924 -13.888   2.709  0.00  0.00    +0.102 C 
ENDBRANCH   1  10
BRANCH   1  13
ATOM     13  C   LIG    1       27.952 -18.008   4.596  0.00  0.00    +0.317 C 
ATOM     14  O   LIG    1       29.159 -17.834   4.408  0.00  0.00    -0.250 OA
BRANCH  13  15
ATOM     15  C   LIG    1       27.347 -19.069   5.498  0.00  0.00    +0.153 C 
BRANCH  15  16
ATOM     16  C   LIG    1       26.148 -19.768   4.855  0.00  0.00    -0.032 A 
ATOM     17  C   LIG    1       25.634 -20.951   5.412  0.00  0.00    +0.004 A 
ATOM     18  C   LIG    1       24.504 -21.572   4.862  0.00  0.00    +0.000 A 
ATOM     19  C   LIG    1       23.886 -21.036   3.735  0.00  0.00    +0.000 A 
ATOM     20  C   LIG    1       24.404 -19.889   3.148  0.00  0.00    +0.000 A 
ATOM     21  C   LIG    1       25.515 -19.256   3.709  0.00  0.00    +0.004 A 
ENDBRANCH  15  16
BRANCH  15  22
ATOM     22  C   LIG    1       28.463 -20.043   5.914  0.00  0.00    +0.175 C 
BRANCH  22  23
ATOM     23  O   LIG    1       29.427 -19.409   6.752  0.00  0.00    -0.394 OA
ATOM     24  H   LIG    1       30.112 -20.083   6.932  0.00  0.00    +0.209 HD
ENDBRANCH  22  23
ENDBRANCH  15  22
ENDBRANCH  13  15
ENDBRANCH   1  13
TORSDOF 6
ENDMDL
MODEL 8
REMARK VINA RESULT:      -2.3      1.572      2.279
REMARK  Name = *****
REMARK                            x       y       z     vdW  Elec       q    Type
REMARK                         _______ _______ _______ _____ _____    ______ ____
ROOT
ATOM      1  O   LIG    1       24.751 -16.983   3.763  0.00  0.00    -0.461 OA
ENDROOT
BRANCH   1  10
ATOM      2  C   LIG    1       23.674 -13.932   5.444  0.00  0.00    +0.193 C 
ATOM      3  N   LIG    1       24.574 -13.163   4.489  0.00  0.00    +0.247 N 
ATOM      4  C   LIG    1       24.454 -11.685   4.890  0.00  0.00    +0.193 C 
ATOM      5  C   LIG    1       26.067 -13.587   4.465  0.00  0.00    +0.102 C 
ATOM      6  C   LIG    1       26.648 -12.921   3.230  0.00  0.00    +0.201 C 
ATOM      7  C   LIG    1       25.499 -12.763   2.269  0.00  0.00    +0.201 C 
ATOM      8  O   LIG    1       26.607 -13.615   1.986  0.00  0.00    -0.357 OA
ATOM      9  C   LIG    1       26.133 -15.114   4.367  0.00  0.00    +0.102 C 
ATOM     10  C   LIG    1       25.279 -15.734   3.232  0.00  0.00    +0.187 C 
ATOM     11  C   LIG    1       24.127 -14.850   2.685  0.00  0.00    +0.102 C 
ATOM     12  C   LIG    1       24.282 -13.346   2.974  0.00  0.00    +0.102 C 
ENDBRANCH   1  10
BRANCH   1  13
ATOM     13  C   LIG    1       25.182 -18.152   3.206  0.00  0.00    +0.317 C 
ATOM     14  O   LIG    1       26.212 -18.243   2.534  0.00  0.00    -0.250 OA
BRANCH  13  15
ATOM     15  C   LIG    1       24.247 -19.299   3.543  0.00  0.00    +0.153 C 
BRANCH  15  16
ATOM     16  C   LIG    1       24.686 -20.062   4.794  0.00  0.00    -0.032 A 
ATOM     17  C   LIG    1       23.758 -20.827   5.521  0.00  0.00    +0.004 A 
ATOM     18  C   LIG    1       24.160 -21.572   6.638  0.00  0.00    +0.000 A 
ATOM     19  C   LIG    1       25.486 -21.544   7.062  0.00  0.00    +0.000 A 
ATOM     20  C   LIG    1       26.409 -20.764   6.378  0.00  0.00    +0.000 A 
ATOM     21  C   LIG    1       26.016 -20.041   5.251  0.00  0.00    +0.004 A 
ENDBRANCH  15  16
BRANCH  15  22
ATOM     22  C   LIG    1       22.817 -18.744   3.645  0.00  0.00    +0.175 C 
BRANCH  22  23
ATOM     23  O   LIG    1       22.488 -18.381   4.984  0.00  0.00    -0.394 OA
ATOM     24  H   LIG    1       23.219 -18.712   5.540  0.00  0.00    +0.209 HD
ENDBRANCH  22  23
ENDBRANCH  15  22
ENDBRANCH  13  15
ENDBRANCH   1  13
TORSDOF 6
ENDMDL
MODEL 9
REMARK VINA RESULT:      -2.2      2.203      6.887
REMARK  Name = *****
REMARK                            x       y       z     vdW  Elec       q    Type
REMARK                         _______ _______ _______ _____ _____    ______ ____
ROOT
ATOM      1  O   LIG    1       24.038 -17.108   3.838  0.00  0.00    -0.461 OA
ENDROOT
BRANCH   1  10
ATOM      2  C   LIG    1       23.095 -19.129   6.721  0.00  0.00    +0.193 C 
ATOM      3  N   LIG    1       23.387 -20.360   5.875  0.00  0.00    +0.247 N 
ATOM      4  C   LIG    1       23.061 -21.571   6.762  0.00  0.00    +0.193 C 
ATOM      5  C   LIG    1       22.619 -20.463   4.531  0.00  0.00    +0.102 C 
ATOM      6  C   LIG    1       23.322 -21.564   3.757  0.00  0.00    +0.201 C 
ATOM      7  C   LIG    1       24.745 -21.572   4.253  0.00  0.00    +0.201 C 
ATOM      8  O   LIG    1       24.417 -21.223   2.910  0.00  0.00    -0.357 OA
ATOM      9  C   LIG    1       22.720 -19.114   3.812  0.00  0.00    +0.102 C 
ATOM     10  C   LIG    1       24.157 -18.550   3.680  0.00  0.00    +0.187 C 
ATOM     11  C   LIG    1       25.207 -19.117   4.672  0.00  0.00    +0.102 C 
ATOM     12  C   LIG    1       24.826 -20.470   5.301  0.00  0.00    +0.102 C 
ENDBRANCH   1  10
BRANCH   1  13
ATOM     13  C   LIG    1       25.154 -16.345   3.650  0.00  0.00    +0.317 C 
ATOM     14  O   LIG    1       26.184 -16.770   3.119  0.00  0.00    -0.250 OA
BRANCH  13  15
ATOM     15  C   LIG    1       24.945 -14.929   4.154  0.00  0.00    +0.153 C 
BRANCH  15  16
ATOM     16  C   LIG    1       26.237 -14.111   4.151  0.00  0.00    -0.032 A 
ATOM     17  C   LIG    1       26.830 -13.715   5.362  0.00  0.00    +0.004 A 
ATOM     18  C   LIG    1       28.041 -13.011   5.373  0.00  0.00    +0.000 A 
ATOM     19  C   LIG    1       28.665 -12.667   4.176  0.00  0.00    +0.000 A 
ATOM     20  C   LIG    1       28.075 -13.016   2.969  0.00  0.00    +0.000 A 
ATOM     21  C   LIG    1       26.880 -13.739   2.957  0.00  0.00    +0.004 A 
ENDBRANCH  15  16
BRANCH  15  22
ATOM     22  C   LIG    1       23.819 -14.283   3.328  0.00  0.00    +0.175 C 
BRANCH  22  23
ATOM     23  O   LIG    1       23.967 -12.867   3.255  0.00  0.00    -0.394 OA
ATOM     24  H   LIG    1       23.242 -12.549   2.682  0.00  0.00    +0.209 HD
ENDBRANCH  22  23
ENDBRANCH  15  22
ENDBRANCH  13  15
ENDBRANCH   1  13
TORSDOF 6
ENDMDL
