MODEL 1
REMARK VINA RESULT:      -5.1      0.000      0.000
REMARK  Name = *****
REMARK                            x       y       z     vdW  Elec       q    Type
REMARK                         _______ _______ _______ _____ _____    ______ ____
ROOT
ATOM      1  C   LIG    1       28.153 -19.725   6.049  0.00  0.00    +0.123 C 
ATOM      2  N   LIG    1       27.507 -19.420   4.970  0.00  0.00    -0.178 NA
ATOM      3  C   LIG    1       26.274 -19.977   4.726  0.00  0.00    +0.352 C 
ATOM      4  O   LIG    1       25.620 -19.637   3.744  0.00  0.00    -0.244 OA
ATOM      5  N   LIG    1       25.783 -20.937   5.624  0.00  0.00    -0.273 N 
ATOM      6  C   LIG    1       26.466 -21.234   6.783  0.00  0.00    +0.096 C 
ATOM      7  C   LIG    1       27.637 -20.665   7.061  0.00  0.00    +0.061 C 
ENDROOT
BRANCH   5   8
ATOM      8  C   LIG    1       24.458 -21.487   5.336  0.00  0.00    +0.224 C 
ATOM      9  O   LIG    1       23.766 -20.670   4.365  0.00  0.00    -0.351 OA
ATOM     10  C   LIG    1       22.569 -20.140   4.971  0.00  0.00    +0.146 C 
ATOM     11  C   LIG    1       22.730 -20.302   6.467  0.00  0.00    +0.038 C 
ATOM     12  C   LIG    1       23.538 -21.571   6.555  0.00  0.00    +0.057 C 
BRANCH  10  13
ATOM     13  C   LIG    1       22.390 -18.686   4.544  0.00  0.00    +0.187 C 
BRANCH  13  14
ATOM     14  O   LIG    1       23.192 -18.416   3.395  0.00  0.00    -0.393 OA
ATOM     15  H   LIG    1       23.981 -18.986   3.483  0.00  0.00    +0.209 HD
ENDBRANCH  13  14
ENDBRANCH  10  13
ENDBRANCH   5   8
BRANCH   1  16
ATOM     16  N   LIG    1       29.368 -19.126   6.240  0.00  0.00    -0.343 N 
ATOM     17  H   LIG    1       29.460 -18.275   5.693  0.00  0.00    +0.144 HD
ATOM     18  H   LIG    1       29.685 -19.022   7.195  0.00  0.00    +0.144 HD
ENDBRANCH   1  16
TORSDOF 4
ENDMDL
MODEL 2
REMARK VINA RESULT:      -4.9      1.547      1.994
REMARK  Name = *****
REMARK                            x       y       z     vdW  Elec       q    Type
REMARK                         _______ _______ _______ _____ _____    ______ ____
ROOT
ATOM      1  C   LIG    1       28.006 -18.756   4.937  0.00  0.00    +0.123 C 
ATOM      2  N   LIG    1       28.178 -19.617   5.888  0.00  0.00    -0.178 NA
ATOM      3  C   LIG    1       27.216 -20.569   6.137  0.00  0.00    +0.352 C 
ATOM      4  O   LIG    1       27.403 -21.436   6.985  0.00  0.00    -0.244 OA
ATOM      5  N   LIG    1       26.024 -20.525   5.399  0.00  0.00    -0.273 N 
ATOM      6  C   LIG    1       25.862 -19.621   4.372  0.00  0.00    +0.096 C 
ATOM      7  C   LIG    1       26.805 -18.726   4.082  0.00  0.00    +0.061 C 
ENDROOT
BRANCH   5   8
ATOM      8  C   LIG    1       25.039 -21.568   5.682  0.00  0.00    +0.224 C 
ATOM      9  O   LIG    1       23.958 -21.523   4.723  0.00  0.00    -0.351 OA
ATOM     10  C   LIG    1       22.727 -21.244   5.423  0.00  0.00    +0.146 C 
ATOM     11  C   LIG    1       23.112 -20.708   6.784  0.00  0.00    +0.038 C 
ATOM     12  C   LIG    1       24.389 -21.458   7.062  0.00  0.00    +0.057 C 
BRANCH  10  13
ATOM     13  C   LIG    1       21.896 -20.259   4.605  0.00  0.00    +0.187 C 
BRANCH  13  14
ATOM     14  O   LIG    1       22.450 -18.949   4.716  0.00  0.00    -0.393 OA
ATOM     15  H   LIG    1       21.689 -18.336   4.685  0.00  0.00    +0.209 HD
ENDBRANCH  13  14
ENDBRANCH  10  13
ENDBRANCH   5   8
BRANCH   1  16
ATOM     16  N   LIG    1       29.005 -17.846   4.731  0.00  0.00    -0.343 N 
ATOM     17  H   LIG    1       28.724 -17.114   4.086  0.00  0.00    +0.144 HD
ATOM     18  H   LIG    1       29.482 -17.492   5.551  0.00  0.00    +0.144 HD
ENDBRANCH   1  16
TORSDOF 4
ENDMDL
MODEL 3
REMARK VINA RESULT:      -4.0      2.040      2.844
REMARK  Name = *****
REMARK                            x       y       z     vdW  Elec       q    Type
REMARK                         _______ _______ _______ _____ _____    ______ ____
ROOT
ATOM      1  C   LIG    1       27.031 -17.117   3.788  0.00  0.00    +0.123 C 
ATOM      2  N   LIG    1       27.814 -17.831   4.533  0.00  0.00    -0.178 NA
ATOM      3  C   LIG    1       27.429 -19.092   4.925  0.00  0.00    +0.352 C 
ATOM      4  O   LIG    1       28.194 -19.805   5.567  0.00  0.00    -0.244 OA
ATOM      5  N   LIG    1       26.147 -19.540   4.574  0.00  0.00    -0.273 N 
ATOM      6  C   LIG    1       25.333 -18.784   3.760  0.00  0.00    +0.096 C 
ATOM      7  C   LIG    1       25.711 -17.583   3.326  0.00  0.00    +0.061 C 
ENDROOT
BRANCH   5   8
ATOM      8  C   LIG    1       25.788 -20.894   4.995  0.00  0.00    +0.224 C 
ATOM      9  O   LIG    1       24.525 -21.291   4.414  0.00  0.00    -0.351 OA
ATOM     10  C   LIG    1       23.581 -21.537   5.478  0.00  0.00    +0.146 C 
ATOM     11  C   LIG    1       24.150 -20.893   6.723  0.00  0.00    +0.038 C 
ATOM     12  C   LIG    1       25.632 -21.060   6.507  0.00  0.00    +0.057 C 
BRANCH  10  13
ATOM     13  C   LIG    1       22.219 -20.974   5.083  0.00  0.00    +0.187 C 
BRANCH  13  14
ATOM     14  O   LIG    1       22.242 -19.549   5.161  0.00  0.00    -0.393 OA
ATOM     15  H   LIG    1       21.315 -19.276   5.302  0.00  0.00    +0.209 HD
ENDBRANCH  13  14
ENDBRANCH  10  13
ENDBRANCH   5   8
BRANCH   1  16
ATOM     16  N   LIG    1       27.479 -15.879   3.420  0.00  0.00    -0.343 N 
ATOM     17  H   LIG    1       27.348 -15.708   2.428  0.00  0.00    +0.144 HD
ATOM     18  H   LIG    1       27.199 -15.097   3.999  0.00  0.00    +0.144 HD
ENDBRANCH   1  16
TORSDOF 4
ENDMDL
MODEL 4
REMARK VINA RESULT:      -3.9      3.241      4.560
REMARK  Name = *****
REMARK                            x       y       z     vdW  Elec       q    Type
REMARK                         _______ _______ _______ _____ _____    ______ ____
ROOT
ATOM      1  C   LIG    1       24.194 -14.815   4.142  0.00  0.00    +0.123 C 
ATOM      2  N   LIG    1       25.341 -15.224   3.703  0.00  0.00    -0.178 NA
ATOM      3  C   LIG    1       25.541 -16.560   3.442  0.00  0.00    +0.352 C 
ATOM      4  O   LIG    1       26.598 -16.948   2.954  0.00  0.00    -0.244 OA
ATOM      5  N   LIG    1       24.511 -17.463   3.744  0.00  0.00    -0.273 N 
ATOM      6  C   LIG    1       23.285 -17.013   4.186  0.00  0.00    +0.096 C 
ATOM      7  C   LIG    1       23.056 -15.718   4.394  0.00  0.00    +0.061 C 
ENDROOT
BRANCH   5   8
ATOM      8  C   LIG    1       24.759 -18.870   3.431  0.00  0.00    +0.224 C 
ATOM      9  O   LIG    1       23.544 -19.643   3.557  0.00  0.00    -0.351 OA
ATOM     10  C   LIG    1       23.728 -20.635   4.588  0.00  0.00    +0.146 C 
ATOM     11  C   LIG    1       24.937 -20.208   5.393  0.00  0.00    +0.038 C 
ATOM     12  C   LIG    1       25.787 -19.542   4.342  0.00  0.00    +0.057 C 
BRANCH  10  13
ATOM     13  C   LIG    1       22.457 -20.733   5.426  0.00  0.00    +0.187 C 
BRANCH  13  14
ATOM     14  O   LIG    1       21.507 -21.572   4.769  0.00  0.00    -0.393 OA
ATOM     15  H   LIG    1       21.855 -22.481   4.851  0.00  0.00    +0.209 HD
ENDBRANCH  13  14
ENDBRANCH  10  13
ENDBRANCH   5   8
BRANCH   1  16
ATOM     16  N   LIG    1       24.056 -13.474   4.367  0.00  0.00    -0.343 N 
ATOM     17  H   LIG    1       23.556 -13.012   3.613  0.00  0.00    +0.144 HD
ATOM     18  H   LIG    1       23.738 -13.191   5.286  0.00  0.00    +0.144 HD
ENDBRANCH   1  16
TORSDOF 4
ENDMDL
MODEL 5
REMARK VINA RESULT:      -3.5      5.401      7.150
REMARK  Name = *****
REMARK                            x       y       z     vdW  Elec       q    Type
REMARK                         _______ _______ _______ _____ _____    ______ ____
ROOT
ATOM      1  C   LIG    1       23.131 -16.669   4.340  0.00  0.00    +0.123 C 
ATOM      2  N   LIG    1       24.022 -17.484   3.874  0.00  0.00    -0.178 NA
ATOM      3  C   LIG    1       25.232 -17.000   3.434  0.00  0.00    +0.352 C 
ATOM      4  O   LIG    1       26.112 -17.770   3.061  0.00  0.00    -0.244 OA
ATOM      5  N   LIG    1       25.436 -15.612   3.424  0.00  0.00    -0.273 N 
ATOM      6  C   LIG    1       24.491 -14.756   3.947  0.00  0.00    +0.096 C 
ATOM      7  C   LIG    1       23.335 -15.211   4.426  0.00  0.00    +0.061 C 
ENDROOT
BRANCH   5   8
ATOM      8  C   LIG    1       26.745 -15.144   2.968  0.00  0.00    +0.224 C 
ATOM      9  O   LIG    1       27.609 -14.868   4.094  0.00  0.00    -0.351 OA
ATOM     10  C   LIG    1       27.958 -13.468   4.079  0.00  0.00    +0.146 C 
ATOM     11  C   LIG    1       26.971 -12.782   3.160  0.00  0.00    +0.038 C 
ATOM     12  C   LIG    1       26.697 -13.859   2.142  0.00  0.00    +0.057 C 
BRANCH  10  13
ATOM     13  C   LIG    1       27.925 -12.925   5.504  0.00  0.00    +0.187 C 
BRANCH  13  14
ATOM     14  O   LIG    1       28.925 -11.920   5.664  0.00  0.00    -0.393 OA
ATOM     15  H   LIG    1       28.465 -11.066   5.547  0.00  0.00    +0.209 HD
ENDBRANCH  13  14
ENDBRANCH  10  13
ENDBRANCH   5   8
BRANCH   1  16
ATOM     16  N   LIG    1       21.955 -17.213   4.774  0.00  0.00    -0.343 N 
ATOM     17  H   LIG    1       21.176 -16.572   4.663  0.00  0.00    +0.144 HD
ATOM     18  H   LIG    1       21.742 -18.154   4.468  0.00  0.00    +0.144 HD
ENDBRANCH   1  16
TORSDOF 4
ENDMDL
MODEL 6
REMARK VINA RESULT:      -3.4      5.014      6.621
REMARK  Name = *****
REMARK                            x       y       z     vdW  Elec       q    Type
REMARK                         _______ _______ _______ _____ _____    ______ ____
ROOT
ATOM      1  C   LIG    1       24.463 -18.431   3.770  0.00  0.00    +0.123 C 
ATOM      2  N   LIG    1       23.505 -17.646   4.149  0.00  0.00    -0.178 NA
ATOM      3  C   LIG    1       23.666 -16.282   4.080  0.00  0.00    +0.352 C 
ATOM      4  O   LIG    1       22.738 -15.530   4.364  0.00  0.00    -0.244 OA
ATOM      5  N   LIG    1       24.910 -15.773   3.677  0.00  0.00    -0.273 N 
ATOM      6  C   LIG    1       25.913 -16.617   3.251  0.00  0.00    +0.096 C 
ATOM      7  C   LIG    1       25.756 -17.939   3.261  0.00  0.00    +0.061 C 
ENDROOT
BRANCH   5   8
ATOM      8  C   LIG    1       25.029 -14.317   3.598  0.00  0.00    +0.224 C 
ATOM      9  O   LIG    1       26.234 -13.941   2.893  0.00  0.00    -0.351 OA
ATOM     10  C   LIG    1       27.083 -13.194   3.789  0.00  0.00    +0.146 C 
ATOM     11  C   LIG    1       26.576 -13.457   5.190  0.00  0.00    +0.038 C 
ATOM     12  C   LIG    1       25.096 -13.620   4.958  0.00  0.00    +0.057 C 
BRANCH  10  13
ATOM     13  C   LIG    1       28.532 -13.626   3.587  0.00  0.00    +0.187 C 
BRANCH  13  14
ATOM     14  O   LIG    1       29.405 -12.521   3.822  0.00  0.00    -0.393 OA
ATOM     15  H   LIG    1       29.380 -12.364   4.786  0.00  0.00    +0.209 HD
ENDBRANCH  13  14
ENDBRANCH  10  13
ENDBRANCH   5   8
BRANCH   1  16
ATOM     16  N   LIG    1       24.235 -19.776   3.850  0.00  0.00    -0.343 N 
ATOM     17  H   LIG    1       23.588 -20.007   4.598  0.00  0.00    +0.144 HD
ATOM     18  H   LIG    1       24.031 -20.261   2.985  0.00  0.00    +0.144 HD
ENDBRANCH   1  16
TORSDOF 4
ENDMDL
MODEL 7
REMARK VINA RESULT:      -3.4      1.477      2.140
REMARK  Name = *****
REMARK                            x       y       z     vdW  Elec       q    Type
REMARK                         _______ _______ _______ _____ _____    ______ ____
ROOT
ATOM      1  C   LIG    1       27.444 -20.377   6.413  0.00  0.00    +0.123 C 
ATOM      2  N   LIG    1       26.458 -20.911   7.062  0.00  0.00    -0.178 NA
ATOM      3  C   LIG    1       25.215 -20.992   6.478  0.00  0.00    +0.352 C 
ATOM      4  O   LIG    1       24.293 -21.564   7.053  0.00  0.00    -0.244 OA
ATOM      5  N   LIG    1       25.028 -20.411   5.215  0.00  0.00    -0.273 N 
ATOM      6  C   LIG    1       26.090 -19.869   4.523  0.00  0.00    +0.096 C 
ATOM      7  C   LIG    1       27.312 -19.829   5.051  0.00  0.00    +0.061 C 
ENDROOT
BRANCH   5   8
ATOM      8  C   LIG    1       23.696 -20.539   4.624  0.00  0.00    +0.224 C 
ATOM      9  O   LIG    1       23.462 -19.487   3.661  0.00  0.00    -0.351 OA
ATOM     10  C   LIG    1       22.346 -18.689   4.107  0.00  0.00    +0.146 C 
ATOM     11  C   LIG    1       22.142 -19.005   5.573  0.00  0.00    +0.038 C 
ATOM     12  C   LIG    1       22.552 -20.454   5.635  0.00  0.00    +0.057 C 
BRANCH  10  13
ATOM     13  C   LIG    1       22.648 -17.215   3.851  0.00  0.00    +0.187 C 
BRANCH  13  14
ATOM     14  O   LIG    1       22.355 -16.450   5.020  0.00  0.00    -0.393 OA
ATOM     15  H   LIG    1       22.582 -17.025   5.777  0.00  0.00    +0.209 HD
ENDBRANCH  13  14
ENDBRANCH  10  13
ENDBRANCH   5   8
BRANCH   1  16
ATOM     16  N   LIG    1       28.657 -20.340   7.043  0.00  0.00    -0.343 N 
ATOM     17  H   LIG    1       28.970 -19.388   7.205  0.00  0.00    +0.144 HD
ATOM     18  H   LIG    1       28.776 -20.941   7.849  0.00  0.00    +0.144 HD
ENDBRANCH   1  16
TORSDOF 4
ENDMDL
MODEL 8
REMARK VINA RESULT:      -3.4      5.105      6.782
REMARK  Name = *****
REMARK                            x       y       z     vdW  Elec       q    Type
REMARK                         _______ _______ _______ _____ _____    ______ ____
ROOT
ATOM      1  C   LIG    1       23.236 -17.826   4.091  0.00  0.00    +0.123 C 
ATOM      2  N   LIG    1       24.441 -17.992   3.648  0.00  0.00    -0.178 NA
ATOM      3  C   LIG    1       25.278 -16.908   3.512  0.00  0.00    +0.352 C 
ATOM      4  O   LIG    1       26.446 -17.063   3.167  0.00  0.00    -0.244 OA
ATOM      5  N   LIG    1       24.767 -15.629   3.780  0.00  0.00    -0.273 N 
ATOM      6  C   LIG    1       23.492 -15.468   4.275  0.00  0.00    +0.096 C 
ATOM      7  C   LIG    1       22.685 -16.510   4.463  0.00  0.00    +0.061 C 
ENDROOT
BRANCH   5   8
ATOM      8  C   LIG    1       25.698 -14.509   3.643  0.00  0.00    +0.224 C 
ATOM      9  O   LIG    1       25.225 -13.359   4.379  0.00  0.00    -0.351 OA
ATOM     10  C   LIG    1       24.991 -12.278   3.452  0.00  0.00    +0.146 C 
ATOM     11  C   LIG    1       24.933 -12.893   2.071  0.00  0.00    +0.038 C 
ATOM     12  C   LIG    1       25.904 -14.039   2.202  0.00  0.00    +0.057 C 
BRANCH  10  13
ATOM     13  C   LIG    1       23.704 -11.554   3.838  0.00  0.00    +0.187 C 
BRANCH  13  14
ATOM     14  O   LIG    1       23.615 -11.447   5.258  0.00  0.00    -0.393 OA
ATOM     15  H   LIG    1       23.845 -10.521   5.469  0.00  0.00    +0.209 HD
ENDBRANCH  13  14
ENDBRANCH  10  13
ENDBRANCH   5   8
BRANCH   1  16
ATOM     16  N   LIG    1       22.459 -18.945   4.216  0.00  0.00    -0.343 N 
ATOM     17  H   LIG    1       23.017 -19.775   4.390  0.00  0.00    +0.144 HD
ATOM     18  H   LIG    1       21.648 -18.877   4.817  0.00  0.00    +0.144 HD
ENDBRANCH   1  16
TORSDOF 4
ENDMDL
MODEL 9
REMARK VINA RESULT:      -3.4      4.337      5.553
REMARK  Name = *****
REMARK                            x       y       z     vdW  Elec       q    Type
REMARK                         _______ _______ _______ _____ _____    ______ ____
ROOT
ATOM      1  C   LIG    1       27.574 -19.262   4.915  0.00  0.00    +0.123 C 
ATOM      2  N   LIG    1       26.405 -19.268   4.359  0.00  0.00    -0.178 NA
ATOM      3  C   LIG    1       25.938 -18.138   3.729  0.00  0.00    +0.352 C 
ATOM      4  O   LIG    1       24.865 -18.155   3.133  0.00  0.00    -0.244 OA
ATOM      5  N   LIG    1       26.715 -16.971   3.783  0.00  0.00    -0.273 N 
ATOM      6  C   LIG    1       27.969 -16.983   4.355  0.00  0.00    +0.096 C 
ATOM      7  C   LIG    1       28.460 -18.083   4.923  0.00  0.00    +0.061 C 
ENDROOT
BRANCH   5   8
ATOM      8  C   LIG    1       26.189 -15.800   3.082  0.00  0.00    +0.224 C 
ATOM      9  O   LIG    1       27.245 -14.850   2.811  0.00  0.00    -0.351 OA
ATOM     10  C   LIG    1       26.949 -13.617   3.498  0.00  0.00    +0.146 C 
ATOM     11  C   LIG    1       25.898 -13.939   4.538  0.00  0.00    +0.038 C 
ATOM     12  C   LIG    1       25.117 -15.034   3.860  0.00  0.00    +0.057 C 
BRANCH  10  13
ATOM     13  C   LIG    1       28.234 -13.055   4.100  0.00  0.00    +0.187 C 
BRANCH  13  14
ATOM     14  O   LIG    1       29.334 -13.328   3.234  0.00  0.00    -0.393 OA
ATOM     15  H   LIG    1       28.957 -13.799   2.466  0.00  0.00    +0.209 HD
ENDBRANCH  13  14
ENDBRANCH  10  13
ENDBRANCH   5   8
BRANCH   1  16
ATOM     16  N   LIG    1       27.986 -20.421   5.512  0.00  0.00    -0.343 N 
ATOM     17  H   LIG    1       27.302 -20.770   6.176  0.00  0.00    +0.144 HD
ATOM     18  H   LIG    1       28.358 -21.143   4.907  0.00  0.00    +0.144 HD
ENDBRANCH   1  16
TORSDOF 4
ENDMDL
