MODEL 1
REMARK VINA RESULT:      -4.3      0.000      0.000
REMARK  Name = *****
REMARK                            x       y       z     vdW  Elec       q    Type
REMARK                         _______ _______ _______ _____ _____    ______ ____
ROOT
ATOM      1  C   LIG    1       25.535 -20.816   5.292  0.00  0.00    +0.011 A 
ATOM      2  C   LIG    1       26.266 -19.716   4.812  0.00  0.00    +0.026 A 
ATOM      3 BR   LIG    1       25.714 -18.690   3.312  0.00  0.00    -0.050 Br
ATOM      4  C   LIG    1       27.477 -19.343   5.411  0.00  0.00    +0.016 A 
ATOM      5  C   LIG    1       27.990 -20.081   6.477  0.00  0.00    +0.001 A 
ATOM      6  C   LIG    1       27.312 -21.202   6.931  0.00  0.00    +0.001 A 
ATOM      7  C   LIG    1       26.100 -21.572   6.342  0.00  0.00    +0.010 A 
ENDROOT
BRANCH   1   8
ATOM      8  C   LIG    1       24.194 -21.249   4.738  0.00  0.00    +0.170 C 
BRANCH   8   9
ATOM      9  N   LIG    1       22.921 -20.870   5.554  0.00  0.00    +0.242 N 
ATOM     10  C   LIG    1       21.676 -21.558   5.012  0.00  0.00    +0.192 C 
ATOM     11  C   LIG    1       23.098 -21.299   7.014  0.00  0.00    +0.192 C 
BRANCH   9  13
ATOM     12  C   LIG    1       21.990 -18.797   4.346  0.00  0.00    +0.060 C 
ATOM     13  C   LIG    1       22.732 -19.336   5.560  0.00  0.00    +0.129 C 
ENDBRANCH   9  13
ENDBRANCH   8   9
ENDBRANCH   1   8
TORSDOF 3
ENDMDL
MODEL 2
REMARK VINA RESULT:      -3.5      1.564      2.254
REMARK  Name = *****
REMARK                            x       y       z     vdW  Elec       q    Type
REMARK                         _______ _______ _______ _____ _____    ______ ____
ROOT
ATOM      1  C   LIG    1       25.280 -20.268   4.557  0.00  0.00    +0.011 A 
ATOM      2  C   LIG    1       26.379 -20.311   5.432  0.00  0.00    +0.026 A 
ATOM      3 BR   LIG    1       26.520 -21.571   6.846  0.00  0.00    -0.050 Br
ATOM      4  C   LIG    1       27.423 -19.383   5.317  0.00  0.00    +0.016 A 
ATOM      5  C   LIG    1       27.370 -18.382   4.348  0.00  0.00    +0.001 A 
ATOM      6  C   LIG    1       26.269 -18.289   3.511  0.00  0.00    +0.001 A 
ATOM      7  C   LIG    1       25.230 -19.217   3.616  0.00  0.00    +0.010 A 
ENDROOT
BRANCH   1   8
ATOM      8  C   LIG    1       24.141 -21.266   4.579  0.00  0.00    +0.170 C 
BRANCH   8   9
ATOM      9  N   LIG    1       22.882 -20.902   5.424  0.00  0.00    +0.242 N 
ATOM     10  C   LIG    1       21.623 -21.558   4.874  0.00  0.00    +0.192 C 
ATOM     11  C   LIG    1       23.072 -21.382   6.866  0.00  0.00    +0.192 C 
BRANCH   9  13
ATOM     12  C   LIG    1       21.878 -18.790   4.348  0.00  0.00    +0.060 C 
ATOM     13  C   LIG    1       22.710 -19.366   5.484  0.00  0.00    +0.129 C 
ENDBRANCH   9  13
ENDBRANCH   8   9
ENDBRANCH   1   8
TORSDOF 3
ENDMDL
MODEL 3
REMARK VINA RESULT:      -2.1      6.055      7.209
REMARK  Name = *****
REMARK                            x       y       z     vdW  Elec       q    Type
REMARK                         _______ _______ _______ _____ _____    ______ ____
ROOT
ATOM      1  C   LIG    1       26.383 -14.439   3.107  0.00  0.00    +0.011 A 
ATOM      2  C   LIG    1       27.602 -14.488   3.804  0.00  0.00    +0.026 A 
ATOM      3 BR   LIG    1       28.688 -12.956   4.087  0.00  0.00    -0.050 Br
ATOM      4  C   LIG    1       28.096 -15.703   4.300  0.00  0.00    +0.016 A 
ATOM      5  C   LIG    1       27.395 -16.888   4.080  0.00  0.00    +0.001 A 
ATOM      6  C   LIG    1       26.219 -16.869   3.347  0.00  0.00    +0.001 A 
ATOM      7  C   LIG    1       25.718 -15.660   2.859  0.00  0.00    +0.010 A 
ENDROOT
BRANCH   1   8
ATOM      8  C   LIG    1       25.755 -13.163   2.588  0.00  0.00    +0.170 C 
BRANCH   8   9
ATOM      9  N   LIG    1       24.512 -12.611   3.351  0.00  0.00    +0.242 N 
ATOM     10  C   LIG    1       23.846 -11.469   2.596  0.00  0.00    +0.192 C 
ATOM     11  C   LIG    1       23.477 -13.727   3.525  0.00  0.00    +0.192 C 
BRANCH   9  13
ATOM     12  C   LIG    1       23.812 -11.447   5.537  0.00  0.00    +0.060 C 
ATOM     13  C   LIG    1       24.919 -12.156   4.771  0.00  0.00    +0.129 C 
ENDBRANCH   9  13
ENDBRANCH   8   9
ENDBRANCH   1   8
TORSDOF 3
ENDMDL
MODEL 4
REMARK VINA RESULT:      -2.1      4.037      5.513
REMARK  Name = *****
REMARK                            x       y       z     vdW  Elec       q    Type
REMARK                         _______ _______ _______ _____ _____    ______ ____
ROOT
ATOM      1  C   LIG    1       26.686 -17.536   3.768  0.00  0.00    +0.011 A 
ATOM      2  C   LIG    1       27.312 -18.484   4.595  0.00  0.00    +0.026 A 
ATOM      3 BR   LIG    1       29.057 -18.239   5.305  0.00  0.00    -0.050 Br
ATOM      4  C   LIG    1       26.676 -19.693   4.909  0.00  0.00    +0.016 A 
ATOM      5  C   LIG    1       25.420 -19.984   4.378  0.00  0.00    +0.001 A 
ATOM      6  C   LIG    1       24.810 -19.086   3.516  0.00  0.00    +0.001 A 
ATOM      7  C   LIG    1       25.437 -17.877   3.208  0.00  0.00    +0.010 A 
ENDROOT
BRANCH   1   8
ATOM      8  C   LIG    1       27.282 -16.186   3.427  0.00  0.00    +0.170 C 
BRANCH   8   9
ATOM      9  N   LIG    1       26.397 -14.926   3.675  0.00  0.00    +0.242 N 
ATOM     10  C   LIG    1       26.898 -14.107   4.856  0.00  0.00    +0.192 C 
ATOM     11  C   LIG    1       26.423 -14.027   2.434  0.00  0.00    +0.192 C 
BRANCH   9  13
ATOM     12  C   LIG    1       23.948 -14.179   3.931  0.00  0.00    +0.060 C 
ATOM     13  C   LIG    1       24.925 -15.345   3.891  0.00  0.00    +0.129 C 
ENDBRANCH   9  13
ENDBRANCH   8   9
ENDBRANCH   1   8
TORSDOF 3
ENDMDL
MODEL 5
REMARK VINA RESULT:      -2.0      4.272      5.561
REMARK  Name = *****
REMARK                            x       y       z     vdW  Elec       q    Type
REMARK                         _______ _______ _______ _____ _____    ______ ____
ROOT
ATOM      1  C   LIG    1       26.655 -17.494   3.787  0.00  0.00    +0.011 A 
ATOM      2  C   LIG    1       27.289 -18.464   4.583  0.00  0.00    +0.026 A 
ATOM      3 BR   LIG    1       29.032 -18.227   5.299  0.00  0.00    -0.050 Br
ATOM      4  C   LIG    1       26.663 -19.686   4.859  0.00  0.00    +0.016 A 
ATOM      5  C   LIG    1       25.408 -19.971   4.320  0.00  0.00    +0.001 A 
ATOM      6  C   LIG    1       24.790 -19.050   3.487  0.00  0.00    +0.001 A 
ATOM      7  C   LIG    1       25.408 -17.827   3.217  0.00  0.00    +0.010 A 
ENDROOT
BRANCH   1   8
ATOM      8  C   LIG    1       27.240 -16.129   3.488  0.00  0.00    +0.170 C 
BRANCH   8   9
ATOM      9  N   LIG    1       26.304 -14.894   3.654  0.00  0.00    +0.242 N 
ATOM     10  C   LIG    1       24.866 -15.306   3.933  0.00  0.00    +0.192 C 
ATOM     11  C   LIG    1       26.784 -14.038   4.831  0.00  0.00    +0.192 C 
BRANCH   9  13
ATOM     12  C   LIG    1       25.272 -12.957   2.310  0.00  0.00    +0.060 C 
ATOM     13  C   LIG    1       26.376 -14.001   2.394  0.00  0.00    +0.129 C 
ENDBRANCH   9  13
ENDBRANCH   8   9
ENDBRANCH   1   8
TORSDOF 3
ENDMDL
MODEL 6
REMARK VINA RESULT:      -1.9      2.226      4.851
REMARK  Name = *****
REMARK                            x       y       z     vdW  Elec       q    Type
REMARK                         _______ _______ _______ _____ _____    ______ ____
ROOT
ATOM      1  C   LIG    1       24.985 -19.699   4.462  0.00  0.00    +0.011 A 
ATOM      2  C   LIG    1       23.736 -19.973   5.045  0.00  0.00    +0.026 A 
ATOM      3 BR   LIG    1       23.377 -21.571   6.005  0.00  0.00    -0.050 Br
ATOM      4  C   LIG    1       22.669 -19.074   4.909  0.00  0.00    +0.016 A 
ATOM      5  C   LIG    1       22.825 -17.905   4.165  0.00  0.00    +0.001 A 
ATOM      6  C   LIG    1       24.033 -17.643   3.536  0.00  0.00    +0.001 A 
ATOM      7  C   LIG    1       25.101 -18.532   3.677  0.00  0.00    +0.010 A 
ENDROOT
BRANCH   1   8
ATOM      8  C   LIG    1       26.201 -20.589   4.608  0.00  0.00    +0.170 C 
BRANCH   8   9
ATOM      9  N   LIG    1       27.169 -20.298   5.796  0.00  0.00    +0.242 N 
ATOM     10  C   LIG    1       26.413 -19.922   7.062  0.00  0.00    +0.192 C 
ATOM     11  C   LIG    1       28.004 -21.547   6.098  0.00  0.00    +0.192 C 
BRANCH   9  13
ATOM     12  C   LIG    1       29.236 -18.914   6.453  0.00  0.00    +0.060 C 
ATOM     13  C   LIG    1       28.164 -19.180   5.407  0.00  0.00    +0.129 C 
ENDBRANCH   9  13
ENDBRANCH   8   9
ENDBRANCH   1   8
TORSDOF 3
ENDMDL
MODEL 7
REMARK VINA RESULT:      -1.9      2.906      4.318
REMARK  Name = *****
REMARK                            x       y       z     vdW  Elec       q    Type
REMARK                         _______ _______ _______ _____ _____    ______ ____
ROOT
ATOM      1  C   LIG    1       24.625 -17.726   3.671  0.00  0.00    +0.011 A 
ATOM      2  C   LIG    1       23.850 -16.638   4.105  0.00  0.00    +0.026 A 
ATOM      3 BR   LIG    1       22.015 -16.802   4.568  0.00  0.00    -0.050 Br
ATOM      4  C   LIG    1       24.400 -15.351   4.184  0.00  0.00    +0.016 A 
ATOM      5  C   LIG    1       25.722 -15.128   3.801  0.00  0.00    +0.001 A 
ATOM      6  C   LIG    1       26.487 -16.178   3.318  0.00  0.00    +0.001 A 
ATOM      7  C   LIG    1       25.945 -17.464   3.246  0.00  0.00    +0.010 A 
ENDROOT
BRANCH   1   8
ATOM      8  C   LIG    1       24.123 -19.154   3.611  0.00  0.00    +0.170 C 
BRANCH   8   9
ATOM      9  N   LIG    1       24.564 -20.121   4.751  0.00  0.00    +0.242 N 
ATOM     10  C   LIG    1       23.664 -20.004   5.972  0.00  0.00    +0.192 C 
ATOM     11  C   LIG    1       24.496 -21.569   4.253  0.00  0.00    +0.192 C 
BRANCH   9  13
ATOM     12  C   LIG    1       26.501 -20.599   6.377  0.00  0.00    +0.060 C 
ATOM     13  C   LIG    1       26.037 -19.851   5.135  0.00  0.00    +0.129 C 
ENDBRANCH   9  13
ENDBRANCH   8   9
ENDBRANCH   1   8
TORSDOF 3
ENDMDL
MODEL 8
REMARK VINA RESULT:      -1.9      2.369      4.350
REMARK  Name = *****
REMARK                            x       y       z     vdW  Elec       q    Type
REMARK                         _______ _______ _______ _____ _____    ______ ____
ROOT
ATOM      1  C   LIG    1       23.753 -17.669   3.915  0.00  0.00    +0.011 A 
ATOM      2  C   LIG    1       24.618 -16.563   3.847  0.00  0.00    +0.026 A 
ATOM      3 BR   LIG    1       26.415 -16.698   3.250  0.00  0.00    -0.050 Br
ATOM      4  C   LIG    1       24.191 -15.293   4.259  0.00  0.00    +0.016 A 
ATOM      5  C   LIG    1       22.907 -15.116   4.772  0.00  0.00    +0.001 A 
ATOM      6  C   LIG    1       22.057 -16.204   4.899  0.00  0.00    +0.001 A 
ATOM      7  C   LIG    1       22.475 -17.469   4.481  0.00  0.00    +0.010 A 
ENDROOT
BRANCH   1   8
ATOM      8  C   LIG    1       24.118 -19.060   3.439  0.00  0.00    +0.170 C 
BRANCH   8   9
ATOM      9  N   LIG    1       24.233 -20.181   4.515  0.00  0.00    +0.242 N 
ATOM     10  C   LIG    1       24.068 -21.567   3.908  0.00  0.00    +0.192 C 
ATOM     11  C   LIG    1       25.613 -20.119   5.179  0.00  0.00    +0.192 C 
BRANCH   9  13
ATOM     12  C   LIG    1       23.458 -20.747   6.904  0.00  0.00    +0.060 C 
ATOM     13  C   LIG    1       23.190 -19.952   5.634  0.00  0.00    +0.129 C 
ENDBRANCH   9  13
ENDBRANCH   8   9
ENDBRANCH   1   8
TORSDOF 3
ENDMDL
MODEL 9
REMARK VINA RESULT:      -1.8      5.275      6.577
REMARK  Name = *****
REMARK                            x       y       z     vdW  Elec       q    Type
REMARK                         _______ _______ _______ _____ _____    ______ ____
ROOT
ATOM      1  C   LIG    1       24.529 -15.801   3.860  0.00  0.00    +0.011 A 
ATOM      2  C   LIG    1       23.922 -17.063   3.968  0.00  0.00    +0.026 A 
ATOM      3 BR   LIG    1       22.128 -17.296   4.547  0.00  0.00    -0.050 Br
ATOM      4  C   LIG    1       24.641 -18.231   3.680  0.00  0.00    +0.016 A 
ATOM      5  C   LIG    1       25.984 -18.157   3.311  0.00  0.00    +0.001 A 
ATOM      6  C   LIG    1       26.616 -16.925   3.252  0.00  0.00    +0.001 A 
ATOM      7  C   LIG    1       25.901 -15.758   3.529  0.00  0.00    +0.010 A 
ENDROOT
BRANCH   1   8
ATOM      8  C   LIG    1       23.808 -14.491   4.099  0.00  0.00    +0.170 C 
BRANCH   8   9
ATOM      9  N   LIG    1       24.652 -13.182   4.035  0.00  0.00    +0.242 N 
ATOM     10  C   LIG    1       23.874 -11.981   4.553  0.00  0.00    +0.192 C 
ATOM     11  C   LIG    1       25.909 -13.336   4.897  0.00  0.00    +0.192 C 
BRANCH   9  13
ATOM     12  C   LIG    1       24.459 -11.750   1.905  0.00  0.00    +0.060 C 
ATOM     13  C   LIG    1       25.133 -12.932   2.587  0.00  0.00    +0.129 C 
ENDBRANCH   9  13
ENDBRANCH   8   9
ENDBRANCH   1   8
TORSDOF 3
ENDMDL
