MODEL 1
REMARK VINA RESULT:      -9.2      0.000      0.000
REMARK  Name = *****
REMARK                            x       y       z     vdW  Elec       q    Type
REMARK                         _______ _______ _______ _____ _____    ______ ____
ROOT
ATOM      1  C   LIG    1       24.591 -20.521   4.529  0.00  0.00    +0.036 C 
ATOM      2  C   LIG    1       25.967 -20.409   5.098  0.00  0.00    -0.021 C 
ATOM      3  C   LIG    1       26.474 -20.894   6.260  0.00  0.00    -0.015 C 
ENDROOT
BRANCH   3   4
ATOM      4  C   LIG    1       27.895 -20.507   6.476  0.00  0.00    -0.017 A 
ATOM      5  C   LIG    1       28.449 -19.379   5.857  0.00  0.00    +0.012 A 
ATOM      6  C   LIG    1       29.773 -19.011   6.118  0.00  0.00    +0.046 A 
ATOM      7  C   LIG    1       30.543 -19.770   6.994  0.00  0.00    +0.117 A 
ATOM      8  C   LIG    1       30.009 -20.888   7.624  0.00  0.00    +0.046 A 
ATOM      9  C   LIG    1       28.684 -21.253   7.367  0.00  0.00    +0.012 A 
BRANCH   7  10
ATOM     10  O   LIG    1       31.830 -19.377   7.215  0.00  0.00    -0.507 OA
ATOM     11  H   LIG    1       32.329 -20.133   7.567  0.00  0.00    +0.292 HD
ENDBRANCH   7  10
ENDBRANCH   3   4
BRANCH   3  12
ATOM     12  C   LIG    1       25.748 -21.730   7.227  0.00  0.00    -0.015 C 
ATOM     13  C   LIG    1       25.513 -21.404   8.523  0.00  0.00    -0.021 C 
ATOM     14  C   LIG    1       25.905 -20.175   9.277  0.00  0.00    +0.036 C 
BRANCH  12  15
ATOM     15  C   LIG    1       25.261 -23.090   6.862  0.00  0.00    -0.017 A 
ATOM     16  C   LIG    1       23.888 -23.360   6.783  0.00  0.00    +0.012 A 
ATOM     17  C   LIG    1       23.437 -24.640   6.444  0.00  0.00    +0.046 A 
ATOM     18  C   LIG    1       24.357 -25.651   6.185  0.00  0.00    +0.117 A 
ATOM     19  C   LIG    1       25.724 -25.410   6.283  0.00  0.00    +0.046 A 
ATOM     20  C   LIG    1       26.174 -24.130   6.623  0.00  0.00    +0.012 A 
BRANCH  18  21
ATOM     21  O   LIG    1       23.874 -26.877   5.834  0.00  0.00    -0.507 OA
ATOM     22  H   LIG    1       23.400 -26.793   4.990  0.00  0.00    +0.292 HD
ENDBRANCH  18  21
ENDBRANCH  12  15
ENDBRANCH   3  12
TORSDOF 5
ENDMDL
MODEL 2
REMARK VINA RESULT:      -9.2      0.095      6.510
REMARK  Name = *****
REMARK                            x       y       z     vdW  Elec       q    Type
REMARK                         _______ _______ _______ _____ _____    ______ ____
ROOT
ATOM      1  C   LIG    1       25.868 -20.212   9.327  0.00  0.00    +0.036 C 
ATOM      2  C   LIG    1       25.568 -21.446   8.540  0.00  0.00    -0.021 C 
ATOM      3  C   LIG    1       25.809 -21.729   7.235  0.00  0.00    -0.015 C 
ENDROOT
BRANCH   3   4
ATOM      4  C   LIG    1       25.298 -23.068   6.831  0.00  0.00    -0.017 A 
ATOM      5  C   LIG    1       26.169 -24.121   6.521  0.00  0.00    +0.012 A 
ATOM      6  C   LIG    1       25.660 -25.382   6.193  0.00  0.00    +0.046 A 
ATOM      7  C   LIG    1       24.285 -25.591   6.174  0.00  0.00    +0.117 A 
ATOM      8  C   LIG    1       23.405 -24.561   6.487  0.00  0.00    +0.046 A 
ATOM      9  C   LIG    1       23.913 -23.302   6.819  0.00  0.00    +0.012 A 
BRANCH   7  10
ATOM     10  O   LIG    1       23.833 -26.835   5.845  0.00  0.00    -0.507 OA
ATOM     11  H   LIG    1       24.576 -27.459   5.899  0.00  0.00    +0.292 HD
ENDBRANCH   7  10
ENDBRANCH   3   4
BRANCH   3  12
ATOM     12  C   LIG    1       26.508 -20.853   6.283  0.00  0.00    -0.015 C 
ATOM     13  C   LIG    1       25.991 -20.394   5.115  0.00  0.00    -0.021 C 
ATOM     14  C   LIG    1       24.646 -20.640   4.514  0.00  0.00    +0.036 C 
BRANCH  12  15
ATOM     15  C   LIG    1       27.924 -20.447   6.503  0.00  0.00    -0.017 A 
ATOM     16  C   LIG    1       28.733 -21.138   7.415  0.00  0.00    +0.012 A 
ATOM     17  C   LIG    1       30.061 -20.750   7.619  0.00  0.00    +0.046 A 
ATOM     18  C   LIG    1       30.581 -19.669   6.914  0.00  0.00    +0.117 A 
ATOM     19  C   LIG    1       29.788 -18.953   6.024  0.00  0.00    +0.046 A 
ATOM     20  C   LIG    1       28.460 -19.343   5.820  0.00  0.00    +0.012 A 
BRANCH  18  21
ATOM     21  O   LIG    1       31.888 -19.340   7.126  0.00  0.00    -0.507 OA
ATOM     22  H   LIG    1       32.019 -18.412   6.868  0.00  0.00    +0.292 HD
ENDBRANCH  18  21
ENDBRANCH  12  15
ENDBRANCH   3  12
TORSDOF 5
ENDMDL
MODEL 3
REMARK VINA RESULT:      -9.1      1.286      5.878
REMARK  Name = *****
REMARK                            x       y       z     vdW  Elec       q    Type
REMARK                         _______ _______ _______ _____ _____    ______ ____
ROOT
ATOM      1  C   LIG    1       24.168 -20.524   3.947  0.00  0.00    +0.036 C 
ATOM      2  C   LIG    1       24.466 -21.888   4.478  0.00  0.00    -0.021 C 
ATOM      3  C   LIG    1       25.096 -22.262   5.620  0.00  0.00    -0.015 C 
ENDROOT
BRANCH   3   4
ATOM      4  C   LIG    1       25.235 -23.739   5.745  0.00  0.00    -0.017 A 
ATOM      5  C   LIG    1       24.956 -24.595   4.671  0.00  0.00    +0.012 A 
ATOM      6  C   LIG    1       25.144 -25.974   4.802  0.00  0.00    +0.046 A 
ATOM      7  C   LIG    1       25.608 -26.499   6.004  0.00  0.00    +0.117 A 
ATOM      8  C   LIG    1       25.899 -25.666   7.079  0.00  0.00    +0.046 A 
ATOM      9  C   LIG    1       25.715 -24.287   6.947  0.00  0.00    +0.012 A 
BRANCH   7  10
ATOM     10  O   LIG    1       25.772 -27.850   6.089  0.00  0.00    -0.507 OA
ATOM     11  H   LIG    1       26.360 -28.137   5.371  0.00  0.00    +0.292 HD
ENDBRANCH   7  10
ENDBRANCH   3   4
BRANCH   3  12
ATOM     12  C   LIG    1       25.592 -21.352   6.662  0.00  0.00    -0.015 C 
ATOM     13  C   LIG    1       24.828 -20.756   7.612  0.00  0.00    -0.021 C 
ATOM     14  C   LIG    1       23.356 -20.858   7.844  0.00  0.00    +0.036 C 
BRANCH  12  15
ATOM     15  C   LIG    1       27.023 -20.938   6.710  0.00  0.00    -0.017 A 
ATOM     16  C   LIG    1       27.891 -21.475   7.670  0.00  0.00    +0.012 A 
ATOM     17  C   LIG    1       29.232 -21.079   7.712  0.00  0.00    +0.046 A 
ATOM     18  C   LIG    1       29.706 -20.145   6.797  0.00  0.00    +0.117 A 
ATOM     19  C   LIG    1       28.855 -19.580   5.852  0.00  0.00    +0.046 A 
ATOM     20  C   LIG    1       27.514 -19.977   5.811  0.00  0.00    +0.012 A 
BRANCH  18  21
ATOM     21  O   LIG    1       31.026 -19.807   6.858  0.00  0.00    -0.507 OA
ATOM     22  H   LIG    1       31.337 -19.610   5.958  0.00  0.00    +0.292 HD
ENDBRANCH  18  21
ENDBRANCH  12  15
ENDBRANCH   3  12
TORSDOF 5
ENDMDL
MODEL 4
REMARK VINA RESULT:      -9.0      2.691      6.032
REMARK  Name = *****
REMARK                            x       y       z     vdW  Elec       q    Type
REMARK                         _______ _______ _______ _____ _____    ______ ____
ROOT
ATOM      1  C   LIG    1       26.208 -20.446   9.264  0.00  0.00    +0.036 C 
ATOM      2  C   LIG    1       25.831 -21.669   8.494  0.00  0.00    -0.021 C 
ATOM      3  C   LIG    1       25.638 -21.837   7.162  0.00  0.00    -0.015 C 
ENDROOT
BRANCH   3   4
ATOM      4  C   LIG    1       25.215 -23.220   6.810  0.00  0.00    -0.017 A 
ATOM      5  C   LIG    1       26.149 -24.248   6.622  0.00  0.00    +0.012 A 
ATOM      6  C   LIG    1       25.718 -25.549   6.342  0.00  0.00    +0.046 A 
ATOM      7  C   LIG    1       24.358 -25.824   6.247  0.00  0.00    +0.117 A 
ATOM      8  C   LIG    1       23.415 -24.820   6.438  0.00  0.00    +0.046 A 
ATOM      9  C   LIG    1       23.844 -23.520   6.722  0.00  0.00    +0.012 A 
BRANCH   7  10
ATOM     10  O   LIG    1       23.984 -27.105   5.967  0.00  0.00    -0.507 OA
ATOM     11  H   LIG    1       24.606 -27.475   5.320  0.00  0.00    +0.292 HD
ENDBRANCH   7  10
ENDBRANCH   3   4
BRANCH   3  12
ATOM     12  C   LIG    1       25.828 -20.806   6.132  0.00  0.00    -0.015 C 
ATOM     13  C   LIG    1       27.024 -20.292   5.747  0.00  0.00    -0.021 C 
ATOM     14  C   LIG    1       28.397 -20.619   6.238  0.00  0.00    +0.036 C 
BRANCH  12  15
ATOM     15  C   LIG    1       24.666 -20.164   5.457  0.00  0.00    -0.017 A 
ATOM     16  C   LIG    1       23.398 -20.172   6.054  0.00  0.00    +0.012 A 
ATOM     17  C   LIG    1       22.309 -19.572   5.414  0.00  0.00    +0.046 A 
ATOM     18  C   LIG    1       22.486 -18.964   4.175  0.00  0.00    +0.117 A 
ATOM     19  C   LIG    1       23.730 -18.967   3.553  0.00  0.00    +0.046 A 
ATOM     20  C   LIG    1       24.818 -19.568   4.194  0.00  0.00    +0.012 A 
BRANCH  18  21
ATOM     21  O   LIG    1       21.403 -18.369   3.597  0.00  0.00    -0.507 OA
ATOM     22  H   LIG    1       21.137 -17.611   4.145  0.00  0.00    +0.292 HD
ENDBRANCH  18  21
ENDBRANCH  12  15
ENDBRANCH   3  12
TORSDOF 5
ENDMDL
MODEL 5
REMARK VINA RESULT:      -8.9      1.382      1.878
REMARK  Name = *****
REMARK                            x       y       z     vdW  Elec       q    Type
REMARK                         _______ _______ _______ _____ _____    ______ ____
ROOT
ATOM      1  C   LIG    1       24.317 -20.231   3.787  0.00  0.00    +0.036 C 
ATOM      2  C   LIG    1       25.537 -20.290   4.647  0.00  0.00    -0.021 C 
ATOM      3  C   LIG    1       25.806 -21.063   5.729  0.00  0.00    -0.015 C 
ENDROOT
BRANCH   3   4
ATOM      4  C   LIG    1       27.133 -20.767   6.334  0.00  0.00    -0.017 A 
ATOM      5  C   LIG    1       27.605 -21.474   7.448  0.00  0.00    +0.012 A 
ATOM      6  C   LIG    1       28.877 -21.208   7.964  0.00  0.00    +0.046 A 
ATOM      7  C   LIG    1       29.677 -20.236   7.371  0.00  0.00    +0.117 A 
ATOM      8  C   LIG    1       29.230 -19.529   6.260  0.00  0.00    +0.046 A 
ATOM      9  C   LIG    1       27.960 -19.798   5.741  0.00  0.00    +0.012 A 
BRANCH   7  10
ATOM     10  O   LIG    1       30.908 -20.006   7.910  0.00  0.00    -0.507 OA
ATOM     11  H   LIG    1       30.823 -19.327   8.599  0.00  0.00    +0.292 HD
ENDBRANCH   7  10
ENDBRANCH   3   4
BRANCH   3  12
ATOM     12  C   LIG    1       24.926 -22.106   6.276  0.00  0.00    -0.015 C 
ATOM     13  C   LIG    1       23.847 -21.885   7.069  0.00  0.00    -0.021 C 
ATOM     14  C   LIG    1       23.291 -20.593   7.572  0.00  0.00    +0.036 C 
BRANCH  12  15
ATOM     15  C   LIG    1       25.209 -23.552   6.053  0.00  0.00    -0.017 A 
ATOM     16  C   LIG    1       24.900 -24.161   4.830  0.00  0.00    +0.012 A 
ATOM     17  C   LIG    1       25.164 -25.519   4.628  0.00  0.00    +0.046 A 
ATOM     18  C   LIG    1       25.736 -26.271   5.649  0.00  0.00    +0.117 A 
ATOM     19  C   LIG    1       26.027 -25.692   6.880  0.00  0.00    +0.046 A 
ATOM     20  C   LIG    1       25.762 -24.333   7.081  0.00  0.00    +0.012 A 
BRANCH  18  21
ATOM     21  O   LIG    1       26.000 -27.586   5.401  0.00  0.00    -0.507 OA
ATOM     22  H   LIG    1       25.201 -27.998   5.032  0.00  0.00    +0.292 HD
ENDBRANCH  18  21
ENDBRANCH  12  15
ENDBRANCH   3  12
TORSDOF 5
ENDMDL
MODEL 6
REMARK VINA RESULT:      -8.9      1.299      2.577
REMARK  Name = *****
REMARK                            x       y       z     vdW  Elec       q    Type
REMARK                         _______ _______ _______ _____ _____    ______ ____
ROOT
ATOM      1  C   LIG    1       23.320 -20.899   7.801  0.00  0.00    +0.036 C 
ATOM      2  C   LIG    1       24.779 -20.731   7.531  0.00  0.00    -0.021 C 
ATOM      3  C   LIG    1       25.569 -21.325   6.602  0.00  0.00    -0.015 C 
ENDROOT
BRANCH   3   4
ATOM      4  C   LIG    1       26.996 -20.912   6.709  0.00  0.00    -0.017 A 
ATOM      5  C   LIG    1       27.852 -21.475   7.665  0.00  0.00    +0.012 A 
ATOM      6  C   LIG    1       29.200 -21.104   7.710  0.00  0.00    +0.046 A 
ATOM      7  C   LIG    1       29.692 -20.171   6.802  0.00  0.00    +0.117 A 
ATOM      8  C   LIG    1       28.861 -19.608   5.840  0.00  0.00    +0.046 A 
ATOM      9  C   LIG    1       27.515 -19.982   5.793  0.00  0.00    +0.012 A 
BRANCH   7  10
ATOM     10  O   LIG    1       31.011 -19.836   6.884  0.00  0.00    -0.507 OA
ATOM     11  H   LIG    1       31.079 -18.881   7.048  0.00  0.00    +0.292 HD
ENDBRANCH   7  10
ENDBRANCH   3   4
BRANCH   3  12
ATOM     12  C   LIG    1       25.117 -22.267   5.568  0.00  0.00    -0.015 C 
ATOM     13  C   LIG    1       24.478 -21.925   4.421  0.00  0.00    -0.021 C 
ATOM     14  C   LIG    1       24.085 -20.573   3.923  0.00  0.00    +0.036 C 
BRANCH  12  15
ATOM     15  C   LIG    1       25.264 -23.739   5.746  0.00  0.00    -0.017 A 
ATOM     16  C   LIG    1       25.755 -24.268   6.948  0.00  0.00    +0.012 A 
ATOM     17  C   LIG    1       25.895 -25.651   7.107  0.00  0.00    +0.046 A 
ATOM     18  C   LIG    1       25.546 -26.505   6.066  0.00  0.00    +0.117 A 
ATOM     19  C   LIG    1       25.082 -25.999   4.857  0.00  0.00    +0.046 A 
ATOM     20  C   LIG    1       24.943 -24.616   4.698  0.00  0.00    +0.012 A 
BRANCH  18  21
ATOM     21  O   LIG    1       25.675 -27.847   6.274  0.00  0.00    -0.507 OA
ATOM     22  H   LIG    1       25.587 -28.023   7.225  0.00  0.00    +0.292 HD
ENDBRANCH  18  21
ENDBRANCH  12  15
ENDBRANCH   3  12
TORSDOF 5
ENDMDL
MODEL 7
REMARK VINA RESULT:      -8.5      2.768      6.282
REMARK  Name = *****
REMARK                            x       y       z     vdW  Elec       q    Type
REMARK                         _______ _______ _______ _____ _____    ______ ____
ROOT
ATOM      1  C   LIG    1       25.963 -21.290   8.688  0.00  0.00    +0.036 C 
ATOM      2  C   LIG    1       25.933 -22.563   7.908  0.00  0.00    -0.021 C 
ATOM      3  C   LIG    1       25.175 -22.915   6.839  0.00  0.00    -0.015 C 
ENDROOT
BRANCH   3   4
ATOM      4  C   LIG    1       25.422 -24.314   6.392  0.00  0.00    -0.017 A 
ATOM      5  C   LIG    1       25.879 -25.297   7.279  0.00  0.00    +0.012 A 
ATOM      6  C   LIG    1       26.054 -26.614   6.843  0.00  0.00    +0.046 A 
ATOM      7  C   LIG    1       25.775 -26.949   5.521  0.00  0.00    +0.117 A 
ATOM      8  C   LIG    1       25.313 -25.989   4.627  0.00  0.00    +0.046 A 
ATOM      9  C   LIG    1       25.134 -24.674   5.064  0.00  0.00    +0.012 A 
BRANCH   7  10
ATOM     10  O   LIG    1       25.964 -28.244   5.138  0.00  0.00    -0.507 OA
ATOM     11  H   LIG    1       25.171 -28.547   4.667  0.00  0.00    +0.292 HD
ENDBRANCH   7  10
ENDBRANCH   3   4
BRANCH   3  12
ATOM     12  C   LIG    1       24.213 -22.045   6.148  0.00  0.00    -0.015 C 
ATOM     13  C   LIG    1       22.865 -22.204   6.157  0.00  0.00    -0.021 C 
ATOM     14  C   LIG    1       22.040 -23.249   6.835  0.00  0.00    +0.036 C 
BRANCH  12  15
ATOM     15  C   LIG    1       24.669 -20.918   5.287  0.00  0.00    -0.017 A 
ATOM     16  C   LIG    1       26.015 -20.529   5.272  0.00  0.00    +0.012 A 
ATOM     17  C   LIG    1       26.436 -19.468   4.464  0.00  0.00    +0.046 A 
ATOM     18  C   LIG    1       25.512 -18.793   3.672  0.00  0.00    +0.117 A 
ATOM     19  C   LIG    1       24.167 -19.147   3.692  0.00  0.00    +0.046 A 
ATOM     20  C   LIG    1       23.747 -20.208   4.500  0.00  0.00    +0.012 A 
BRANCH  18  21
ATOM     21  O   LIG    1       25.970 -17.781   2.881  0.00  0.00    -0.507 OA
ATOM     22  H   LIG    1       26.733 -18.105   2.374  0.00  0.00    +0.292 HD
ENDBRANCH  18  21
ENDBRANCH  12  15
ENDBRANCH   3  12
TORSDOF 5
ENDMDL
MODEL 8
REMARK VINA RESULT:      -8.2      2.740      3.789
REMARK  Name = *****
REMARK                            x       y       z     vdW  Elec       q    Type
REMARK                         _______ _______ _______ _____ _____    ______ ____
ROOT
ATOM      1  C   LIG    1       21.961 -23.182   6.850  0.00  0.00    +0.036 C 
ATOM      2  C   LIG    1       22.834 -22.233   6.097  0.00  0.00    -0.021 C 
ATOM      3  C   LIG    1       24.186 -22.112   6.085  0.00  0.00    -0.015 C 
ENDROOT
BRANCH   3   4
ATOM      4  C   LIG    1       24.657 -20.988   5.229  0.00  0.00    -0.017 A 
ATOM      5  C   LIG    1       23.770 -20.252   4.432  0.00  0.00    +0.012 A 
ATOM      6  C   LIG    1       24.234 -19.170   3.677  0.00  0.00    +0.046 A 
ATOM      7  C   LIG    1       25.580 -18.823   3.717  0.00  0.00    +0.117 A 
ATOM      8  C   LIG    1       26.475 -19.535   4.508  0.00  0.00    +0.046 A 
ATOM      9  C   LIG    1       26.011 -20.615   5.266  0.00  0.00    +0.012 A 
BRANCH   7  10
ATOM     10  O   LIG    1       25.989 -17.763   2.962  0.00  0.00    -0.507 OA
ATOM     11  H   LIG    1       25.817 -16.945   3.457  0.00  0.00    +0.292 HD
ENDBRANCH   7  10
ENDBRANCH   3   4
BRANCH   3  12
ATOM     12  C   LIG    1       25.130 -22.979   6.804  0.00  0.00    -0.015 C 
ATOM     13  C   LIG    1       25.903 -22.597   7.852  0.00  0.00    -0.021 C 
ATOM     14  C   LIG    1       25.998 -21.265   8.522  0.00  0.00    +0.036 C 
BRANCH  12  15
ATOM     15  C   LIG    1       25.375 -24.383   6.371  0.00  0.00    -0.017 A 
ATOM     16  C   LIG    1       25.863 -25.336   7.276  0.00  0.00    +0.012 A 
ATOM     17  C   LIG    1       26.095 -26.651   6.862  0.00  0.00    +0.046 A 
ATOM     18  C   LIG    1       25.842 -27.016   5.543  0.00  0.00    +0.117 A 
ATOM     19  C   LIG    1       25.383 -26.079   4.623  0.00  0.00    +0.046 A 
ATOM     20  C   LIG    1       25.151 -24.764   5.038  0.00  0.00    +0.012 A 
BRANCH  18  21
ATOM     21  O   LIG    1       26.059 -28.315   5.189  0.00  0.00    -0.507 OA
ATOM     22  H   LIG    1       26.474 -28.775   5.937  0.00  0.00    +0.292 HD
ENDBRANCH  18  21
ENDBRANCH  12  15
ENDBRANCH   3  12
TORSDOF 5
ENDMDL
MODEL 9
REMARK VINA RESULT:      -8.2      2.856      7.790
REMARK  Name = *****
REMARK                            x       y       z     vdW  Elec       q    Type
REMARK                         _______ _______ _______ _____ _____    ______ ____
ROOT
ATOM      1  C   LIG    1       31.580 -21.368   8.932  0.00  0.00    +0.036 C 
ATOM      2  C   LIG    1       30.133 -21.418   8.563  0.00  0.00    -0.021 C 
ATOM      3  C   LIG    1       29.318 -20.441   8.091  0.00  0.00    -0.015 C 
ENDROOT
BRANCH   3   4
ATOM      4  C   LIG    1       27.915 -20.902   7.901  0.00  0.00    -0.017 A 
ATOM      5  C   LIG    1       27.616 -22.054   7.161  0.00  0.00    +0.012 A 
ATOM      6  C   LIG    1       26.293 -22.491   7.042  0.00  0.00    +0.046 A 
ATOM      7  C   LIG    1       25.269 -21.778   7.659  0.00  0.00    +0.117 A 
ATOM      8  C   LIG    1       25.547 -20.637   8.404  0.00  0.00    +0.046 A 
ATOM      9  C   LIG    1       26.870 -20.203   8.527  0.00  0.00    +0.012 A 
BRANCH   7  10
ATOM     10  O   LIG    1       23.994 -22.237   7.513  0.00  0.00    -0.507 OA
ATOM     11  H   LIG    1       23.931 -23.115   7.924  0.00  0.00    +0.292 HD
ENDBRANCH   7  10
ENDBRANCH   3   4
BRANCH   3  12
ATOM     12  C   LIG    1       29.726 -19.066   7.769  0.00  0.00    -0.015 C 
ATOM     13  C   LIG    1       29.581 -18.467   6.560  0.00  0.00    -0.021 C 
ATOM     14  C   LIG    1       28.997 -19.013   5.297  0.00  0.00    +0.036 C 
BRANCH  12  15
ATOM     15  C   LIG    1       30.430 -18.215   8.769  0.00  0.00    -0.017 A 
ATOM     16  C   LIG    1       31.722 -17.735   8.516  0.00  0.00    +0.012 A 
ATOM     17  C   LIG    1       32.379 -16.939   9.460  0.00  0.00    +0.046 A 
ATOM     18  C   LIG    1       31.746 -16.624  10.658  0.00  0.00    +0.117 A 
ATOM     19  C   LIG    1       30.474 -17.111  10.940  0.00  0.00    +0.046 A 
ATOM     20  C   LIG    1       29.818 -17.907   9.995  0.00  0.00    +0.012 A 
BRANCH  18  21
ATOM     21  O   LIG    1       32.413 -15.824  11.539  0.00  0.00    -0.507 OA
ATOM     22  H   LIG    1       32.776 -15.065  11.055  0.00  0.00    +0.292 HD
ENDBRANCH  18  21
ENDBRANCH  12  15
ENDBRANCH   3  12
TORSDOF 5
ENDMDL
