MODEL 1
REMARK VINA RESULT:      -5.2      0.000      0.000
REMARK  Name = *****
REMARK                            x       y       z     vdW  Elec       q    Type
REMARK                         _______ _______ _______ _____ _____    ______ ____
ROOT
ATOM      1  C   LIG    1       22.908 -20.921   5.222  0.00  0.00    +0.028 A 
ATOM      2  C   LIG    1       23.890 -20.606   4.278  0.00  0.00    +0.069 A 
ATOM      3  C   LIG    1       25.220 -20.447   4.665  0.00  0.00    +0.133 A 
ATOM      4  C   LIG    1       25.607 -20.678   5.990  0.00  0.00    +0.100 A 
ATOM      5  C   LIG    1       24.634 -21.025   6.935  0.00  0.00    +0.020 A 
ATOM      6  C   LIG    1       23.299 -21.170   6.541  0.00  0.00    +0.024 A 
ENDROOT
BRANCH   1   7
ATOM      7  N   LIG    1       21.600 -21.201   4.812  0.00  0.00    -0.358 N 
ATOM      8  H   LIG    1       20.909 -21.104   5.552  0.00  0.00    +0.142 HD
ATOM      9  H   LIG    1       21.499 -22.077   4.309  0.00  0.00    +0.142 HD
ENDBRANCH   1   7
BRANCH   3  10
ATOM     10  O   LIG    1       26.101 -20.071   3.684  0.00  0.00    -0.506 OA
ATOM     11  H   LIG    1       27.015 -20.135   4.039  0.00  0.00    +0.292 HD
ENDBRANCH   3  10
BRANCH   4  12
ATOM     12  C   LIG    1       27.031 -20.538   6.360  0.00  0.00    +0.340 C 
ATOM     13  O   LIG    1       27.699 -19.586   5.986  0.00  0.00    -0.245 OA
BRANCH  12  14
ATOM     14  O   LIG    1       27.539 -21.572   7.062  0.00  0.00    -0.477 OA
ATOM     15  H   LIG    1       28.478 -21.479   7.311  0.00  0.00    +0.295 HD
ENDBRANCH  12  14
ENDBRANCH   4  12
TORSDOF 4
ENDMDL
MODEL 2
REMARK VINA RESULT:      -5.0      2.958      3.932
REMARK  Name = *****
REMARK                            x       y       z     vdW  Elec       q    Type
REMARK                         _______ _______ _______ _____ _____    ______ ____
ROOT
ATOM      1  C   LIG    1       26.771 -20.489   6.110  0.00  0.00    +0.028 A 
ATOM      2  C   LIG    1       26.352 -20.069   4.844  0.00  0.00    +0.069 A 
ATOM      3  C   LIG    1       24.999 -20.075   4.506  0.00  0.00    +0.133 A 
ATOM      4  C   LIG    1       24.033 -20.429   5.454  0.00  0.00    +0.100 A 
ATOM      5  C   LIG    1       24.442 -20.821   6.735  0.00  0.00    +0.020 A 
ATOM      6  C   LIG    1       25.802 -20.823   7.061  0.00  0.00    +0.024 A 
ENDROOT
BRANCH   1   7
ATOM      7  N   LIG    1       28.112 -20.364   6.487  0.00  0.00    -0.358 N 
ATOM      8  H   LIG    1       28.241 -20.063   7.449  0.00  0.00    +0.142 HD
ATOM      9  H   LIG    1       28.678 -19.824   5.840  0.00  0.00    +0.142 HD
ENDBRANCH   1   7
BRANCH   3  10
ATOM     10  O   LIG    1       24.689 -19.712   3.221  0.00  0.00    -0.506 OA
ATOM     11  H   LIG    1       24.116 -20.406   2.827  0.00  0.00    +0.292 HD
ENDBRANCH   3  10
BRANCH   4  12
ATOM     12  C   LIG    1       22.604 -20.390   5.076  0.00  0.00    +0.340 C 
ATOM     13  O   LIG    1       22.050 -19.343   4.774  0.00  0.00    -0.245 OA
BRANCH  12  14
ATOM     14  O   LIG    1       21.959 -21.570   5.171  0.00  0.00    -0.477 OA
ATOM     15  H   LIG    1       22.124 -22.190   4.436  0.00  0.00    +0.295 HD
ENDBRANCH  12  14
ENDBRANCH   4  12
TORSDOF 4
ENDMDL
MODEL 3
REMARK VINA RESULT:      -5.0      3.130      4.452
REMARK  Name = *****
REMARK                            x       y       z     vdW  Elec       q    Type
REMARK                         _______ _______ _______ _____ _____    ______ ____
ROOT
ATOM      1  C   LIG    1       26.543 -20.190   5.395  0.00  0.00    +0.028 A 
ATOM      2  C   LIG    1       25.675 -20.806   6.301  0.00  0.00    +0.069 A 
ATOM      3  C   LIG    1       24.297 -20.792   6.085  0.00  0.00    +0.133 A 
ATOM      4  C   LIG    1       23.767 -20.231   4.918  0.00  0.00    +0.100 A 
ATOM      5  C   LIG    1       24.633 -19.640   3.989  0.00  0.00    +0.020 A 
ATOM      6  C   LIG    1       26.013 -19.648   4.220  0.00  0.00    +0.024 A 
ENDROOT
BRANCH   1   7
ATOM      7  N   LIG    1       27.928 -20.313   5.549  0.00  0.00    -0.358 N 
ATOM      8  H   LIG    1       28.253 -21.275   5.582  0.00  0.00    +0.142 HD
ATOM      9  H   LIG    1       28.314 -19.754   6.304  0.00  0.00    +0.142 HD
ENDBRANCH   1   7
BRANCH   3  10
ATOM     10  O   LIG    1       23.521 -21.360   7.062  0.00  0.00    -0.506 OA
ATOM     11  H   LIG    1       22.829 -20.715   7.330  0.00  0.00    +0.292 HD
ENDBRANCH   3  10
BRANCH   4  12
ATOM     12  C   LIG    1       22.305 -20.266   4.701  0.00  0.00    +0.340 C 
ATOM     13  O   LIG    1       21.669 -19.249   4.467  0.00  0.00    -0.245 OA
BRANCH  12  14
ATOM     14  O   LIG    1       21.737 -21.478   4.862  0.00  0.00    -0.477 OA
ATOM     15  H   LIG    1       21.225 -21.799   4.096  0.00  0.00    +0.295 HD
ENDBRANCH  12  14
ENDBRANCH   4  12
TORSDOF 4
ENDMDL
MODEL 4
REMARK VINA RESULT:      -4.9      1.763      2.563
REMARK  Name = *****
REMARK                            x       y       z     vdW  Elec       q    Type
REMARK                         _______ _______ _______ _____ _____    ______ ____
ROOT
ATOM      1  C   LIG    1       22.717 -19.219   4.354  0.00  0.00    +0.028 A 
ATOM      2  C   LIG    1       22.781 -19.988   5.519  0.00  0.00    +0.069 A 
ATOM      3  C   LIG    1       23.994 -20.526   5.948  0.00  0.00    +0.133 A 
ATOM      4  C   LIG    1       25.180 -20.239   5.263  0.00  0.00    +0.100 A 
ATOM      5  C   LIG    1       25.129 -19.442   4.113  0.00  0.00    +0.020 A 
ATOM      6  C   LIG    1       23.906 -18.916   3.683  0.00  0.00    +0.024 A 
ENDROOT
BRANCH   1   7
ATOM      7  N   LIG    1       21.526 -18.579   3.995  0.00  0.00    -0.358 N 
ATOM      8  H   LIG    1       21.550 -18.157   3.071  0.00  0.00    +0.142 HD
ATOM      9  H   LIG    1       21.169 -17.939   4.697  0.00  0.00    +0.142 HD
ENDBRANCH   1   7
BRANCH   3  10
ATOM     10  O   LIG    1       23.948 -21.325   7.062  0.00  0.00    -0.506 OA
ATOM     11  H   LIG    1       23.028 -21.652   7.177  0.00  0.00    +0.292 HD
ENDBRANCH   3  10
BRANCH   4  12
ATOM     12  C   LIG    1       26.455 -20.794   5.766  0.00  0.00    +0.340 C 
ATOM     13  O   LIG    1       26.487 -21.569   6.710  0.00  0.00    -0.245 OA
BRANCH  12  14
ATOM     14  O   LIG    1       27.560 -20.317   5.157  0.00  0.00    -0.477 OA
ATOM     15  H   LIG    1       28.000 -19.580   5.620  0.00  0.00    +0.295 HD
ENDBRANCH  12  14
ENDBRANCH   4  12
TORSDOF 4
ENDMDL
MODEL 5
REMARK VINA RESULT:      -4.7      3.045      4.098
REMARK  Name = *****
REMARK                            x       y       z     vdW  Elec       q    Type
REMARK                         _______ _______ _______ _____ _____    ______ ____
ROOT
ATOM      1  C   LIG    1       27.998 -20.443   6.309  0.00  0.00    +0.028 A 
ATOM      2  C   LIG    1       27.447 -19.784   5.206  0.00  0.00    +0.069 A 
ATOM      3  C   LIG    1       26.137 -20.045   4.806  0.00  0.00    +0.133 A 
ATOM      4  C   LIG    1       25.327 -20.911   5.550  0.00  0.00    +0.100 A 
ATOM      5  C   LIG    1       25.861 -21.550   6.675  0.00  0.00    +0.020 A 
ATOM      6  C   LIG    1       27.181 -21.292   7.062  0.00  0.00    +0.024 A 
ENDROOT
BRANCH   1   7
ATOM      7  N   LIG    1       29.266 -20.089   6.781  0.00  0.00    -0.358 N 
ATOM      8  H   LIG    1       29.457 -20.411   7.726  0.00  0.00    +0.142 HD
ATOM      9  H   LIG    1       29.497 -19.108   6.660  0.00  0.00    +0.142 HD
ENDBRANCH   1   7
BRANCH   3  10
ATOM     10  O   LIG    1       25.705 -19.404   3.674  0.00  0.00    -0.506 OA
ATOM     11  H   LIG    1       24.865 -19.819   3.378  0.00  0.00    +0.292 HD
ENDBRANCH   3  10
BRANCH   4  12
ATOM     12  C   LIG    1       23.930 -21.137   5.121  0.00  0.00    +0.340 C 
ATOM     13  O   LIG    1       22.996 -21.036   5.903  0.00  0.00    -0.245 OA
BRANCH  12  14
ATOM     14  O   LIG    1       23.787 -21.537   3.841  0.00  0.00    -0.477 OA
ATOM     15  H   LIG    1       24.622 -21.723   3.372  0.00  0.00    +0.295 HD
ENDBRANCH  12  14
ENDBRANCH   4  12
TORSDOF 4
ENDMDL
MODEL 6
REMARK VINA RESULT:      -4.6      7.333      7.981
REMARK  Name = *****
REMARK                            x       y       z     vdW  Elec       q    Type
REMARK                         _______ _______ _______ _____ _____    ______ ____
ROOT
ATOM      1  C   LIG    1       24.489 -13.825   3.502  0.00  0.00    +0.028 A 
ATOM      2  C   LIG    1       25.026 -13.675   4.784  0.00  0.00    +0.069 A 
ATOM      3  C   LIG    1       26.384 -13.406   4.957  0.00  0.00    +0.133 A 
ATOM      4  C   LIG    1       27.214 -13.206   3.848  0.00  0.00    +0.100 A 
ATOM      5  C   LIG    1       26.676 -13.323   2.560  0.00  0.00    +0.020 A 
ATOM      6  C   LIG    1       25.316 -13.604   2.397  0.00  0.00    +0.024 A 
ENDROOT
BRANCH   1   7
ATOM      7  N   LIG    1       23.108 -13.970   3.329  0.00  0.00    -0.358 N 
ATOM      8  H   LIG    1       22.703 -14.724   3.876  0.00  0.00    +0.142 HD
ATOM      9  H   LIG    1       22.811 -14.001   2.359  0.00  0.00    +0.142 HD
ENDBRANCH   1   7
BRANCH   3  10
ATOM     10  O   LIG    1       26.834 -13.343   6.250  0.00  0.00    -0.506 OA
ATOM     11  H   LIG    1       27.802 -13.172   6.239  0.00  0.00    +0.292 HD
ENDBRANCH   3  10
BRANCH   4  12
ATOM     12  C   LIG    1       28.642 -12.886   4.065  0.00  0.00    +0.340 C 
ATOM     13  O   LIG    1       29.008 -12.208   5.013  0.00  0.00    -0.245 OA
BRANCH  12  14
ATOM     14  O   LIG    1       29.475 -13.328   3.101  0.00  0.00    -0.477 OA
ATOM     15  H   LIG    1       30.148 -13.968   3.399  0.00  0.00    +0.295 HD
ENDBRANCH  12  14
ENDBRANCH   4  12
TORSDOF 4
ENDMDL
MODEL 7
REMARK VINA RESULT:      -4.3      6.569      7.289
REMARK  Name = *****
REMARK                            x       y       z     vdW  Elec       q    Type
REMARK                         _______ _______ _______ _____ _____    ______ ____
ROOT
ATOM      1  C   LIG    1       24.348 -12.620   2.700  0.00  0.00    +0.028 A 
ATOM      2  C   LIG    1       23.853 -13.710   3.422  0.00  0.00    +0.069 A 
ATOM      3  C   LIG    1       24.648 -14.835   3.641  0.00  0.00    +0.133 A 
ATOM      4  C   LIG    1       25.979 -14.859   3.209  0.00  0.00    +0.100 A 
ATOM      5  C   LIG    1       26.492 -13.757   2.513  0.00  0.00    +0.020 A 
ATOM      6  C   LIG    1       25.683 -12.638   2.287  0.00  0.00    +0.024 A 
ENDROOT
BRANCH   1   7
ATOM      7  N   LIG    1       23.594 -11.447   2.589  0.00  0.00    -0.358 N 
ATOM      8  H   LIG    1       23.546 -10.907   3.449  0.00  0.00    +0.142 HD
ATOM      9  H   LIG    1       22.678 -11.578   2.170  0.00  0.00    +0.142 HD
ENDBRANCH   1   7
BRANCH   3  10
ATOM     10  O   LIG    1       24.056 -15.882   4.299  0.00  0.00    -0.506 OA
ATOM     11  H   LIG    1       23.283 -16.188   3.775  0.00  0.00    +0.292 HD
ENDBRANCH   3  10
BRANCH   4  12
ATOM     12  C   LIG    1       26.807 -16.051   3.490  0.00  0.00    +0.340 C 
ATOM     13  O   LIG    1       26.420 -17.177   3.215  0.00  0.00    -0.245 OA
BRANCH  12  14
ATOM     14  O   LIG    1       27.963 -15.800   4.136  0.00  0.00    -0.477 OA
ATOM     15  H   LIG    1       27.894 -15.162   4.871  0.00  0.00    +0.295 HD
ENDBRANCH  12  14
ENDBRANCH   4  12
TORSDOF 4
ENDMDL
MODEL 8
REMARK VINA RESULT:      -4.3      7.513      8.383
REMARK  Name = *****
REMARK                            x       y       z     vdW  Elec       q    Type
REMARK                         _______ _______ _______ _____ _____    ______ ____
ROOT
ATOM      1  C   LIG    1       28.138 -12.925   4.532  0.00  0.00    +0.028 A 
ATOM      2  C   LIG    1       27.713 -13.338   3.266  0.00  0.00    +0.069 A 
ATOM      3  C   LIG    1       26.413 -13.805   3.071  0.00  0.00    +0.133 A 
ATOM      4  C   LIG    1       25.491 -13.794   4.123  0.00  0.00    +0.100 A 
ATOM      5  C   LIG    1       25.900 -13.352   5.388  0.00  0.00    +0.020 A 
ATOM      6  C   LIG    1       27.209 -12.897   5.577  0.00  0.00    +0.024 A 
ENDROOT
BRANCH   1   7
ATOM      7  N   LIG    1       29.399 -12.342   4.698  0.00  0.00    -0.358 N 
ATOM      8  H   LIG    1       30.140 -13.013   4.883  0.00  0.00    +0.142 HD
ATOM      9  H   LIG    1       29.416 -11.566   5.351  0.00  0.00    +0.142 HD
ENDBRANCH   1   7
BRANCH   3  10
ATOM     10  O   LIG    1       26.107 -14.252   1.812  0.00  0.00    -0.506 OA
ATOM     11  H   LIG    1       25.721 -13.508   1.299  0.00  0.00    +0.292 HD
ENDBRANCH   3  10
BRANCH   4  12
ATOM     12  C   LIG    1       24.109 -14.261   3.876  0.00  0.00    +0.340 C 
ATOM     13  O   LIG    1       23.649 -15.233   4.455  0.00  0.00    -0.245 OA
BRANCH  12  14
ATOM     14  O   LIG    1       23.446 -13.585   2.915  0.00  0.00    -0.477 OA
ATOM     15  H   LIG    1       22.931 -14.141   2.301  0.00  0.00    +0.295 HD
ENDBRANCH  12  14
ENDBRANCH   4  12
TORSDOF 4
ENDMDL
MODEL 9
REMARK VINA RESULT:      -4.1      1.876      2.336
REMARK  Name = *****
REMARK                            x       y       z     vdW  Elec       q    Type
REMARK                         _______ _______ _______ _____ _____    ______ ____
ROOT
ATOM      1  C   LIG    1       25.152 -20.171   4.712  0.00  0.00    +0.028 A 
ATOM      2  C   LIG    1       26.199 -19.337   4.309  0.00  0.00    +0.069 A 
ATOM      3  C   LIG    1       27.400 -19.314   5.018  0.00  0.00    +0.133 A 
ATOM      4  C   LIG    1       27.604 -20.182   6.096  0.00  0.00    +0.100 A 
ATOM      5  C   LIG    1       26.572 -21.044   6.486  0.00  0.00    +0.020 A 
ATOM      6  C   LIG    1       25.366 -21.052   5.776  0.00  0.00    +0.024 A 
ENDROOT
BRANCH   1   7
ATOM      7  N   LIG    1       23.999 -20.284   3.928  0.00  0.00    -0.358 N 
ATOM      8  H   LIG    1       23.606 -21.221   3.908  0.00  0.00    +0.142 HD
ATOM      9  H   LIG    1       24.088 -19.888   2.997  0.00  0.00    +0.142 HD
ENDBRANCH   1   7
BRANCH   3  10
ATOM     10  O   LIG    1       28.343 -18.415   4.592  0.00  0.00    -0.506 OA
ATOM     11  H   LIG    1       28.055 -17.510   4.845  0.00  0.00    +0.292 HD
ENDBRANCH   3  10
BRANCH   4  12
ATOM     12  C   LIG    1       28.903 -20.159   6.804  0.00  0.00    +0.340 C 
ATOM     13  O   LIG    1       29.472 -19.109   7.062  0.00  0.00    -0.245 OA
BRANCH  12  14
ATOM     14  O   LIG    1       29.430 -21.373   7.061  0.00  0.00    -0.477 OA
ATOM     15  H   LIG    1       29.037 -22.108   6.555  0.00  0.00    +0.295 HD
ENDBRANCH  12  14
ENDBRANCH   4  12
TORSDOF 4
ENDMDL
