MODEL 1
REMARK VINA RESULT:      -5.2      0.000      0.000
REMARK  Name = *****
REMARK                            x       y       z     vdW  Elec       q    Type
REMARK                         _______ _______ _______ _____ _____    ______ ____
ROOT
ATOM      1  N   LIG    1       25.669 -15.922   3.362  0.00  0.00    -0.179 NA
ATOM      2  C   LIG    1       26.214 -17.099   3.368  0.00  0.00    +0.177 C 
ENDROOT
BRANCH   1   5
ATOM      3  O   LIG    1       25.303 -13.419   1.820  0.00  0.00    -0.224 OA
ATOM      4  C   LIG    1       26.272 -13.684   2.521  0.00  0.00    +0.423 C 
ATOM      5  N   LIG    1       26.522 -14.866   3.214  0.00  0.00    -0.155 N 
ATOM      6  C   LIG    1       27.568 -14.636   4.151  0.00  0.00    +0.179 C 
ATOM      7  C   LIG    1       28.314 -13.518   3.469  0.00  0.00    +0.255 C 
ATOM      8  O   LIG    1       27.302 -12.805   2.745  0.00  0.00    -0.448 OA
ENDBRANCH   1   5
BRANCH   2   9
ATOM      9  C   LIG    1       25.401 -18.274   3.505  0.00  0.00    +0.154 A 
ATOM     10  O   LIG    1       24.094 -18.113   3.885  0.00  0.00    -0.399 OA
ATOM     11  C   LIG    1       23.557 -19.361   3.944  0.00  0.00    +0.438 A 
ATOM     12  C   LIG    1       24.474 -20.325   3.603  0.00  0.00    +0.132 A 
ATOM     13  C   LIG    1       25.669 -19.619   3.314  0.00  0.00    +0.058 A 
BRANCH  11  14
ATOM     14  N   LIG    1       22.186 -19.449   4.339  0.00  0.00    +0.119 N 
ATOM     15  O   LIG    1       21.459 -18.470   4.130  0.00  0.00    -0.574 OA
ATOM     16  O   LIG    1       21.836 -20.515   4.863  0.00  0.00    +0.045 OA
ENDBRANCH  11  14
ENDBRANCH   2   9
TORSDOF 3
ENDMDL
MODEL 2
REMARK VINA RESULT:      -5.1      2.365      6.354
REMARK  Name = *****
REMARK                            x       y       z     vdW  Elec       q    Type
REMARK                         _______ _______ _______ _____ _____    ______ ____
ROOT
ATOM      1  N   LIG    1       25.827 -17.830   3.308  0.00  0.00    -0.179 NA
ATOM      2  C   LIG    1       25.124 -16.808   3.689  0.00  0.00    +0.177 C 
ENDROOT
BRANCH   1   5
ATOM      3  O   LIG    1       26.972 -19.850   5.148  0.00  0.00    -0.224 OA
ATOM      4  C   LIG    1       25.893 -19.944   4.575  0.00  0.00    +0.423 C 
ATOM      5  N   LIG    1       25.338 -19.057   3.656  0.00  0.00    -0.155 N 
ATOM      6  C   LIG    1       23.958 -19.365   3.496  0.00  0.00    +0.179 C 
ATOM      7  C   LIG    1       23.960 -20.836   3.824  0.00  0.00    +0.255 C 
ATOM      8  O   LIG    1       25.024 -20.987   4.774  0.00  0.00    -0.448 OA
ENDBRANCH   1   5
BRANCH   2   9
ATOM      9  C   LIG    1       25.546 -15.475   3.361  0.00  0.00    +0.154 A 
ATOM     10  O   LIG    1       24.597 -14.487   3.334  0.00  0.00    -0.399 OA
ATOM     11  C   LIG    1       25.248 -13.342   2.997  0.00  0.00    +0.438 A 
ATOM     12  C   LIG    1       26.592 -13.557   2.815  0.00  0.00    +0.132 A 
ATOM     13  C   LIG    1       26.786 -14.941   3.056  0.00  0.00    +0.058 A 
BRANCH  11  14
ATOM     14  N   LIG    1       24.450 -12.161   2.891  0.00  0.00    +0.119 N 
ATOM     15  O   LIG    1       24.470 -11.541   1.820  0.00  0.00    -0.574 OA
ATOM     16  O   LIG    1       23.794 -11.853   3.896  0.00  0.00    +0.045 OA
ENDBRANCH  11  14
ENDBRANCH   2   9
TORSDOF 3
ENDMDL
MODEL 3
REMARK VINA RESULT:      -4.9      2.257      6.772
REMARK  Name = *****
REMARK                            x       y       z     vdW  Elec       q    Type
REMARK                         _______ _______ _______ _____ _____    ______ ____
ROOT
ATOM      1  N   LIG    1       25.978 -17.665   3.315  0.00  0.00    -0.179 NA
ATOM      2  C   LIG    1       25.356 -16.588   3.686  0.00  0.00    +0.177 C 
ENDROOT
BRANCH   1   5
ATOM      3  O   LIG    1       26.946 -19.803   5.124  0.00  0.00    -0.224 OA
ATOM      4  C   LIG    1       25.860 -19.792   4.556  0.00  0.00    +0.423 C 
ATOM      5  N   LIG    1       25.383 -18.847   3.650  0.00  0.00    -0.155 N 
ATOM      6  C   LIG    1       23.979 -19.029   3.494  0.00  0.00    +0.179 C 
ATOM      7  C   LIG    1       23.851 -20.498   3.805  0.00  0.00    +0.255 C 
ATOM      8  O   LIG    1       24.901 -20.755   4.747  0.00  0.00    -0.448 OA
ENDBRANCH   1   5
BRANCH   2   9
ATOM      9  C   LIG    1       25.893 -15.295   3.369  0.00  0.00    +0.154 A 
ATOM     10  O   LIG    1       27.030 -14.892   4.019  0.00  0.00    -0.399 OA
ATOM     11  C   LIG    1       27.319 -13.650   3.548  0.00  0.00    +0.438 A 
ATOM     12  C   LIG    1       26.410 -13.240   2.604  0.00  0.00    +0.132 A 
ATOM     13  C   LIG    1       25.487 -14.310   2.485  0.00  0.00    +0.058 A 
BRANCH  11  14
ATOM     14  N   LIG    1       28.473 -13.011   4.098  0.00  0.00    +0.119 N 
ATOM     15  O   LIG    1       28.394 -12.559   5.247  0.00  0.00    -0.574 OA
ATOM     16  O   LIG    1       29.473 -12.964   3.367  0.00  0.00    +0.045 OA
ENDBRANCH  11  14
ENDBRANCH   2   9
TORSDOF 3
ENDMDL
MODEL 4
REMARK VINA RESULT:      -4.6      1.707      6.244
REMARK  Name = *****
REMARK                            x       y       z     vdW  Elec       q    Type
REMARK                         _______ _______ _______ _____ _____    ______ ____
ROOT
ATOM      1  N   LIG    1       24.538 -17.283   3.690  0.00  0.00    -0.179 NA
ATOM      2  C   LIG    1       25.760 -16.874   3.541  0.00  0.00    +0.177 C 
ENDROOT
BRANCH   1   5
ATOM      3  O   LIG    1       22.069 -18.791   4.330  0.00  0.00    -0.224 OA
ATOM      4  C   LIG    1       23.176 -19.286   4.152  0.00  0.00    +0.423 C 
ATOM      5  N   LIG    1       24.375 -18.621   3.912  0.00  0.00    -0.155 N 
ATOM      6  C   LIG    1       25.334 -19.560   3.439  0.00  0.00    +0.179 C 
ATOM      7  C   LIG    1       24.824 -20.826   4.077  0.00  0.00    +0.255 C 
ATOM      8  O   LIG    1       23.404 -20.639   4.154  0.00  0.00    -0.448 OA
ENDBRANCH   1   5
BRANCH   2   9
ATOM      9  C   LIG    1       26.036 -15.483   3.317  0.00  0.00    +0.154 A 
ATOM     10  O   LIG    1       24.975 -14.620   3.235  0.00  0.00    -0.399 OA
ATOM     11  C   LIG    1       25.503 -13.386   3.017  0.00  0.00    +0.438 A 
ATOM     12  C   LIG    1       26.875 -13.421   2.967  0.00  0.00    +0.132 A 
ATOM     13  C   LIG    1       27.221 -14.782   3.166  0.00  0.00    +0.058 A 
BRANCH  11  14
ATOM     14  N   LIG    1       24.574 -12.308   2.881  0.00  0.00    +0.119 N 
ATOM     15  O   LIG    1       24.567 -11.679   1.816  0.00  0.00    -0.574 OA
ATOM     16  O   LIG    1       23.840 -12.093   3.856  0.00  0.00    +0.045 OA
ENDBRANCH  11  14
ENDBRANCH   2   9
TORSDOF 3
ENDMDL
MODEL 5
REMARK VINA RESULT:      -4.5      1.515      1.997
REMARK  Name = *****
REMARK                            x       y       z     vdW  Elec       q    Type
REMARK                         _______ _______ _______ _____ _____    ______ ____
ROOT
ATOM      1  N   LIG    1       25.333 -16.217   3.684  0.00  0.00    -0.179 NA
ATOM      2  C   LIG    1       24.224 -16.890   3.721  0.00  0.00    +0.177 C 
ENDROOT
BRANCH   1   5
ATOM      3  O   LIG    1       26.839 -14.395   1.899  0.00  0.00    -0.224 OA
ATOM      4  C   LIG    1       25.909 -14.067   2.625  0.00  0.00    +0.423 C 
ATOM      5  N   LIG    1       25.210 -14.866   3.526  0.00  0.00    -0.155 N 
ATOM      6  C   LIG    1       24.016 -14.192   3.908  0.00  0.00    +0.179 C 
ATOM      7  C   LIG    1       24.434 -12.756   3.722  0.00  0.00    +0.255 C 
ATOM      8  O   LIG    1       25.385 -12.798   2.650  0.00  0.00    -0.448 OA
ENDBRANCH   1   5
BRANCH   2   9
ATOM      9  C   LIG    1       24.246 -18.314   3.898  0.00  0.00    +0.154 A 
ATOM     10  O   LIG    1       23.219 -18.893   4.596  0.00  0.00    -0.399 OA
ATOM     11  C   LIG    1       23.480 -20.227   4.623  0.00  0.00    +0.438 A 
ATOM     12  C   LIG    1       24.640 -20.532   3.954  0.00  0.00    +0.132 A 
ATOM     13  C   LIG    1       25.135 -19.290   3.479  0.00  0.00    +0.058 A 
BRANCH  11  14
ATOM     14  N   LIG    1       22.539 -21.048   5.319  0.00  0.00    +0.119 N 
ATOM     15  O   LIG    1       21.460 -21.292   4.764  0.00  0.00    -0.574 OA
ATOM     16  O   LIG    1       22.890 -21.455   6.435  0.00  0.00    +0.045 OA
ENDBRANCH  11  14
ENDBRANCH   2   9
TORSDOF 3
ENDMDL
MODEL 6
REMARK VINA RESULT:      -4.4      1.690      6.714
REMARK  Name = *****
REMARK                            x       y       z     vdW  Elec       q    Type
REMARK                         _______ _______ _______ _____ _____    ______ ____
ROOT
ATOM      1  N   LIG    1       24.573 -17.312   3.695  0.00  0.00    -0.179 NA
ATOM      2  C   LIG    1       25.812 -16.974   3.506  0.00  0.00    +0.177 C 
ENDROOT
BRANCH   1   5
ATOM      3  O   LIG    1       22.055 -18.670   4.463  0.00  0.00    -0.224 OA
ATOM      4  C   LIG    1       23.117 -19.231   4.221  0.00  0.00    +0.423 C 
ATOM      5  N   LIG    1       24.341 -18.639   3.917  0.00  0.00    -0.155 N 
ATOM      6  C   LIG    1       25.211 -19.632   3.386  0.00  0.00    +0.179 C 
ATOM      7  C   LIG    1       24.659 -20.870   4.045  0.00  0.00    +0.255 C 
ATOM      8  O   LIG    1       23.261 -20.595   4.202  0.00  0.00    -0.448 OA
ENDBRANCH   1   5
BRANCH   2   9
ATOM      9  C   LIG    1       26.161 -15.600   3.277  0.00  0.00    +0.154 A 
ATOM     10  O   LIG    1       27.280 -15.108   3.896  0.00  0.00    -0.399 OA
ATOM     11  C   LIG    1       27.381 -13.805   3.523  0.00  0.00    +0.438 A 
ATOM     12  C   LIG    1       26.366 -13.440   2.671  0.00  0.00    +0.132 A 
ATOM     13  C   LIG    1       25.577 -14.608   2.508  0.00  0.00    +0.058 A 
BRANCH  11  14
ATOM     14  N   LIG    1       28.480 -13.069   4.063  0.00  0.00    +0.119 N 
ATOM     15  O   LIG    1       28.362 -12.603   5.203  0.00  0.00    -0.574 OA
ATOM     16  O   LIG    1       29.475 -12.958   3.333  0.00  0.00    +0.045 OA
ENDBRANCH  11  14
ENDBRANCH   2   9
TORSDOF 3
ENDMDL
MODEL 7
REMARK VINA RESULT:      -4.1      1.494      1.852
REMARK  Name = *****
REMARK                            x       y       z     vdW  Elec       q    Type
REMARK                         _______ _______ _______ _____ _____    ______ ____
ROOT
ATOM      1  N   LIG    1       25.776 -16.638   3.666  0.00  0.00    -0.179 NA
ATOM      2  C   LIG    1       24.650 -17.255   3.482  0.00  0.00    +0.177 C 
ENDROOT
BRANCH   1   5
ATOM      3  O   LIG    1       23.847 -14.534   4.458  0.00  0.00    -0.224 OA
ATOM      4  C   LIG    1       24.879 -14.347   3.825  0.00  0.00    +0.423 C 
ATOM      5  N   LIG    1       25.785 -15.304   3.374  0.00  0.00    -0.155 N 
ATOM      6  C   LIG    1       26.988 -14.650   2.984  0.00  0.00    +0.179 C 
ATOM      7  C   LIG    1       26.456 -13.292   2.601  0.00  0.00    +0.255 C 
ATOM      8  O   LIG    1       25.321 -13.101   3.455  0.00  0.00    -0.448 OA
ENDBRANCH   1   5
BRANCH   2   9
ATOM      9  C   LIG    1       24.534 -18.656   3.773  0.00  0.00    +0.154 A 
ATOM     10  O   LIG    1       23.442 -19.079   4.484  0.00  0.00    -0.399 OA
ATOM     11  C   LIG    1       23.577 -20.424   4.625  0.00  0.00    +0.438 A 
ATOM     12  C   LIG    1       24.718 -20.888   4.018  0.00  0.00    +0.132 A 
ATOM     13  C   LIG    1       25.337 -19.740   3.461  0.00  0.00    +0.058 A 
BRANCH  11  14
ATOM     14  N   LIG    1       22.548 -21.096   5.356  0.00  0.00    +0.119 N 
ATOM     15  O   LIG    1       22.819 -21.513   6.489  0.00  0.00    -0.574 OA
ATOM     16  O   LIG    1       21.454 -21.205   4.784  0.00  0.00    +0.045 OA
ENDBRANCH  11  14
ENDBRANCH   2   9
TORSDOF 3
ENDMDL
MODEL 8
REMARK VINA RESULT:      -4.0      2.061      2.739
REMARK  Name = *****
REMARK                            x       y       z     vdW  Elec       q    Type
REMARK                         _______ _______ _______ _____ _____    ______ ____
ROOT
ATOM      1  N   LIG    1       24.688 -15.603   3.673  0.00  0.00    -0.179 NA
ATOM      2  C   LIG    1       23.475 -15.980   3.933  0.00  0.00    +0.177 C 
ENDROOT
BRANCH   1   5
ATOM      3  O   LIG    1       26.671 -14.261   1.926  0.00  0.00    -0.224 OA
ATOM      4  C   LIG    1       25.778 -13.698   2.548  0.00  0.00    +0.423 C 
ATOM      5  N   LIG    1       24.863 -14.270   3.428  0.00  0.00    -0.155 N 
ATOM      6  C   LIG    1       23.812 -13.340   3.666  0.00  0.00    +0.179 C 
ATOM      7  C   LIG    1       24.534 -12.037   3.438  0.00  0.00    +0.255 C 
ATOM      8  O   LIG    1       25.531 -12.351   2.456  0.00  0.00    -0.448 OA
ENDBRANCH   1   5
BRANCH   2   9
ATOM      9  C   LIG    1       23.189 -17.358   4.217  0.00  0.00    +0.154 A 
ATOM     10  O   LIG    1       24.146 -18.290   3.912  0.00  0.00    -0.399 OA
ATOM     11  C   LIG    1       23.630 -19.497   4.269  0.00  0.00    +0.438 A 
ATOM     12  C   LIG    1       22.372 -19.373   4.807  0.00  0.00    +0.132 A 
ATOM     13  C   LIG    1       22.088 -17.984   4.777  0.00  0.00    +0.058 A 
BRANCH  11  14
ATOM     14  N   LIG    1       24.454 -20.640   4.030  0.00  0.00    +0.119 N 
ATOM     15  O   LIG    1       25.499 -20.750   4.685  0.00  0.00    -0.574 OA
ATOM     16  O   LIG    1       24.046 -21.439   3.175  0.00  0.00    +0.045 OA
ENDBRANCH  11  14
ENDBRANCH   2   9
TORSDOF 3
ENDMDL
MODEL 9
REMARK VINA RESULT:      -3.9      2.128      6.702
REMARK  Name = *****
REMARK                            x       y       z     vdW  Elec       q    Type
REMARK                         _______ _______ _______ _____ _____    ______ ____
ROOT
ATOM      1  N   LIG    1       24.140 -17.981   4.052  0.00  0.00    -0.179 NA
ATOM      2  C   LIG    1       23.431 -16.926   4.315  0.00  0.00    +0.177 C 
ENDROOT
BRANCH   1   5
ATOM      3  O   LIG    1       25.295 -20.708   3.954  0.00  0.00    -0.224 OA
ATOM      4  C   LIG    1       24.147 -20.435   4.284  0.00  0.00    +0.423 C 
ATOM      5  N   LIG    1       23.537 -19.183   4.287  0.00  0.00    -0.155 N 
ATOM      6  C   LIG    1       22.334 -19.261   5.044  0.00  0.00    +0.179 C 
ATOM      7  C   LIG    1       21.983 -20.715   4.863  0.00  0.00    +0.255 C 
ATOM      8  O   LIG    1       23.250 -21.373   4.731  0.00  0.00    -0.448 OA
ENDBRANCH   1   5
BRANCH   2   9
ATOM      9  C   LIG    1       23.970 -15.615   4.088  0.00  0.00    +0.154 A 
ATOM     10  O   LIG    1       25.245 -15.519   3.594  0.00  0.00    -0.399 OA
ATOM     11  C   LIG    1       25.510 -14.191   3.479  0.00  0.00    +0.438 A 
ATOM     12  C   LIG    1       24.442 -13.423   3.873  0.00  0.00    +0.132 A 
ATOM     13  C   LIG    1       23.441 -14.348   4.265  0.00  0.00    +0.058 A 
BRANCH  11  14
ATOM     14  N   LIG    1       26.806 -13.838   2.989  0.00  0.00    +0.119 N 
ATOM     15  O   LIG    1       27.582 -13.265   3.763  0.00  0.00    -0.574 OA
ATOM     16  O   LIG    1       27.046 -14.142   1.812  0.00  0.00    +0.045 OA
ENDBRANCH  11  14
ENDBRANCH   2   9
TORSDOF 3
ENDMDL
