MODEL 1
REMARK VINA RESULT:      -3.1      0.000      0.000
REMARK  Name = *****
REMARK                            x       y       z     vdW  Elec       q    Type
REMARK                         _______ _______ _______ _____ _____    ______ ____
ROOT
ATOM      1  O   LIG    1       23.066 -15.540   3.886  0.00  0.00    -0.461 OA
ENDROOT
BRANCH   1  10
ATOM      2  C   LIG    1       27.251 -14.119   5.216  0.00  0.00    +0.193 C 
ATOM      3  N   LIG    1       26.643 -13.451   3.994  0.00  0.00    +0.247 N 
ATOM      4  C   LIG    1       27.677 -12.413   3.527  0.00  0.00    +0.193 C 
ATOM      5  C   LIG    1       26.243 -14.378   2.815  0.00  0.00    +0.102 C 
ATOM      6  C   LIG    1       25.389 -13.513   1.903  0.00  0.00    +0.201 C 
ATOM      7  C   LIG    1       24.757 -12.478   2.793  0.00  0.00    +0.201 C 
ATOM      8  O   LIG    1       23.981 -13.468   2.123  0.00  0.00    -0.357 OA
ATOM      9  C   LIG    1       25.431 -15.563   3.354  0.00  0.00    +0.102 C 
ATOM     10  C   LIG    1       24.363 -15.200   4.414  0.00  0.00    +0.187 C 
ATOM     11  C   LIG    1       24.334 -13.737   4.929  0.00  0.00    +0.102 C 
ATOM     12  C   LIG    1       25.267 -12.769   4.196  0.00  0.00    +0.102 C 
ENDBRANCH   1  10
BRANCH   1  13
ATOM     13  C   LIG    1       22.353 -16.444   4.629  0.00  0.00    +0.317 C 
ATOM     14  O   LIG    1       21.924 -16.210   5.756  0.00  0.00    -0.250 OA
BRANCH  13  15
ATOM     15  C   LIG    1       22.166 -17.734   3.857  0.00  0.00    +0.153 C 
BRANCH  15  16
ATOM     16  C   LIG    1       23.108 -18.819   4.343  0.00  0.00    -0.032 A 
ATOM     17  C   LIG    1       24.369 -19.013   3.759  0.00  0.00    +0.004 A 
ATOM     18  C   LIG    1       25.219 -20.018   4.222  0.00  0.00    +0.000 A 
ATOM     19  C   LIG    1       24.820 -20.844   5.270  0.00  0.00    +0.000 A 
ATOM     20  C   LIG    1       23.570 -20.665   5.858  0.00  0.00    +0.000 A 
ATOM     21  C   LIG    1       22.719 -19.658   5.399  0.00  0.00    +0.004 A 
ENDBRANCH  15  16
BRANCH  15  22
ATOM     22  C   LIG    1       20.693 -18.150   3.924  0.00  0.00    +0.175 C 
BRANCH  22  23
ATOM     23  O   LIG    1       20.127 -18.150   2.611  0.00  0.00    -0.394 OA
ATOM     24  H   LIG    1       20.876 -18.165   1.987  0.00  0.00    +0.209 HD
ENDBRANCH  22  23
ENDBRANCH  15  22
ENDBRANCH  13  15
ENDBRANCH   1  13
TORSDOF 6
ENDMDL
MODEL 2
REMARK VINA RESULT:      -2.8      2.329      3.766
REMARK  Name = *****
REMARK                            x       y       z     vdW  Elec       q    Type
REMARK                         _______ _______ _______ _____ _____    ______ ____
ROOT
ATOM      1  O   LIG    1       26.510 -16.762   3.543  0.00  0.00    -0.461 OA
ENDROOT
BRANCH   1  10
ATOM      2  C   LIG    1       24.089 -13.200   1.883  0.00  0.00    +0.193 C 
ATOM      3  N   LIG    1       24.973 -12.940   3.092  0.00  0.00    +0.247 N 
ATOM      4  C   LIG    1       24.792 -11.451   3.430  0.00  0.00    +0.193 C 
ATOM      5  C   LIG    1       24.712 -13.811   4.350  0.00  0.00    +0.102 C 
ATOM      6  C   LIG    1       25.912 -13.575   5.252  0.00  0.00    +0.201 C 
ATOM      7  C   LIG    1       27.051 -13.225   4.334  0.00  0.00    +0.201 C 
ATOM      8  O   LIG    1       27.052 -14.419   5.112  0.00  0.00    -0.357 OA
ATOM      9  C   LIG    1       24.627 -15.287   3.937  0.00  0.00    +0.102 C 
ATOM     10  C   LIG    1       25.699 -15.747   2.920  0.00  0.00    +0.187 C 
ATOM     11  C   LIG    1       26.623 -14.659   2.313  0.00  0.00    +0.102 C 
ATOM     12  C   LIG    1       26.478 -13.264   2.926  0.00  0.00    +0.102 C 
ENDBRANCH   1  10
BRANCH   1  13
ATOM     13  C   LIG    1       26.080 -18.049   3.355  0.00  0.00    +0.317 C 
ATOM     14  O   LIG    1       25.858 -18.538   2.250  0.00  0.00    -0.250 OA
BRANCH  13  15
ATOM     15  C   LIG    1       25.941 -18.761   4.685  0.00  0.00    +0.153 C 
BRANCH  15  16
ATOM     16  C   LIG    1       24.615 -19.488   4.796  0.00  0.00    -0.032 A 
ATOM     17  C   LIG    1       23.412 -18.889   4.391  0.00  0.00    +0.004 A 
ATOM     18  C   LIG    1       22.203 -19.577   4.503  0.00  0.00    +0.000 A 
ATOM     19  C   LIG    1       22.179 -20.869   5.024  0.00  0.00    +0.000 A 
ATOM     20  C   LIG    1       23.364 -21.475   5.434  0.00  0.00    +0.000 A 
ATOM     21  C   LIG    1       24.576 -20.790   5.320  0.00  0.00    +0.004 A 
ENDBRANCH  15  16
BRANCH  15  22
ATOM     22  C   LIG    1       27.146 -19.685   4.888  0.00  0.00    +0.175 C 
BRANCH  22  23
ATOM     23  O   LIG    1       28.347 -18.912   4.950  0.00  0.00    -0.394 OA
ATOM     24  H   LIG    1       29.086 -19.547   4.923  0.00  0.00    +0.209 HD
ENDBRANCH  22  23
ENDBRANCH  15  22
ENDBRANCH  13  15
ENDBRANCH   1  13
TORSDOF 6
ENDMDL
MODEL 3
REMARK VINA RESULT:      -2.4      1.470      1.935
REMARK  Name = *****
REMARK                            x       y       z     vdW  Elec       q    Type
REMARK                         _______ _______ _______ _____ _____    ______ ____
ROOT
ATOM      1  O   LIG    1       24.605 -16.576   3.401  0.00  0.00    -0.461 OA
ENDROOT
BRANCH   1  10
ATOM      2  C   LIG    1       27.245 -13.866   6.044  0.00  0.00    +0.193 C 
ATOM      3  N   LIG    1       27.112 -13.494   4.577  0.00  0.00    +0.247 N 
ATOM      4  C   LIG    1       27.957 -12.222   4.390  0.00  0.00    +0.193 C 
ATOM      5  C   LIG    1       27.530 -14.572   3.540  0.00  0.00    +0.102 C 
ATOM      6  C   LIG    1       26.998 -14.068   2.209  0.00  0.00    +0.201 C 
ATOM      7  C   LIG    1       25.800 -13.221   2.540  0.00  0.00    +0.201 C 
ATOM      8  O   LIG    1       25.680 -14.440   1.812  0.00  0.00    -0.357 OA
ATOM      9  C   LIG    1       26.879 -15.911   3.912  0.00  0.00    +0.102 C 
ATOM     10  C   LIG    1       25.395 -15.824   4.342  0.00  0.00    +0.187 C 
ATOM     11  C   LIG    1       24.779 -14.410   4.507  0.00  0.00    +0.102 C 
ATOM     12  C   LIG    1       25.674 -13.252   4.055  0.00  0.00    +0.102 C 
ENDBRANCH   1  10
BRANCH   1  13
ATOM     13  C   LIG    1       24.873 -17.919   3.356  0.00  0.00    +0.317 C 
ATOM     14  O   LIG    1       25.950 -18.386   2.993  0.00  0.00    -0.250 OA
BRANCH  13  15
ATOM     15  C   LIG    1       23.673 -18.715   3.826  0.00  0.00    +0.153 C 
BRANCH  15  16
ATOM     16  C   LIG    1       24.041 -19.680   4.936  0.00  0.00    -0.032 A 
ATOM     17  C   LIG    1       25.343 -20.184   5.071  0.00  0.00    +0.004 A 
ATOM     18  C   LIG    1       25.658 -21.071   6.101  0.00  0.00    +0.000 A 
ATOM     19  C   LIG    1       24.677 -21.470   7.006  0.00  0.00    +0.000 A 
ATOM     20  C   LIG    1       23.379 -20.981   6.883  0.00  0.00    +0.000 A 
ATOM     21  C   LIG    1       23.061 -20.090   5.855  0.00  0.00    +0.004 A 
ENDBRANCH  15  16
BRANCH  15  22
ATOM     22  C   LIG    1       22.553 -17.748   4.223  0.00  0.00    +0.175 C 
BRANCH  22  23
ATOM     23  O   LIG    1       21.310 -18.189   3.671  0.00  0.00    -0.394 OA
ATOM     24  H   LIG    1       20.797 -17.386   3.466  0.00  0.00    +0.209 HD
ENDBRANCH  22  23
ENDBRANCH  15  22
ENDBRANCH  13  15
ENDBRANCH   1  13
TORSDOF 6
ENDMDL
MODEL 4
REMARK VINA RESULT:      -2.3      1.973      2.789
REMARK  Name = *****
REMARK                            x       y       z     vdW  Elec       q    Type
REMARK                         _______ _______ _______ _____ _____    ______ ____
ROOT
ATOM      1  O   LIG    1       25.204 -16.938   3.253  0.00  0.00    -0.461 OA
ENDROOT
BRANCH   1  10
ATOM      2  C   LIG    1       26.976 -13.886   6.226  0.00  0.00    +0.193 C 
ATOM      3  N   LIG    1       26.989 -13.513   4.753  0.00  0.00    +0.247 N 
ATOM      4  C   LIG    1       27.633 -12.118   4.680  0.00  0.00    +0.193 C 
ATOM      5  C   LIG    1       27.716 -14.489   3.790  0.00  0.00    +0.102 C 
ATOM      6  C   LIG    1       27.298 -14.055   2.395  0.00  0.00    +0.201 C 
ATOM      7  C   LIG    1       25.945 -13.418   2.552  0.00  0.00    +0.201 C 
ATOM      8  O   LIG    1       26.126 -14.627   1.820  0.00  0.00    -0.357 OA
ATOM      9  C   LIG    1       27.247 -15.923   4.072  0.00  0.00    +0.102 C 
ATOM     10  C   LIG    1       25.724 -16.085   4.291  0.00  0.00    +0.187 C 
ATOM     11  C   LIG    1       24.869 -14.793   4.363  0.00  0.00    +0.102 C 
ATOM     12  C   LIG    1       25.617 -13.498   4.035  0.00  0.00    +0.102 C 
ENDBRANCH   1  10
BRANCH   1  13
ATOM     13  C   LIG    1       24.484 -18.018   3.690  0.00  0.00    +0.317 C 
ATOM     14  O   LIG    1       23.356 -17.935   4.169  0.00  0.00    -0.250 OA
BRANCH  13  15
ATOM     15  C   LIG    1       25.268 -19.297   3.481  0.00  0.00    +0.153 C 
BRANCH  15  16
ATOM     16  C   LIG    1       26.006 -19.715   4.738  0.00  0.00    -0.032 A 
ATOM     17  C   LIG    1       25.353 -20.380   5.787  0.00  0.00    +0.004 A 
ATOM     18  C   LIG    1       26.053 -20.754   6.935  0.00  0.00    +0.000 A 
ATOM     19  C   LIG    1       27.411 -20.466   7.052  0.00  0.00    +0.000 A 
ATOM     20  C   LIG    1       28.071 -19.804   6.020  0.00  0.00    +0.000 A 
ATOM     21  C   LIG    1       27.375 -19.431   4.869  0.00  0.00    +0.004 A 
ENDBRANCH  15  16
BRANCH  15  22
ATOM     22  C   LIG    1       24.324 -20.384   2.955  0.00  0.00    +0.175 C 
BRANCH  22  23
ATOM     23  O   LIG    1       23.385 -20.746   3.970  0.00  0.00    -0.394 OA
ATOM     24  H   LIG    1       23.720 -21.566   4.377  0.00  0.00    +0.209 HD
ENDBRANCH  22  23
ENDBRANCH  15  22
ENDBRANCH  13  15
ENDBRANCH   1  13
TORSDOF 6
ENDMDL
MODEL 5
REMARK VINA RESULT:      -1.7      2.187      3.396
REMARK  Name = *****
REMARK                            x       y       z     vdW  Elec       q    Type
REMARK                         _______ _______ _______ _____ _____    ______ ____
ROOT
ATOM      1  O   LIG    1       25.355 -17.051   4.064  0.00  0.00    -0.461 OA
ENDROOT
BRANCH   1  10
ATOM      2  C   LIG    1       24.434 -13.125   1.819  0.00  0.00    +0.193 C 
ATOM      3  N   LIG    1       25.584 -13.107   2.813  0.00  0.00    +0.247 N 
ATOM      4  C   LIG    1       26.150 -11.678   2.771  0.00  0.00    +0.193 C 
ATOM      5  C   LIG    1       25.252 -13.510   4.274  0.00  0.00    +0.102 C 
ATOM      6  C   LIG    1       26.600 -13.718   4.944  0.00  0.00    +0.201 C 
ATOM      7  C   LIG    1       27.546 -14.121   3.847  0.00  0.00    +0.201 C 
ATOM      8  O   LIG    1       27.195 -15.013   4.902  0.00  0.00    -0.357 OA
ATOM      9  C   LIG    1       24.443 -14.815   4.270  0.00  0.00    +0.102 C 
ATOM     10  C   LIG    1       24.954 -15.901   3.294  0.00  0.00    +0.187 C 
ATOM     11  C   LIG    1       26.103 -15.512   2.326  0.00  0.00    +0.102 C 
ATOM     12  C   LIG    1       26.720 -14.132   2.569  0.00  0.00    +0.102 C 
ENDBRANCH   1  10
BRANCH   1  13
ATOM     13  C   LIG    1       24.532 -18.141   3.957  0.00  0.00    +0.317 C 
ATOM     14  O   LIG    1       23.309 -18.083   4.061  0.00  0.00    -0.250 OA
BRANCH  13  15
ATOM     15  C   LIG    1       25.342 -19.391   3.681  0.00  0.00    +0.153 C 
BRANCH  15  16
ATOM     16  C   LIG    1       26.206 -19.773   4.867  0.00  0.00    -0.032 A 
ATOM     17  C   LIG    1       25.707 -20.555   5.920  0.00  0.00    +0.004 A 
ATOM     18  C   LIG    1       26.521 -20.892   7.001  0.00  0.00    +0.000 A 
ATOM     19  C   LIG    1       27.842 -20.452   7.048  0.00  0.00    +0.000 A 
ATOM     20  C   LIG    1       28.350 -19.672   6.012  0.00  0.00    +0.000 A 
ATOM     21  C   LIG    1       27.539 -19.334   4.927  0.00  0.00    +0.004 A 
ENDBRANCH  15  16
BRANCH  15  22
ATOM     22  C   LIG    1       24.396 -20.516   3.247  0.00  0.00    +0.175 C 
BRANCH  22  23
ATOM     23  O   LIG    1       23.516 -20.855   4.322  0.00  0.00    -0.394 OA
ATOM     24  H   LIG    1       24.077 -20.977   5.109  0.00  0.00    +0.209 HD
ENDBRANCH  22  23
ENDBRANCH  15  22
ENDBRANCH  13  15
ENDBRANCH   1  13
TORSDOF 6
ENDMDL
MODEL 6
REMARK VINA RESULT:      -1.5      1.167      1.799
REMARK  Name = *****
REMARK                            x       y       z     vdW  Elec       q    Type
REMARK                         _______ _______ _______ _____ _____    ______ ____
ROOT
ATOM      1  O   LIG    1       23.673 -16.145   4.311  0.00  0.00    -0.461 OA
ENDROOT
BRANCH   1  10
ATOM      2  C   LIG    1       23.865 -11.608   3.489  0.00  0.00    +0.193 C 
ATOM      3  N   LIG    1       25.081 -12.438   3.109  0.00  0.00    +0.247 N 
ATOM      4  C   LIG    1       26.093 -11.447   2.511  0.00  0.00    +0.193 C 
ATOM      5  C   LIG    1       25.745 -13.266   4.242  0.00  0.00    +0.102 C 
ATOM      6  C   LIG    1       26.693 -14.219   3.534  0.00  0.00    +0.201 C 
ATOM      7  C   LIG    1       26.106 -14.439   2.167  0.00  0.00    +0.201 C 
ATOM      8  O   LIG    1       26.203 -15.493   3.122  0.00  0.00    -0.357 OA
ATOM      9  C   LIG    1       24.663 -14.044   5.003  0.00  0.00    +0.102 C 
ATOM     10  C   LIG    1       23.593 -14.721   4.114  0.00  0.00    +0.187 C 
ATOM     11  C   LIG    1       23.627 -14.415   2.593  0.00  0.00    +0.102 C 
ATOM     12  C   LIG    1       24.836 -13.604   2.119  0.00  0.00    +0.102 C 
ENDBRANCH   1  10
BRANCH   1  13
ATOM     13  C   LIG    1       22.502 -16.750   4.686  0.00  0.00    +0.317 C 
ATOM     14  O   LIG    1       21.719 -16.269   5.502  0.00  0.00    -0.250 OA
BRANCH  13  15
ATOM     15  C   LIG    1       22.320 -18.059   3.945  0.00  0.00    +0.153 C 
BRANCH  15  16
ATOM     16  C   LIG    1       23.236 -19.141   4.486  0.00  0.00    -0.032 A 
ATOM     17  C   LIG    1       24.470 -19.428   3.883  0.00  0.00    +0.004 A 
ATOM     18  C   LIG    1       25.295 -20.429   4.398  0.00  0.00    +0.000 A 
ATOM     19  C   LIG    1       24.898 -21.157   5.518  0.00  0.00    +0.000 A 
ATOM     20  C   LIG    1       23.674 -20.884   6.125  0.00  0.00    +0.000 A 
ATOM     21  C   LIG    1       22.847 -19.882   5.614  0.00  0.00    +0.004 A 
ENDBRANCH  15  16
BRANCH  15  22
ATOM     22  C   LIG    1       20.841 -18.456   3.983  0.00  0.00    +0.175 C 
BRANCH  22  23
ATOM     23  O   LIG    1       20.213 -18.112   2.746  0.00  0.00    -0.394 OA
ATOM     24  H   LIG    1       19.900 -18.947   2.353  0.00  0.00    +0.209 HD
ENDBRANCH  22  23
ENDBRANCH  15  22
ENDBRANCH  13  15
ENDBRANCH   1  13
TORSDOF 6
ENDMDL
MODEL 7
REMARK VINA RESULT:      -1.3      1.583      2.428
REMARK  Name = *****
REMARK                            x       y       z     vdW  Elec       q    Type
REMARK                         _______ _______ _______ _____ _____    ______ ____
ROOT
ATOM      1  O   LIG    1       25.027 -16.674   3.595  0.00  0.00    -0.461 OA
ENDROOT
BRANCH   1  10
ATOM      2  C   LIG    1       28.545 -13.820   2.711  0.00  0.00    +0.193 C 
ATOM      3  N   LIG    1       27.430 -13.298   3.601  0.00  0.00    +0.247 N 
ATOM      4  C   LIG    1       27.835 -11.864   3.981  0.00  0.00    +0.193 C 
ATOM      5  C   LIG    1       25.996 -13.311   3.008  0.00  0.00    +0.102 C 
ATOM      6  C   LIG    1       25.075 -13.058   4.189  0.00  0.00    +0.201 C 
ATOM      7  C   LIG    1       25.804 -13.580   5.397  0.00  0.00    +0.201 C 
ATOM      8  O   LIG    1       24.594 -14.173   4.936  0.00  0.00    -0.357 OA
ATOM      9  C   LIG    1       25.715 -14.687   2.389  0.00  0.00    +0.102 C 
ATOM     10  C   LIG    1       26.185 -15.895   3.234  0.00  0.00    +0.187 C 
ATOM     11  C   LIG    1       27.015 -15.598   4.510  0.00  0.00    +0.102 C 
ATOM     12  C   LIG    1       27.130 -14.117   4.881  0.00  0.00    +0.102 C 
ENDBRANCH   1  10
BRANCH   1  13
ATOM     13  C   LIG    1       25.123 -18.016   3.335  0.00  0.00    +0.317 C 
ATOM     14  O   LIG    1       26.104 -18.540   2.814  0.00  0.00    -0.250 OA
BRANCH  13  15
ATOM     15  C   LIG    1       23.871 -18.735   3.794  0.00  0.00    +0.153 C 
BRANCH  15  16
ATOM     16  C   LIG    1       24.160 -19.690   4.936  0.00  0.00    -0.032 A 
ATOM     17  C   LIG    1       25.446 -20.206   5.156  0.00  0.00    +0.004 A 
ATOM     18  C   LIG    1       25.688 -21.084   6.213  0.00  0.00    +0.000 A 
ATOM     19  C   LIG    1       24.650 -21.461   7.061  0.00  0.00    +0.000 A 
ATOM     20  C   LIG    1       23.367 -20.960   6.854  0.00  0.00    +0.000 A 
ATOM     21  C   LIG    1       23.122 -20.079   5.799  0.00  0.00    +0.004 A 
ENDBRANCH  15  16
BRANCH  15  22
ATOM     22  C   LIG    1       22.796 -17.699   4.141  0.00  0.00    +0.175 C 
BRANCH  22  23
ATOM     23  O   LIG    1       21.498 -18.238   3.879  0.00  0.00    -0.394 OA
ATOM     24  H   LIG    1       21.207 -18.672   4.701  0.00  0.00    +0.209 HD
ENDBRANCH  22  23
ENDBRANCH  15  22
ENDBRANCH  13  15
ENDBRANCH   1  13
TORSDOF 6
ENDMDL
MODEL 8
REMARK VINA RESULT:      -0.8      2.081      3.423
REMARK  Name = *****
REMARK                            x       y       z     vdW  Elec       q    Type
REMARK                         _______ _______ _______ _____ _____    ______ ____
ROOT
ATOM      1  O   LIG    1       25.555 -16.665   3.414  0.00  0.00    -0.461 OA
ENDROOT
BRANCH   1  10
ATOM      2  C   LIG    1       29.051 -13.656   3.249  0.00  0.00    +0.193 C 
ATOM      3  N   LIG    1       27.759 -13.190   3.901  0.00  0.00    +0.247 N 
ATOM      4  C   LIG    1       28.018 -11.744   4.355  0.00  0.00    +0.193 C 
ATOM      5  C   LIG    1       26.473 -13.258   3.035  0.00  0.00    +0.102 C 
ATOM      6  C   LIG    1       25.327 -13.056   4.011  0.00  0.00    +0.201 C 
ATOM      7  C   LIG    1       25.825 -13.558   5.338  0.00  0.00    +0.201 C 
ATOM      8  O   LIG    1       24.756 -14.198   4.646  0.00  0.00    -0.357 OA
ATOM      9  C   LIG    1       26.381 -14.639   2.371  0.00  0.00    +0.102 C 
ATOM     10  C   LIG    1       26.726 -15.834   3.290  0.00  0.00    +0.187 C 
ATOM     11  C   LIG    1       27.274 -15.514   4.706  0.00  0.00    +0.102 C 
ATOM     12  C   LIG    1       27.248 -14.034   5.095  0.00  0.00    +0.102 C 
ENDBRANCH   1  10
BRANCH   1  13
ATOM     13  C   LIG    1       25.773 -18.008   3.253  0.00  0.00    +0.317 C 
ATOM     14  O   LIG    1       26.059 -18.526   2.176  0.00  0.00    -0.250 OA
BRANCH  13  15
ATOM     15  C   LIG    1       25.626 -18.731   4.576  0.00  0.00    +0.153 C 
BRANCH  15  16
ATOM     16  C   LIG    1       24.288 -19.437   4.683  0.00  0.00    -0.032 A 
ATOM     17  C   LIG    1       23.115 -18.873   4.160  0.00  0.00    +0.004 A 
ATOM     18  C   LIG    1       21.895 -19.542   4.271  0.00  0.00    +0.000 A 
ATOM     19  C   LIG    1       21.830 -20.778   4.909  0.00  0.00    +0.000 A 
ATOM     20  C   LIG    1       22.986 -21.349   5.436  0.00  0.00    +0.000 A 
ATOM     21  C   LIG    1       24.209 -20.684   5.324  0.00  0.00    +0.004 A 
ENDBRANCH  15  16
BRANCH  15  22
ATOM     22  C   LIG    1       26.817 -19.677   4.766  0.00  0.00    +0.175 C 
BRANCH  22  23
ATOM     23  O   LIG    1       28.035 -18.929   4.782  0.00  0.00    -0.394 OA
ATOM     24  H   LIG    1       28.470 -19.089   3.925  0.00  0.00    +0.209 HD
ENDBRANCH  22  23
ENDBRANCH  15  22
ENDBRANCH  13  15
ENDBRANCH   1  13
TORSDOF 6
ENDMDL
MODEL 9
REMARK VINA RESULT:      -0.3      1.473      2.158
REMARK  Name = *****
REMARK                            x       y       z     vdW  Elec       q    Type
REMARK                         _______ _______ _______ _____ _____    ______ ____
ROOT
ATOM      1  O   LIG    1       23.878 -15.718   3.685  0.00  0.00    -0.461 OA
ENDROOT
BRANCH   1  10
ATOM      2  C   LIG    1       27.212 -13.461   5.940  0.00  0.00    +0.193 C 
ATOM      3  N   LIG    1       27.156 -13.296   4.431  0.00  0.00    +0.247 N 
ATOM      4  C   LIG    1       28.312 -12.347   4.070  0.00  0.00    +0.193 C 
ATOM      5  C   LIG    1       27.241 -14.592   3.580  0.00  0.00    +0.102 C 
ATOM      6  C   LIG    1       26.839 -14.172   2.177  0.00  0.00    +0.201 C 
ATOM      7  C   LIG    1       25.926 -12.989   2.348  0.00  0.00    +0.201 C 
ATOM      8  O   LIG    1       25.461 -14.226   1.812  0.00  0.00    -0.357 OA
ATOM      9  C   LIG    1       26.257 -15.630   4.138  0.00  0.00    +0.102 C 
ATOM     10  C   LIG    1       24.863 -15.076   4.517  0.00  0.00    +0.187 C 
ATOM     11  C   LIG    1       24.660 -13.539   4.451  0.00  0.00    +0.102 C 
ATOM     12  C   LIG    1       25.828 -12.753   3.847  0.00  0.00    +0.102 C 
ENDBRANCH   1  10
BRANCH   1  13
ATOM     13  C   LIG    1       23.185 -16.738   4.282  0.00  0.00    +0.317 C 
ATOM     14  O   LIG    1       22.029 -16.632   4.685  0.00  0.00    -0.250 OA
BRANCH  13  15
ATOM     15  C   LIG    1       24.038 -17.988   4.351  0.00  0.00    +0.153 C 
BRANCH  15  16
ATOM     16  C   LIG    1       23.209 -19.216   4.674  0.00  0.00    -0.032 A 
ATOM     17  C   LIG    1       23.648 -20.177   5.598  0.00  0.00    +0.004 A 
ATOM     18  C   LIG    1       22.868 -21.299   5.879  0.00  0.00    +0.000 A 
ATOM     19  C   LIG    1       21.643 -21.478   5.241  0.00  0.00    +0.000 A 
ATOM     20  C   LIG    1       21.195 -20.534   4.320  0.00  0.00    +0.000 A 
ATOM     21  C   LIG    1       21.972 -19.409   4.038  0.00  0.00    +0.004 A 
ENDBRANCH  15  16
BRANCH  15  22
ATOM     22  C   LIG    1       24.828 -18.130   3.045  0.00  0.00    +0.175 C 
BRANCH  22  23
ATOM     23  O   LIG    1       25.699 -19.260   3.123  0.00  0.00    -0.394 OA
ATOM     24  H   LIG    1       25.845 -19.561   2.207  0.00  0.00    +0.209 HD
ENDBRANCH  22  23
ENDBRANCH  15  22
ENDBRANCH  13  15
ENDBRANCH   1  13
TORSDOF 6
ENDMDL
