MODEL 1
REMARK VINA RESULT:      -5.1      0.000      0.000
REMARK  Name = *****
REMARK                            x       y       z     vdW  Elec       q    Type
REMARK                         _______ _______ _______ _____ _____    ______ ____
ROOT
ATOM      1  C   LIG    1       23.988 -20.073   4.837  0.00  0.00    +0.139 A 
ATOM      2  C   LIG    1       24.357 -20.752   6.011  0.00  0.00    +0.083 A 
ATOM      3 CL   LIG    1       23.173 -21.453   7.061  0.00  0.00    -0.080 Cl
ATOM      4  C   LIG    1       25.705 -20.885   6.374  0.00  0.00    +0.028 A 
ATOM      5  C   LIG    1       26.711 -20.341   5.566  0.00  0.00    -0.035 A 
ATOM      6  C   LIG    1       26.344 -19.683   4.388  0.00  0.00    +0.008 A 
ATOM      7  C   LIG    1       25.002 -19.566   4.020  0.00  0.00    +0.047 A 
ENDROOT
BRANCH   1   8
ATOM      8  O   LIG    1       22.647 -19.928   4.589  0.00  0.00    -0.486 OA
BRANCH   8   9
ATOM      9  C   LIG    1       22.216 -18.773   3.872  0.00  0.00    +0.256 C 
BRANCH   9  11
ATOM     10  C   LIG    1       22.538 -16.361   4.513  0.00  0.00    +0.007 C 
ATOM     11  C   LIG    1       22.180 -17.614   4.820  0.00  0.00    +0.006 C 
ENDBRANCH   9  11
ENDBRANCH   8   9
ENDBRANCH   1   8
BRANCH   5  12
ATOM     12  C   LIG    1       28.167 -20.439   5.944  0.00  0.00    +0.155 C 
BRANCH  12  13
ATOM     13  C   LIG    1       28.856 -19.092   6.030  0.00  0.00    +0.309 C 
ATOM     14  O   LIG    1       29.301 -18.623   7.061  0.00  0.00    -0.251 OA
BRANCH  13  15
ATOM     15  O   LIG    1       28.951 -18.451   4.840  0.00  0.00    -0.480 OA
ATOM     16  H   LIG    1       28.974 -17.479   4.916  0.00  0.00    +0.295 HD
ENDBRANCH  13  15
ENDBRANCH  12  13
ENDBRANCH   5  12
TORSDOF 6
ENDMDL
MODEL 2
REMARK VINA RESULT:      -5.0      3.111      4.908
REMARK  Name = *****
REMARK                            x       y       z     vdW  Elec       q    Type
REMARK                         _______ _______ _______ _____ _____    ______ ____
ROOT
ATOM      1  C   LIG    1       26.414 -17.922   3.726  0.00  0.00    +0.139 A 
ATOM      2  C   LIG    1       27.051 -18.836   4.582  0.00  0.00    +0.083 A 
ATOM      3 CL   LIG    1       28.654 -18.557   5.171  0.00  0.00    -0.080 Cl
ATOM      4  C   LIG    1       26.405 -20.011   4.991  0.00  0.00    +0.028 A 
ATOM      5  C   LIG    1       25.107 -20.294   4.551  0.00  0.00    -0.035 A 
ATOM      6  C   LIG    1       24.466 -19.375   3.714  0.00  0.00    +0.008 A 
ATOM      7  C   LIG    1       25.105 -18.197   3.321  0.00  0.00    +0.047 A 
ENDROOT
BRANCH   1   8
ATOM      8  O   LIG    1       27.138 -16.831   3.319  0.00  0.00    -0.486 OA
BRANCH   8   9
ATOM      9  C   LIG    1       26.494 -15.557   3.317  0.00  0.00    +0.256 C 
BRANCH   9  11
ATOM     10  C   LIG    1       27.070 -13.694   4.905  0.00  0.00    +0.007 C 
ATOM     11  C   LIG    1       27.416 -14.560   3.945  0.00  0.00    +0.006 C 
ENDBRANCH   9  11
ENDBRANCH   8   9
ENDBRANCH   1   8
BRANCH   5  12
ATOM     12  C   LIG    1       24.398 -21.565   4.947  0.00  0.00    +0.155 C 
BRANCH  12  13
ATOM     13  C   LIG    1       23.135 -21.321   5.749  0.00  0.00    +0.309 C 
ATOM     14  O   LIG    1       23.130 -20.922   6.899  0.00  0.00    -0.251 OA
BRANCH  13  15
ATOM     15  O   LIG    1       21.995 -21.572   5.062  0.00  0.00    -0.480 OA
ATOM     16  H   LIG    1       21.645 -20.798   4.582  0.00  0.00    +0.295 HD
ENDBRANCH  13  15
ENDBRANCH  12  13
ENDBRANCH   5  12
TORSDOF 6
ENDMDL
MODEL 3
REMARK VINA RESULT:      -4.7      3.706      5.770
REMARK  Name = *****
REMARK                            x       y       z     vdW  Elec       q    Type
REMARK                         _______ _______ _______ _____ _____    ______ ____
ROOT
ATOM      1  C   LIG    1       25.458 -16.405   3.350  0.00  0.00    +0.139 A 
ATOM      2  C   LIG    1       24.254 -15.876   3.843  0.00  0.00    +0.083 A 
ATOM      3 CL   LIG    1       24.000 -14.169   3.970  0.00  0.00    -0.080 Cl
ATOM      4  C   LIG    1       23.210 -16.719   4.251  0.00  0.00    +0.028 A 
ATOM      5  C   LIG    1       23.352 -18.109   4.172  0.00  0.00    -0.035 A 
ATOM      6  C   LIG    1       24.544 -18.635   3.663  0.00  0.00    +0.008 A 
ATOM      7  C   LIG    1       25.576 -17.793   3.242  0.00  0.00    +0.047 A 
ENDROOT
BRANCH   1   8
ATOM      8  O   LIG    1       26.454 -15.516   3.035  0.00  0.00    -0.486 OA
BRANCH   8   9
ATOM      9  C   LIG    1       27.446 -15.238   4.023  0.00  0.00    +0.256 C 
BRANCH   9  11
ATOM     10  C   LIG    1       28.679 -13.057   3.801  0.00  0.00    +0.007 C 
ATOM     11  C   LIG    1       27.588 -13.753   4.145  0.00  0.00    +0.006 C 
ENDBRANCH   9  11
ENDBRANCH   8   9
ENDBRANCH   1   8
BRANCH   5  12
ATOM     12  C   LIG    1       22.261 -19.043   4.633  0.00  0.00    +0.155 C 
BRANCH  12  13
ATOM     13  C   LIG    1       22.786 -20.264   5.362  0.00  0.00    +0.309 C 
ATOM     14  O   LIG    1       23.148 -20.255   6.524  0.00  0.00    -0.251 OA
BRANCH  13  15
ATOM     15  O   LIG    1       22.802 -21.387   4.604  0.00  0.00    -0.480 OA
ATOM     16  H   LIG    1       21.960 -21.565   4.146  0.00  0.00    +0.295 HD
ENDBRANCH  13  15
ENDBRANCH  12  13
ENDBRANCH   5  12
TORSDOF 6
ENDMDL
MODEL 4
REMARK VINA RESULT:      -4.6      3.830      5.506
REMARK  Name = *****
REMARK                            x       y       z     vdW  Elec       q    Type
REMARK                         _______ _______ _______ _____ _____    ______ ____
ROOT
ATOM      1  C   LIG    1       24.658 -17.904   3.651  0.00  0.00    +0.139 A 
ATOM      2  C   LIG    1       23.689 -16.983   4.086  0.00  0.00    +0.083 A 
ATOM      3 CL   LIG    1       22.119 -17.497   4.601  0.00  0.00    -0.080 Cl
ATOM      4  C   LIG    1       23.965 -15.608   4.117  0.00  0.00    +0.028 A 
ATOM      5  C   LIG    1       25.216 -15.129   3.715  0.00  0.00    -0.035 A 
ATOM      6  C   LIG    1       26.186 -16.047   3.301  0.00  0.00    +0.008 A 
ATOM      7  C   LIG    1       25.916 -17.418   3.286  0.00  0.00    +0.047 A 
ENDROOT
BRANCH   1   8
ATOM      8  O   LIG    1       24.288 -19.223   3.586  0.00  0.00    -0.486 OA
BRANCH   8   9
ATOM      9  C   LIG    1       25.111 -20.187   4.241  0.00  0.00    +0.256 C 
BRANCH   9  11
ATOM     10  C   LIG    1       23.254 -20.576   5.892  0.00  0.00    +0.007 C 
ATOM     11  C   LIG    1       24.554 -20.434   5.608  0.00  0.00    +0.006 C 
ENDBRANCH   9  11
ENDBRANCH   8   9
ENDBRANCH   1   8
BRANCH   5  12
ATOM     12  C   LIG    1       25.533 -13.655   3.706  0.00  0.00    +0.155 C 
BRANCH  12  13
ATOM     13  C   LIG    1       24.302 -12.778   3.583  0.00  0.00    +0.309 C 
ATOM     14  O   LIG    1       23.832 -12.138   4.505  0.00  0.00    -0.251 OA
BRANCH  13  15
ATOM     15  O   LIG    1       23.772 -12.755   2.336  0.00  0.00    -0.480 OA
ATOM     16  H   LIG    1       24.355 -12.351   1.668  0.00  0.00    +0.295 HD
ENDBRANCH  13  15
ENDBRANCH  12  13
ENDBRANCH   5  12
TORSDOF 6
ENDMDL
MODEL 5
REMARK VINA RESULT:      -4.4      2.227      5.891
REMARK  Name = *****
REMARK                            x       y       z     vdW  Elec       q    Type
REMARK                         _______ _______ _______ _____ _____    ______ ____
ROOT
ATOM      1  C   LIG    1       25.480 -20.449   6.454  0.00  0.00    +0.139 A 
ATOM      2  C   LIG    1       25.416 -19.949   5.143  0.00  0.00    +0.083 A 
ATOM      3 CL   LIG    1       26.839 -19.452   4.293  0.00  0.00    -0.080 Cl
ATOM      4  C   LIG    1       24.188 -19.835   4.474  0.00  0.00    +0.028 A 
ATOM      5  C   LIG    1       23.001 -20.221   5.106  0.00  0.00    -0.035 A 
ATOM      6  C   LIG    1       23.067 -20.736   6.404  0.00  0.00    +0.008 A 
ATOM      7  C   LIG    1       24.292 -20.865   7.062  0.00  0.00    +0.047 A 
ENDROOT
BRANCH   1   8
ATOM      8  O   LIG    1       26.709 -20.465   7.062  0.00  0.00    -0.486 OA
BRANCH   8   9
ATOM      9  C   LIG    1       27.575 -21.568   6.800  0.00  0.00    +0.256 C 
BRANCH   9  11
ATOM     10  C   LIG    1       29.384 -19.820   6.763  0.00  0.00    +0.007 C 
ATOM     11  C   LIG    1       28.991 -21.092   6.902  0.00  0.00    +0.006 C 
ENDBRANCH   9  11
ENDBRANCH   8   9
ENDBRANCH   1   8
BRANCH   5  12
ATOM     12  C   LIG    1       21.662 -20.081   4.426  0.00  0.00    +0.155 C 
BRANCH  12  13
ATOM     13  C   LIG    1       21.337 -18.654   4.031  0.00  0.00    +0.309 C 
ATOM     14  O   LIG    1       21.940 -17.682   4.446  0.00  0.00    -0.251 OA
BRANCH  13  15
ATOM     15  O   LIG    1       20.313 -18.552   3.149  0.00  0.00    -0.480 OA
ATOM     16  H   LIG    1       20.508 -17.982   2.382  0.00  0.00    +0.295 HD
ENDBRANCH  13  15
ENDBRANCH  12  13
ENDBRANCH   5  12
TORSDOF 6
ENDMDL
MODEL 6
REMARK VINA RESULT:      -4.4      3.937      5.848
REMARK  Name = *****
REMARK                            x       y       z     vdW  Elec       q    Type
REMARK                         _______ _______ _______ _____ _____    ______ ____
ROOT
ATOM      1  C   LIG    1       23.539 -17.499   4.005  0.00  0.00    +0.139 A 
ATOM      2  C   LIG    1       24.848 -17.202   3.590  0.00  0.00    +0.083 A 
ATOM      3 CL   LIG    1       25.931 -18.442   3.055  0.00  0.00    -0.080 Cl
ATOM      4  C   LIG    1       25.323 -15.883   3.595  0.00  0.00    +0.028 A 
ATOM      5  C   LIG    1       24.496 -14.835   4.015  0.00  0.00    -0.035 A 
ATOM      6  C   LIG    1       23.187 -15.129   4.410  0.00  0.00    +0.008 A 
ATOM      7  C   LIG    1       22.710 -16.442   4.388  0.00  0.00    +0.047 A 
ENDROOT
BRANCH   1   8
ATOM      8  O   LIG    1       23.172 -18.821   4.035  0.00  0.00    -0.486 OA
BRANCH   8   9
ATOM      9  C   LIG    1       22.474 -19.301   5.183  0.00  0.00    +0.256 C 
BRANCH   9  11
ATOM     10  C   LIG    1       23.402 -20.722   7.040  0.00  0.00    +0.007 C 
ATOM     11  C   LIG    1       23.224 -20.472   5.736  0.00  0.00    +0.006 C 
ENDBRANCH   9  11
ENDBRANCH   8   9
ENDBRANCH   1   8
BRANCH   5  12
ATOM     12  C   LIG    1       24.988 -13.411   4.063  0.00  0.00    +0.155 C 
BRANCH  12  13
ATOM     13  C   LIG    1       24.092 -12.442   3.317  0.00  0.00    +0.309 C 
ATOM     14  O   LIG    1       23.575 -11.466   3.828  0.00  0.00    -0.251 OA
BRANCH  13  15
ATOM     15  O   LIG    1       23.925 -12.750   2.008  0.00  0.00    -0.480 OA
ATOM     16  H   LIG    1       24.058 -13.695   1.806  0.00  0.00    +0.295 HD
ENDBRANCH  13  15
ENDBRANCH  12  13
ENDBRANCH   5  12
TORSDOF 6
ENDMDL
MODEL 7
REMARK VINA RESULT:      -4.3      4.127      5.610
REMARK  Name = *****
REMARK                            x       y       z     vdW  Elec       q    Type
REMARK                         _______ _______ _______ _____ _____    ______ ____
ROOT
ATOM      1  C   LIG    1       24.975 -14.613   4.034  0.00  0.00    +0.139 A 
ATOM      2  C   LIG    1       26.080 -15.339   3.561  0.00  0.00    +0.083 A 
ATOM      3 CL   LIG    1       27.597 -14.571   3.238  0.00  0.00    -0.080 Cl
ATOM      4  C   LIG    1       25.992 -16.721   3.333  0.00  0.00    +0.028 A 
ATOM      5  C   LIG    1       24.794 -17.401   3.576  0.00  0.00    -0.035 A 
ATOM      6  C   LIG    1       23.699 -16.681   4.065  0.00  0.00    +0.008 A 
ATOM      7  C   LIG    1       23.794 -15.309   4.307  0.00  0.00    +0.047 A 
ENDROOT
BRANCH   1   8
ATOM      8  O   LIG    1       25.123 -13.256   4.166  0.00  0.00    -0.486 OA
BRANCH   8   9
ATOM      9  C   LIG    1       23.945 -12.453   4.233  0.00  0.00    +0.256 C 
BRANCH   9  11
ATOM     10  C   LIG    1       24.623 -11.833   1.891  0.00  0.00    +0.007 C 
ATOM     11  C   LIG    1       23.828 -11.679   2.957  0.00  0.00    +0.006 C 
ENDBRANCH   9  11
ENDBRANCH   8   9
ENDBRANCH   1   8
BRANCH   5  12
ATOM     12  C   LIG    1       24.657 -18.879   3.311  0.00  0.00    +0.155 C 
BRANCH  12  13
ATOM     13  C   LIG    1       25.189 -19.742   4.438  0.00  0.00    +0.309 C 
ATOM     14  O   LIG    1       24.507 -20.149   5.360  0.00  0.00    -0.251 OA
BRANCH  13  15
ATOM     15  O   LIG    1       26.506 -20.041   4.320  0.00  0.00    -0.480 OA
ATOM     16  H   LIG    1       27.097 -19.278   4.458  0.00  0.00    +0.295 HD
ENDBRANCH  13  15
ENDBRANCH  12  13
ENDBRANCH   5  12
TORSDOF 6
ENDMDL
MODEL 8
REMARK VINA RESULT:      -4.3      3.206      4.227
REMARK  Name = *****
REMARK                            x       y       z     vdW  Elec       q    Type
REMARK                         _______ _______ _______ _____ _____    ______ ____
ROOT
ATOM      1  C   LIG    1       25.775 -19.692   4.349  0.00  0.00    +0.139 A 
ATOM      2  C   LIG    1       27.021 -19.306   4.871  0.00  0.00    +0.083 A 
ATOM      3 CL   LIG    1       27.952 -20.369   5.871  0.00  0.00    -0.080 Cl
ATOM      4  C   LIG    1       27.556 -18.039   4.597  0.00  0.00    +0.028 A 
ATOM      5  C   LIG    1       26.853 -17.134   3.794  0.00  0.00    -0.035 A 
ATOM      6  C   LIG    1       25.622 -17.526   3.259  0.00  0.00    +0.008 A 
ATOM      7  C   LIG    1       25.098 -18.794   3.519  0.00  0.00    +0.047 A 
ENDROOT
BRANCH   1   8
ATOM      8  O   LIG    1       25.291 -20.921   4.719  0.00  0.00    -0.486 OA
BRANCH   8   9
ATOM      9  C   LIG    1       23.893 -21.167   4.572  0.00  0.00    +0.256 C 
BRANCH   9  11
ATOM     10  C   LIG    1       23.647 -20.855   7.056  0.00  0.00    +0.007 C 
ATOM     11  C   LIG    1       23.196 -20.687   5.807  0.00  0.00    +0.006 C 
ENDBRANCH   9  11
ENDBRANCH   8   9
ENDBRANCH   1   8
BRANCH   5  12
ATOM     12  C   LIG    1       27.386 -15.753   3.506  0.00  0.00    +0.155 C 
BRANCH  12  13
ATOM     13  C   LIG    1       26.298 -14.741   3.208  0.00  0.00    +0.309 C 
ATOM     14  O   LIG    1       25.480 -14.364   4.027  0.00  0.00    -0.251 OA
BRANCH  13  15
ATOM     15  O   LIG    1       26.324 -14.271   1.937  0.00  0.00    -0.480 OA
ATOM     16  H   LIG    1       25.464 -14.322   1.481  0.00  0.00    +0.295 HD
ENDBRANCH  13  15
ENDBRANCH  12  13
ENDBRANCH   5  12
TORSDOF 6
ENDMDL
MODEL 9
REMARK VINA RESULT:      -4.2      3.807      5.706
REMARK  Name = *****
REMARK                            x       y       z     vdW  Elec       q    Type
REMARK                         _______ _______ _______ _____ _____    ______ ____
ROOT
ATOM      1  C   LIG    1       24.325 -15.605   3.960  0.00  0.00    +0.139 A 
ATOM      2  C   LIG    1       24.889 -16.868   3.717  0.00  0.00    +0.083 A 
ATOM      3 CL   LIG    1       26.520 -17.040   3.165  0.00  0.00    -0.080 Cl
ATOM      4  C   LIG    1       24.145 -18.040   3.916  0.00  0.00    +0.028 A 
ATOM      5  C   LIG    1       22.821 -17.969   4.364  0.00  0.00    -0.035 A 
ATOM      6  C   LIG    1       22.266 -16.712   4.624  0.00  0.00    +0.008 A 
ATOM      7  C   LIG    1       23.014 -15.547   4.441  0.00  0.00    +0.047 A 
ENDROOT
BRANCH   1   8
ATOM      8  O   LIG    1       25.096 -14.506   3.677  0.00  0.00    -0.486 OA
BRANCH   8   9
ATOM      9  C   LIG    1       25.525 -13.687   4.763  0.00  0.00    +0.256 C 
BRANCH   9  11
ATOM     10  C   LIG    1       27.795 -13.687   3.679  0.00  0.00    +0.007 C 
ATOM     11  C   LIG    1       27.022 -13.658   4.771  0.00  0.00    +0.006 C 
ENDBRANCH   9  11
ENDBRANCH   8   9
ENDBRANCH   1   8
BRANCH   5  12
ATOM     12  C   LIG    1       21.984 -19.209   4.556  0.00  0.00    +0.155 C 
BRANCH  12  13
ATOM     13  C   LIG    1       22.721 -20.323   5.273  0.00  0.00    +0.309 C 
ATOM     14  O   LIG    1       23.018 -20.291   6.452  0.00  0.00    -0.251 OA
BRANCH  13  15
ATOM     15  O   LIG    1       23.010 -21.384   4.480  0.00  0.00    -0.480 OA
ATOM     16  H   LIG    1       22.271 -21.659   3.905  0.00  0.00    +0.295 HD
ENDBRANCH  13  15
ENDBRANCH  12  13
ENDBRANCH   5  12
TORSDOF 6
ENDMDL
