MODEL 1
REMARK VINA RESULT:       3.7      0.000      0.000
REMARK  Name = *****
REMARK                            x       y       z     vdW  Elec       q    Type
REMARK                         _______ _______ _______ _____ _____    ______ ____
ROOT
ATOM      1  C   LIG    1       23.539 -13.283   2.690  0.00  0.00    +0.034 C 
ATOM      2  C   LIG    1       23.922 -13.629   4.129  0.00  0.00    +0.122 C 
ATOM      3  N   LIG    1       25.351 -13.978   4.204  0.00  0.00    -0.337 NA
ATOM      4  C   LIG    1       25.655 -15.352   4.052  0.00  0.00    +0.097 C 
ATOM      5  C   LIG    1       26.997 -15.755   3.980  0.00  0.00    +0.052 C 
ATOM      6  C   LIG    1       28.070 -14.736   4.067  0.00  0.00    +0.204 C 
ATOM      7  C   LIG    1       27.683 -13.314   4.190  0.00  0.00    +0.122 C 
ATOM      8  O   LIG    1       29.259 -15.049   4.031  0.00  0.00    -0.286 OA
ATOM      9  C   LIG    1       27.337 -17.095   3.808  0.00  0.00    +0.054 C 
ATOM     10  C   LIG    1       26.331 -18.049   3.692  0.00  0.00    +0.149 C 
ATOM     11  F   LIG    1       26.722 -19.324   3.544  0.00  0.00    -0.203 F 
ATOM     12  C   LIG    1       24.965 -17.717   3.755  0.00  0.00    +0.110 C 
ATOM     13  C   LIG    1       24.652 -16.345   3.958  0.00  0.00    +0.168 C 
ATOM     14  O   LIG    1       23.310 -16.006   3.997  0.00  0.00    -0.486 OA
ATOM     15  C   LIG    1       26.370 -13.043   4.245  0.00  0.00    +0.105 C 
ATOM     16  C   LIG    1       23.081 -14.778   4.692  0.00  0.00    +0.254 C 
ENDROOT
BRANCH  12  17
ATOM     17  N   LIG    1       23.924 -18.663   3.633  0.00  0.00    -0.322 NA
ATOM     18  C   LIG    1       22.796 -18.417   4.558  0.00  0.00    +0.120 C 
ATOM     19  C   LIG    1       21.588 -19.314   4.188  0.00  0.00    +0.103 C 
ATOM     20  N   LIG    1       21.876 -20.762   4.056  0.00  0.00    -0.302 NA
ATOM     21  C   LIG    1       22.088 -21.390   5.357  0.00  0.00    +0.105 C 
ATOM     22  C   LIG    1       23.050 -20.935   3.167  0.00  0.00    +0.103 C 
ATOM     23  C   LIG    1       24.291 -20.090   3.549  0.00  0.00    +0.120 C 
ENDBRANCH  12  17
BRANCH   7  24
ATOM     24  C   LIG    1       28.653 -12.201   4.238  0.00  0.00    +0.342 C 
ATOM     25  O   LIG    1       29.118 -11.672   3.238  0.00  0.00    -0.245 OA
BRANCH  24  26
ATOM     26  O   LIG    1       28.993 -11.807   5.484  0.00  0.00    -0.477 OA
ATOM     27  H   LIG    1       29.730 -11.148   5.512  0.00  0.00    +0.295 HD
ENDBRANCH  24  26
ENDBRANCH   7  24
TORSDOF 3
ENDMDL
MODEL 2
REMARK VINA RESULT:       4.2      2.588      7.567
REMARK  Name = *****
REMARK                            x       y       z     vdW  Elec       q    Type
REMARK                         _______ _______ _______ _____ _____    ______ ____
ROOT
ATOM      1  C   LIG    1       25.846 -19.663   1.831  0.00  0.00    +0.034 C 
ATOM      2  C   LIG    1       25.830 -19.487   3.350  0.00  0.00    +0.122 C 
ATOM      3  N   LIG    1       24.504 -19.024   3.793  0.00  0.00    -0.337 NA
ATOM      4  C   LIG    1       24.339 -17.621   3.874  0.00  0.00    +0.097 C 
ATOM      5  C   LIG    1       23.072 -17.092   4.161  0.00  0.00    +0.052 C 
ATOM      6  C   LIG    1       21.930 -18.013   4.377  0.00  0.00    +0.204 C 
ATOM      7  C   LIG    1       22.162 -19.467   4.243  0.00  0.00    +0.122 C 
ATOM      8  O   LIG    1       20.808 -17.592   4.653  0.00  0.00    -0.286 OA
ATOM      9  C   LIG    1       22.864 -15.716   4.227  0.00  0.00    +0.054 C 
ATOM     10  C   LIG    1       23.926 -14.849   3.991  0.00  0.00    +0.149 C 
ATOM     11  F   LIG    1       23.667 -13.537   4.085  0.00  0.00    -0.203 F 
ATOM     12  C   LIG    1       25.224 -15.310   3.698  0.00  0.00    +0.110 C 
ATOM     13  C   LIG    1       25.408 -16.719   3.664  0.00  0.00    +0.168 C 
ATOM     14  O   LIG    1       26.677 -17.179   3.353  0.00  0.00    -0.486 OA
ATOM     15  C   LIG    1       23.414 -19.860   3.961  0.00  0.00    +0.105 C 
ATOM     16  C   LIG    1       26.904 -18.506   3.831  0.00  0.00    +0.254 C 
ENDROOT
BRANCH  12  17
ATOM     17  N   LIG    1       26.318 -14.453   3.447  0.00  0.00    -0.322 NA
ATOM     18  C   LIG    1       27.548 -14.845   4.171  0.00  0.00    +0.120 C 
ATOM     19  C   LIG    1       28.763 -14.038   3.648  0.00  0.00    +0.103 C 
ATOM     20  N   LIG    1       28.596 -12.565   3.617  0.00  0.00    -0.302 NA
ATOM     21  C   LIG    1       28.649 -11.990   4.958  0.00  0.00    +0.105 C 
ATOM     22  C   LIG    1       27.320 -12.245   2.934  0.00  0.00    +0.103 C 
ATOM     23  C   LIG    1       26.079 -12.996   3.476  0.00  0.00    +0.120 C 
ENDBRANCH  12  17
BRANCH   7  24
ATOM     24  C   LIG    1       21.101 -20.484   4.386  0.00  0.00    +0.342 C 
ATOM     25  O   LIG    1       21.279 -21.571   4.919  0.00  0.00    -0.245 OA
BRANCH  24  26
ATOM     26  O   LIG    1       19.903 -20.121   3.878  0.00  0.00    -0.477 OA
ATOM     27  H   LIG    1       19.801 -19.146   3.745  0.00  0.00    +0.295 HD
ENDBRANCH  24  26
ENDBRANCH   7  24
TORSDOF 3
ENDMDL
MODEL 3
REMARK VINA RESULT:       5.6      1.836      3.072
REMARK  Name = *****
REMARK                            x       y       z     vdW  Elec       q    Type
REMARK                         _______ _______ _______ _____ _____    ______ ____
ROOT
ATOM      1  C   LIG    1       28.583 -17.591   5.509  0.00  0.00    +0.034 C 
ATOM      2  C   LIG    1       28.289 -17.229   4.052  0.00  0.00    +0.122 C 
ATOM      3  N   LIG    1       27.579 -15.941   3.983  0.00  0.00    -0.337 NA
ATOM      4  C   LIG    1       26.166 -16.018   3.994  0.00  0.00    +0.097 C 
ATOM      5  C   LIG    1       25.413 -14.836   4.063  0.00  0.00    +0.052 C 
ATOM      6  C   LIG    1       26.111 -13.530   4.119  0.00  0.00    +0.204 C 
ATOM      7  C   LIG    1       27.590 -13.521   4.140  0.00  0.00    +0.122 C 
ATOM      8  O   LIG    1       25.489 -12.469   4.157  0.00  0.00    -0.286 OA
ATOM      9  C   LIG    1       24.020 -14.871   4.098  0.00  0.00    +0.054 C 
ATOM     10  C   LIG    1       23.364 -16.097   4.079  0.00  0.00    +0.149 C 
ATOM     11  F   LIG    1       22.023 -16.064   4.099  0.00  0.00    -0.203 F 
ATOM     12  C   LIG    1       24.055 -17.322   4.011  0.00  0.00    +0.110 C 
ATOM     13  C   LIG    1       25.473 -17.250   3.949  0.00  0.00    +0.168 C 
ATOM     14  O   LIG    1       26.161 -18.452   3.907  0.00  0.00    -0.486 OA
ATOM     15  C   LIG    1       28.206 -14.711   4.075  0.00  0.00    +0.105 C 
ATOM     16  C   LIG    1       27.466 -18.309   3.343  0.00  0.00    +0.254 C 
ENDROOT
BRANCH  12  17
ATOM     17  N   LIG    1       23.414 -18.580   3.998  0.00  0.00    -0.322 NA
ATOM     18  C   LIG    1       22.232 -18.645   4.885  0.00  0.00    +0.120 C 
ATOM     19  C   LIG    1       21.429 -19.944   4.620  0.00  0.00    +0.103 C 
ATOM     20  N   LIG    1       22.208 -21.204   4.660  0.00  0.00    -0.302 NA
ATOM     21  C   LIG    1       22.567 -21.572   6.028  0.00  0.00    +0.105 C 
ATOM     22  C   LIG    1       23.407 -21.051   3.802  0.00  0.00    +0.103 C 
ATOM     23  C   LIG    1       24.258 -19.789   4.084  0.00  0.00    +0.120 C 
ENDBRANCH  12  17
BRANCH   7  24
ATOM     24  C   LIG    1       28.402 -12.291   4.243  0.00  0.00    +0.342 C 
ATOM     25  O   LIG    1       28.773 -11.648   3.271  0.00  0.00    -0.245 OA
BRANCH  24  26
ATOM     26  O   LIG    1       28.709 -11.926   5.507  0.00  0.00    -0.477 OA
ATOM     27  H   LIG    1       28.025 -11.358   5.940  0.00  0.00    +0.295 HD
ENDBRANCH  24  26
ENDBRANCH   7  24
TORSDOF 3
ENDMDL
