MODEL 1
REMARK VINA RESULT:      -3.2      0.000      0.000
REMARK  Name = *****
REMARK                            x       y       z     vdW  Elec       q    Type
REMARK                         _______ _______ _______ _____ _____    ______ ____
ROOT
ATOM      1  O   LIG    1       24.179 -15.818   4.250  0.00  0.00    -0.459 OA
ENDROOT
BRANCH   1   6
ATOM      2  C   LIG    1       26.393 -11.797   2.642  0.00  0.00    +0.192 C 
ATOM      3  N   LIG    1       26.918 -13.083   3.257  0.00  0.00    +0.243 N 
ATOM      4  C   LIG    1       26.547 -14.399   2.554  0.00  0.00    +0.070 C 
ATOM      5  C   LIG    1       25.025 -14.512   2.330  0.00  0.00    +0.099 C 
ATOM      6  C   LIG    1       24.203 -14.481   3.634  0.00  0.00    +0.187 C 
ATOM      7  C   LIG    1       24.800 -13.467   4.644  0.00  0.00    +0.099 C 
ATOM      8  C   LIG    1       27.008 -15.452   3.581  0.00  0.00    +0.060 C 
ATOM      9  C   LIG    1       26.928 -14.759   4.954  0.00  0.00    +0.060 C 
ATOM     10  C   LIG    1       26.350 -13.379   4.660  0.00  0.00    +0.070 C 
ATOM     11  C   LIG    1       28.475 -12.906   3.263  0.00  0.00    +0.192 C 
ENDBRANCH   1   6
BRANCH   1  12
ATOM     12  C   LIG    1       22.906 -16.306   4.598  0.00  0.00    +0.341 C 
ATOM     13  O   LIG    1       22.137 -15.693   5.318  0.00  0.00    -0.247 OA
BRANCH  12  14
ATOM     14  C   LIG    1       22.560 -17.672   3.879  0.00  0.00    +0.253 C 
BRANCH  14  15
ATOM     15  C   LIG    1       23.294 -18.921   4.366  0.00  0.00    -0.008 A 
ATOM     16  C   LIG    1       22.721 -19.695   5.392  0.00  0.00    +0.007 A 
ATOM     17  C   LIG    1       23.288 -20.890   5.827  0.00  0.00    +0.000 A 
ATOM     18  C   LIG    1       24.491 -21.323   5.292  0.00  0.00    +0.000 A 
ATOM     19  C   LIG    1       25.105 -20.569   4.293  0.00  0.00    +0.000 A 
ATOM     20  C   LIG    1       24.502 -19.389   3.811  0.00  0.00    +0.007 A 
ENDBRANCH  14  15
BRANCH  14  21
ATOM     21  O   LIG    1       21.144 -17.910   3.930  0.00  0.00    -0.376 OA
ATOM     22  H   LIG    1       20.907 -18.184   4.834  0.00  0.00    +0.211 HD
ENDBRANCH  14  21
ENDBRANCH  12  14
ENDBRANCH   1  12
TORSDOF 5
ENDMDL
MODEL 2
REMARK VINA RESULT:      -2.8      0.797      2.114
REMARK  Name = *****
REMARK                            x       y       z     vdW  Elec       q    Type
REMARK                         _______ _______ _______ _____ _____    ______ ____
ROOT
ATOM      1  O   LIG    1       23.478 -15.615   3.772  0.00  0.00    -0.459 OA
ENDROOT
BRANCH   1   6
ATOM      2  C   LIG    1       27.790 -13.423   4.279  0.00  0.00    +0.192 C 
ATOM      3  N   LIG    1       26.595 -13.143   3.385  0.00  0.00    +0.243 N 
ATOM      4  C   LIG    1       25.241 -12.913   4.076  0.00  0.00    +0.070 C 
ATOM      5  C   LIG    1       24.904 -14.056   5.055  0.00  0.00    +0.099 C 
ATOM      6  C   LIG    1       24.807 -15.439   4.384  0.00  0.00    +0.187 C 
ATOM      7  C   LIG    1       25.894 -15.605   3.290  0.00  0.00    +0.099 C 
ATOM      8  C   LIG    1       24.264 -12.935   2.883  0.00  0.00    +0.060 C 
ATOM      9  C   LIG    1       24.932 -13.819   1.813  0.00  0.00    +0.060 C 
ATOM     10  C   LIG    1       26.213 -14.325   2.471  0.00  0.00    +0.070 C 
ATOM     11  C   LIG    1       27.002 -11.865   2.577  0.00  0.00    +0.192 C 
ENDBRANCH   1   6
BRANCH   1  12
ATOM     12  C   LIG    1       22.579 -16.425   4.490  0.00  0.00    +0.341 C 
ATOM     13  O   LIG    1       21.976 -16.031   5.474  0.00  0.00    -0.247 OA
BRANCH  12  14
ATOM     14  C   LIG    1       22.375 -17.845   3.825  0.00  0.00    +0.253 C 
BRANCH  14  15
ATOM     15  C   LIG    1       23.130 -19.020   4.444  0.00  0.00    -0.008 A 
ATOM     16  C   LIG    1       24.358 -19.415   3.883  0.00  0.00    +0.007 A 
ATOM     17  C   LIG    1       25.143 -20.420   4.444  0.00  0.00    +0.000 A 
ATOM     18  C   LIG    1       24.692 -21.113   5.556  0.00  0.00    +0.000 A 
ATOM     19  C   LIG    1       23.467 -20.770   6.124  0.00  0.00    +0.000 A 
ATOM     20  C   LIG    1       22.699 -19.714   5.592  0.00  0.00    +0.007 A 
ENDBRANCH  14  15
BRANCH  14  21
ATOM     21  O   LIG    1       20.975 -18.164   3.767  0.00  0.00    -0.376 OA
ATOM     22  H   LIG    1       20.631 -18.221   4.677  0.00  0.00    +0.211 HD
ENDBRANCH  14  21
ENDBRANCH  12  14
ENDBRANCH   1  12
TORSDOF 5
ENDMDL
MODEL 3
REMARK VINA RESULT:      -2.7      1.840      3.163
REMARK  Name = *****
REMARK                            x       y       z     vdW  Elec       q    Type
REMARK                         _______ _______ _______ _____ _____    ______ ____
ROOT
ATOM      1  O   LIG    1       25.750 -16.302   3.521  0.00  0.00    -0.459 OA
ENDROOT
BRANCH   1   6
ATOM      2  C   LIG    1       25.760 -11.487   2.837  0.00  0.00    +0.192 C 
ATOM      3  N   LIG    1       24.788 -12.423   3.534  0.00  0.00    +0.243 N 
ATOM      4  C   LIG    1       25.349 -13.298   4.667  0.00  0.00    +0.070 C 
ATOM      5  C   LIG    1       26.595 -14.084   4.212  0.00  0.00    +0.099 C 
ATOM      6  C   LIG    1       26.328 -15.039   3.032  0.00  0.00    +0.187 C 
ATOM      7  C   LIG    1       25.356 -14.399   2.007  0.00  0.00    +0.099 C 
ATOM      8  C   LIG    1       24.180 -14.269   4.931  0.00  0.00    +0.060 C 
ATOM      9  C   LIG    1       23.415 -14.373   3.598  0.00  0.00    +0.060 C 
ATOM     10  C   LIG    1       24.224 -13.528   2.618  0.00  0.00    +0.070 C 
ATOM     11  C   LIG    1       23.671 -11.479   4.096  0.00  0.00    +0.192 C 
ENDBRANCH   1   6
BRANCH   1  12
ATOM     12  C   LIG    1       26.666 -17.348   3.739  0.00  0.00    +0.341 C 
ATOM     13  O   LIG    1       27.769 -17.169   4.225  0.00  0.00    -0.247 OA
BRANCH  12  14
ATOM     14  C   LIG    1       26.068 -18.766   3.375  0.00  0.00    +0.253 C 
BRANCH  14  15
ATOM     15  C   LIG    1       24.866 -19.245   4.187  0.00  0.00    -0.008 A 
ATOM     16  C   LIG    1       25.066 -20.180   5.219  0.00  0.00    +0.007 A 
ATOM     17  C   LIG    1       24.035 -20.597   6.056  0.00  0.00    +0.000 A 
ATOM     18  C   LIG    1       22.743 -20.140   5.846  0.00  0.00    +0.000 A 
ATOM     19  C   LIG    1       22.499 -19.234   4.816  0.00  0.00    +0.000 A 
ATOM     20  C   LIG    1       23.553 -18.766   4.005  0.00  0.00    +0.007 A 
ENDBRANCH  14  15
BRANCH  14  21
ATOM     21  O   LIG    1       25.741 -18.817   1.976  0.00  0.00    -0.376 OA
ATOM     22  H   LIG    1       26.486 -19.222   1.497  0.00  0.00    +0.211 HD
ENDBRANCH  14  21
ENDBRANCH  12  14
ENDBRANCH   1  12
TORSDOF 5
ENDMDL
MODEL 4
REMARK VINA RESULT:      -2.7      1.965      3.066
REMARK  Name = *****
REMARK                            x       y       z     vdW  Elec       q    Type
REMARK                         _______ _______ _______ _____ _____    ______ ____
ROOT
ATOM      1  O   LIG    1       25.964 -16.394   3.305  0.00  0.00    -0.459 OA
ENDROOT
BRANCH   1   6
ATOM      2  C   LIG    1       24.146 -12.232   5.044  0.00  0.00    +0.192 C 
ATOM      3  N   LIG    1       24.541 -12.675   3.646  0.00  0.00    +0.243 N 
ATOM      4  C   LIG    1       23.861 -13.938   3.093  0.00  0.00    +0.070 C 
ATOM      5  C   LIG    1       23.987 -15.124   4.071  0.00  0.00    +0.099 C 
ATOM      6  C   LIG    1       25.444 -15.525   4.374  0.00  0.00    +0.187 C 
ATOM      7  C   LIG    1       26.352 -14.274   4.498  0.00  0.00    +0.099 C 
ATOM      8  C   LIG    1       24.686 -14.215   1.820  0.00  0.00    +0.060 C 
ATOM      9  C   LIG    1       26.082 -13.622   2.090  0.00  0.00    +0.060 C 
ATOM     10  C   LIG    1       26.016 -13.110   3.526  0.00  0.00    +0.070 C 
ATOM     11  C   LIG    1       24.200 -11.447   2.735  0.00  0.00    +0.192 C 
ENDBRANCH   1   6
BRANCH   1  12
ATOM     12  C   LIG    1       26.755 -17.478   3.731  0.00  0.00    +0.341 C 
ATOM     13  O   LIG    1       27.785 -17.334   4.366  0.00  0.00    -0.247 OA
BRANCH  12  14
ATOM     14  C   LIG    1       26.110 -18.878   3.377  0.00  0.00    +0.253 C 
BRANCH  14  15
ATOM     15  C   LIG    1       24.951 -19.353   4.251  0.00  0.00    -0.008 A 
ATOM     16  C   LIG    1       23.678 -18.781   4.070  0.00  0.00    +0.007 A 
ATOM     17  C   LIG    1       22.558 -19.223   4.769  0.00  0.00    +0.000 A 
ATOM     18  C   LIG    1       22.686 -20.215   5.729  0.00  0.00    +0.000 A 
ATOM     19  C   LIG    1       23.936 -20.786   5.958  0.00  0.00    +0.000 A 
ATOM     20  C   LIG    1       25.060 -20.380   5.209  0.00  0.00    +0.007 A 
ENDBRANCH  14  15
BRANCH  14  21
ATOM     21  O   LIG    1       25.698 -18.895   2.000  0.00  0.00    -0.376 OA
ATOM     22  H   LIG    1       24.834 -18.450   1.929  0.00  0.00    +0.211 HD
ENDBRANCH  14  21
ENDBRANCH  12  14
ENDBRANCH   1  12
TORSDOF 5
ENDMDL
MODEL 5
REMARK VINA RESULT:      -2.5      1.734      2.927
REMARK  Name = *****
REMARK                            x       y       z     vdW  Elec       q    Type
REMARK                         _______ _______ _______ _____ _____    ______ ____
ROOT
ATOM      1  O   LIG    1       25.403 -16.542   3.648  0.00  0.00    -0.459 OA
ENDROOT
BRANCH   1   6
ATOM      2  C   LIG    1       26.059 -11.769   2.983  0.00  0.00    +0.192 C 
ATOM      3  N   LIG    1       24.891 -12.580   3.516  0.00  0.00    +0.243 N 
ATOM      4  C   LIG    1       25.165 -13.494   4.722  0.00  0.00    +0.070 C 
ATOM      5  C   LIG    1       26.371 -14.421   4.468  0.00  0.00    +0.099 C 
ATOM      6  C   LIG    1       26.188 -15.359   3.259  0.00  0.00    +0.187 C 
ATOM      7  C   LIG    1       25.467 -14.632   2.094  0.00  0.00    +0.099 C 
ATOM      8  C   LIG    1       23.868 -14.325   4.795  0.00  0.00    +0.060 C 
ATOM      9  C   LIG    1       23.316 -14.365   3.358  0.00  0.00    +0.060 C 
ATOM     10  C   LIG    1       24.359 -13.631   2.520  0.00  0.00    +0.070 C 
ATOM     11  C   LIG    1       23.812 -11.510   3.895  0.00  0.00    +0.192 C 
ENDBRANCH   1   6
BRANCH   1  12
ATOM     12  C   LIG    1       26.104 -17.762   3.662  0.00  0.00    +0.341 C 
ATOM     13  O   LIG    1       27.309 -17.830   3.829  0.00  0.00    -0.247 OA
BRANCH  12  14
ATOM     14  C   LIG    1       25.147 -19.015   3.536  0.00  0.00    +0.253 C 
BRANCH  14  15
ATOM     15  C   LIG    1       24.917 -19.847   4.797  0.00  0.00    -0.008 A 
ATOM     16  C   LIG    1       23.600 -20.075   5.236  0.00  0.00    +0.007 A 
ATOM     17  C   LIG    1       23.310 -20.893   6.325  0.00  0.00    +0.000 A 
ATOM     18  C   LIG    1       24.338 -21.462   7.059  0.00  0.00    +0.000 A 
ATOM     19  C   LIG    1       25.658 -21.237   6.673  0.00  0.00    +0.000 A 
ATOM     20  C   LIG    1       25.951 -20.456   5.536  0.00  0.00    +0.007 A 
ENDBRANCH  14  15
BRANCH  14  21
ATOM     21  O   LIG    1       23.875 -18.611   3.002  0.00  0.00    -0.376 OA
ATOM     22  H   LIG    1       23.170 -19.016   3.538  0.00  0.00    +0.211 HD
ENDBRANCH  14  21
ENDBRANCH  12  14
ENDBRANCH   1  12
TORSDOF 5
ENDMDL
MODEL 6
REMARK VINA RESULT:      -2.4      2.073      3.308
REMARK  Name = *****
REMARK                            x       y       z     vdW  Elec       q    Type
REMARK                         _______ _______ _______ _____ _____    ______ ____
ROOT
ATOM      1  O   LIG    1       26.678 -15.905   3.437  0.00  0.00    -0.459 OA
ENDROOT
BRANCH   1   6
ATOM      2  C   LIG    1       24.091 -12.137   5.099  0.00  0.00    +0.192 C 
ATOM      3  N   LIG    1       24.531 -12.544   3.704  0.00  0.00    +0.243 N 
ATOM      4  C   LIG    1       24.111 -13.940   3.217  0.00  0.00    +0.070 C 
ATOM      5  C   LIG    1       24.504 -15.036   4.228  0.00  0.00    +0.099 C 
ATOM      6  C   LIG    1       26.019 -15.119   4.494  0.00  0.00    +0.187 C 
ATOM      7  C   LIG    1       26.654 -13.705   4.545  0.00  0.00    +0.099 C 
ATOM      8  C   LIG    1       24.941 -14.093   1.926  0.00  0.00    +0.060 C 
ATOM      9  C   LIG    1       26.191 -13.217   2.128  0.00  0.00    +0.060 C 
ATOM     10  C   LIG    1       26.060 -12.674   3.548  0.00  0.00    +0.070 C 
ATOM     11  C   LIG    1       23.921 -11.448   2.766  0.00  0.00    +0.192 C 
ENDBRANCH   1   6
BRANCH   1  12
ATOM     12  C   LIG    1       27.220 -17.139   3.842  0.00  0.00    +0.341 C 
ATOM     13  O   LIG    1       28.279 -17.232   4.438  0.00  0.00    -0.247 OA
BRANCH  12  14
ATOM     14  C   LIG    1       26.262 -18.357   3.525  0.00  0.00    +0.253 C 
BRANCH  14  15
ATOM     15  C   LIG    1       26.084 -19.408   4.619  0.00  0.00    -0.008 A 
ATOM     16  C   LIG    1       27.175 -19.720   5.452  0.00  0.00    +0.007 A 
ATOM     17  C   LIG    1       27.064 -20.603   6.523  0.00  0.00    +0.000 A 
ATOM     18  C   LIG    1       25.867 -21.258   6.761  0.00  0.00    +0.000 A 
ATOM     19  C   LIG    1       24.770 -20.997   5.941  0.00  0.00    +0.000 A 
ATOM     20  C   LIG    1       24.865 -20.060   4.892  0.00  0.00    +0.007 A 
ENDBRANCH  14  15
BRANCH  14  21
ATOM     21  O   LIG    1       24.970 -17.875   3.121  0.00  0.00    -0.376 OA
ATOM     22  H   LIG    1       25.083 -17.013   2.682  0.00  0.00    +0.211 HD
ENDBRANCH  14  21
ENDBRANCH  12  14
ENDBRANCH   1  12
TORSDOF 5
ENDMDL
MODEL 7
REMARK VINA RESULT:      -2.4      2.524      3.782
REMARK  Name = *****
REMARK                            x       y       z     vdW  Elec       q    Type
REMARK                         _______ _______ _______ _____ _____    ______ ____
ROOT
ATOM      1  O   LIG    1       27.356 -15.658   3.911  0.00  0.00    -0.459 OA
ENDROOT
BRANCH   1   6
ATOM      2  C   LIG    1       24.583 -12.121   2.052  0.00  0.00    +0.192 C 
ATOM      3  N   LIG    1       24.795 -12.622   3.470  0.00  0.00    +0.243 N 
ATOM      4  C   LIG    1       26.235 -12.619   4.007  0.00  0.00    +0.070 C 
ATOM      5  C   LIG    1       27.199 -13.348   3.047  0.00  0.00    +0.099 C 
ATOM      6  C   LIG    1       26.837 -14.827   2.811  0.00  0.00    +0.187 C 
ATOM      7  C   LIG    1       25.301 -15.016   2.714  0.00  0.00    +0.099 C 
ATOM      8  C   LIG    1       26.091 -13.420   5.317  0.00  0.00    +0.060 C 
ATOM      9  C   LIG    1       24.891 -14.360   5.101  0.00  0.00    +0.060 C 
ATOM     10  C   LIG    1       24.459 -14.115   3.659  0.00  0.00    +0.070 C 
ATOM     11  C   LIG    1       23.898 -11.688   4.353  0.00  0.00    +0.192 C 
ENDBRANCH   1   6
BRANCH   1  12
ATOM     12  C   LIG    1       27.101 -17.038   3.805  0.00  0.00    +0.341 C 
ATOM     13  O   LIG    1       26.367 -17.511   2.954  0.00  0.00    -0.247 OA
BRANCH  12  14
ATOM     14  C   LIG    1       27.938 -17.892   4.840  0.00  0.00    +0.253 C 
BRANCH  14  15
ATOM     15  C   LIG    1       27.312 -19.195   5.336  0.00  0.00    -0.008 A 
ATOM     16  C   LIG    1       27.957 -19.918   6.356  0.00  0.00    +0.007 A 
ATOM     17  C   LIG    1       27.404 -21.066   6.918  0.00  0.00    +0.000 A 
ATOM     18  C   LIG    1       26.209 -21.571   6.430  0.00  0.00    +0.000 A 
ATOM     19  C   LIG    1       25.554 -20.899   5.400  0.00  0.00    +0.000 A 
ATOM     20  C   LIG    1       26.084 -19.704   4.870  0.00  0.00    +0.007 A 
ENDBRANCH  14  15
BRANCH  14  21
ATOM     21  O   LIG    1       29.242 -18.172   4.305  0.00  0.00    -0.376 OA
ATOM     22  H   LIG    1       29.249 -19.083   3.961  0.00  0.00    +0.211 HD
ENDBRANCH  14  21
ENDBRANCH  12  14
ENDBRANCH   1  12
TORSDOF 5
ENDMDL
MODEL 8
REMARK VINA RESULT:      -1.4      2.247      6.191
REMARK  Name = *****
REMARK                            x       y       z     vdW  Elec       q    Type
REMARK                         _______ _______ _______ _____ _____    ______ ____
ROOT
ATOM      1  O   LIG    1       22.932 -16.528   4.058  0.00  0.00    -0.459 OA
ENDROOT
BRANCH   1   6
ATOM      2  C   LIG    1       22.134 -21.251   4.903  0.00  0.00    +0.192 C 
ATOM      3  N   LIG    1       23.365 -20.481   4.458  0.00  0.00    +0.243 N 
ATOM      4  C   LIG    1       23.849 -19.344   5.372  0.00  0.00    +0.070 C 
ATOM      5  C   LIG    1       22.709 -18.359   5.703  0.00  0.00    +0.099 C 
ATOM      6  C   LIG    1       22.102 -17.675   4.463  0.00  0.00    +0.187 C 
ATOM      7  C   LIG    1       21.995 -18.668   3.276  0.00  0.00    +0.099 C 
ATOM      8  C   LIG    1       24.906 -18.650   4.490  0.00  0.00    +0.060 C 
ATOM      9  C   LIG    1       24.479 -18.923   3.035  0.00  0.00    +0.060 C 
ATOM     10  C   LIG    1       23.162 -19.684   3.153  0.00  0.00    +0.070 C 
ATOM     11  C   LIG    1       24.483 -21.571   4.330  0.00  0.00    +0.192 C 
ENDBRANCH   1   6
BRANCH   1  12
ATOM     12  C   LIG    1       22.787 -15.365   4.837  0.00  0.00    +0.341 C 
ATOM     13  O   LIG    1       22.183 -15.350   5.895  0.00  0.00    -0.247 OA
BRANCH  12  14
ATOM     14  C   LIG    1       23.568 -14.129   4.235  0.00  0.00    +0.253 C 
BRANCH  14  15
ATOM     15  C   LIG    1       25.095 -14.174   4.292  0.00  0.00    -0.008 A 
ATOM     16  C   LIG    1       25.787 -15.034   3.419  0.00  0.00    +0.007 A 
ATOM     17  C   LIG    1       27.177 -15.066   3.355  0.00  0.00    +0.000 A 
ATOM     18  C   LIG    1       27.930 -14.280   4.213  0.00  0.00    +0.000 A 
ATOM     19  C   LIG    1       27.282 -13.436   5.112  0.00  0.00    +0.000 A 
ATOM     20  C   LIG    1       25.874 -13.360   5.138  0.00  0.00    +0.007 A 
ENDBRANCH  14  15
BRANCH  14  21
ATOM     21  O   LIG    1       23.156 -13.899   2.878  0.00  0.00    -0.376 OA
ATOM     22  H   LIG    1       22.624 -13.084   2.848  0.00  0.00    +0.211 HD
ENDBRANCH  14  21
ENDBRANCH  12  14
ENDBRANCH   1  12
TORSDOF 5
ENDMDL
MODEL 9
REMARK VINA RESULT:      -1.3      2.602      6.880
REMARK  Name = *****
REMARK                            x       y       z     vdW  Elec       q    Type
REMARK                         _______ _______ _______ _____ _____    ______ ____
ROOT
ATOM      1  O   LIG    1       25.337 -16.980   3.117  0.00  0.00    -0.459 OA
ENDROOT
BRANCH   1   6
ATOM      2  C   LIG    1       24.564 -21.572   4.520  0.00  0.00    +0.192 C 
ATOM      3  N   LIG    1       23.646 -20.368   4.396  0.00  0.00    +0.243 N 
ATOM      4  C   LIG    1       23.563 -19.689   3.019  0.00  0.00    +0.070 C 
ATOM      5  C   LIG    1       24.963 -19.337   2.475  0.00  0.00    +0.099 C 
ATOM      6  C   LIG    1       25.752 -18.368   3.377  0.00  0.00    +0.187 C 
ATOM      7  C   LIG    1       25.524 -18.693   4.877  0.00  0.00    +0.099 C 
ATOM      8  C   LIG    1       22.783 -18.399   3.344  0.00  0.00    +0.060 C 
ATOM      9  C   LIG    1       23.090 -18.087   4.820  0.00  0.00    +0.060 C 
ATOM     10  C   LIG    1       24.089 -19.159   5.245  0.00  0.00    +0.070 C 
ATOM     11  C   LIG    1       22.235 -20.908   4.808  0.00  0.00    +0.192 C 
ENDBRANCH   1   6
BRANCH   1  12
ATOM     12  C   LIG    1       26.330 -16.001   3.306  0.00  0.00    +0.341 C 
ATOM     13  O   LIG    1       27.304 -16.176   4.016  0.00  0.00    -0.247 OA
BRANCH  12  14
ATOM     14  C   LIG    1       26.085 -14.709   2.427  0.00  0.00    +0.253 C 
BRANCH  14  15
ATOM     15  C   LIG    1       25.295 -13.569   3.068  0.00  0.00    -0.008 A 
ATOM     16  C   LIG    1       24.712 -12.591   2.241  0.00  0.00    +0.007 A 
ATOM     17  C   LIG    1       23.908 -11.573   2.746  0.00  0.00    +0.000 A 
ATOM     18  C   LIG    1       23.709 -11.459   4.113  0.00  0.00    +0.000 A 
ATOM     19  C   LIG    1       24.292 -12.393   4.968  0.00  0.00    +0.000 A 
ATOM     20  C   LIG    1       25.060 -13.458   4.453  0.00  0.00    +0.007 A 
ENDBRANCH  14  15
BRANCH  14  21
ATOM     21  O   LIG    1       27.339 -14.197   1.945  0.00  0.00    -0.376 OA
ATOM     22  H   LIG    1       27.409 -14.393   0.993  0.00  0.00    +0.211 HD
ENDBRANCH  14  21
ENDBRANCH  12  14
ENDBRANCH   1  12
TORSDOF 5
ENDMDL
