MODEL 1
REMARK VINA RESULT:      -2.3      0.000      0.000
REMARK  Name = *****
REMARK                            x       y       z     vdW  Elec       q    Type
REMARK                         _______ _______ _______ _____ _____    ______ ____
ROOT
ATOM      1  C   LIG    1       23.920 -32.499  11.996  0.00  0.00    +0.176 C 
ATOM      2  O   LIG    1       23.624 -32.319  10.588  0.00  0.00    -0.461 OA
ATOM      3  C   LIG    1       22.620 -31.407  10.323  0.00  0.00    +0.308 C 
ATOM      4  O   LIG    1       21.741 -31.032  11.070  0.00  0.00    -0.251 OA
ATOM      5  C   LIG    1       22.830 -30.970   8.872  0.00  0.00    +0.129 C 
ATOM      6  C   LIG    1       23.853 -29.824   8.643  0.00  0.00    +0.040 C 
ATOM      7  C   LIG    1       25.207 -29.928   9.338  0.00  0.00    -0.004 C 
ATOM      8  C   LIG    1       26.211 -30.075   8.482  0.00  0.00    -0.015 C 
ATOM      9  C   LIG    1       25.799 -29.720   7.095  0.00  0.00    +0.023 C 
ATOM     10  C   LIG    1       26.334 -28.314   6.753  0.00  0.00    +0.006 C 
ATOM     11  C   LIG    1       25.734 -27.783   5.453  0.00  0.00    +0.018 C 
ATOM     12  C   LIG    1       26.183 -26.310   5.503  0.00  0.00    +0.039 C 
ATOM     13  C   LIG    1       26.031 -25.870   6.974  0.00  0.00    +0.120 C 
ATOM     14  C   LIG    1       24.232 -27.961   5.438  0.00  0.00    -0.027 C 
ATOM     15  C   LIG    1       23.578 -28.838   6.221  0.00  0.00    -0.026 C 
ATOM     16  C   LIG    1       25.973 -27.189   7.747  0.00  0.00    +0.036 C 
ATOM     17  C   LIG    1       25.332 -29.568  10.787  0.00  0.00    +0.165 C 
ATOM     18  O   LIG    1       24.269 -29.486  11.401  0.00  0.00    -0.292 OA
ATOM     19  C   LIG    1       26.641 -29.076  11.448  0.00  0.00    +0.086 C 
ATOM     20  C   LIG    1       28.002 -29.388  10.834  0.00  0.00    +0.018 C 
ATOM     21  C   LIG    1       26.677 -29.405  12.970  0.00  0.00    +0.132 C 
ATOM     22  C   LIG    1       27.061 -30.873  13.323  0.00  0.00    +0.032 C 
ATOM     23  C   LIG    1       25.960 -31.936  13.423  0.00  0.00    +0.006 C 
ATOM     24  C   LIG    1       24.264 -29.829   7.130  0.00  0.00    +0.027 C 
ATOM     25  C   LIG    1       25.473 -32.490  12.081  0.00  0.00    +0.045 C 
ENDROOT
BRANCH   1  27
ATOM     26  C   LIG    1       22.505 -33.645  13.762  0.00  0.00    +0.007 C 
ATOM     27  C   LIG    1       23.358 -33.821  12.514  0.00  0.00    +0.041 C 
ENDBRANCH   1  27
BRANCH  13  28
ATOM     28  O   LIG    1       24.832 -25.103   7.115  0.00  0.00    -0.371 OA
BRANCH  28  29
ATOM     29  C   LIG    1       24.410 -24.324   5.982  0.00  0.00    +0.150 C 
ATOM     30  C   LIG    1       23.292 -23.345   6.428  0.00  0.00    +0.178 C 
ATOM     31  C   LIG    1       23.801 -22.601   7.683  0.00  0.00    +0.178 C 
ATOM     32  C   LIG    1       25.179 -21.907   7.492  0.00  0.00    +0.152 C 
ATOM     33  C   LIG    1       26.015 -22.314   6.245  0.00  0.00    +0.020 C 
ATOM     34  C   LIG    1       26.354 -21.100   5.370  0.00  0.00    +0.010 C 
ATOM     35  C   LIG    1       25.506 -23.461   5.352  0.00  0.00    +0.040 C 
BRANCH  30  36
ATOM     36  O   LIG    1       22.926 -22.414   5.393  0.00  0.00    -0.375 OA
ATOM     37  C   LIG    1       21.542 -22.084   5.384  0.00  0.00    +0.194 C 
ENDBRANCH  30  36
BRANCH  31  38
ATOM     38  O   LIG    1       22.894 -21.607   8.215  0.00  0.00    -0.374 OA
ATOM     39  C   LIG    1       23.181 -20.277   7.814  0.00  0.00    +0.194 C 
ENDBRANCH  31  38
BRANCH  32  40
ATOM     40  O   LIG    1       26.066 -22.209   8.606  0.00  0.00    -0.377 OA
ATOM     41  C   LIG    1       27.432 -21.873   8.437  0.00  0.00    +0.194 C 
ENDBRANCH  32  40
ENDBRANCH  28  29
ENDBRANCH  13  28
BRANCH  21  42
ATOM     42  O   LIG    1       25.520 -28.988  13.706  0.00  0.00    -0.347 OA
BRANCH  42  43
ATOM     43  C   LIG    1       25.736 -27.885  14.606  0.00  0.00    +0.251 C 
ATOM     44  O   LIG    1       24.578 -27.069  14.633  0.00  0.00    -0.347 OA
ATOM     45  C   LIG    1       24.696 -25.852  15.394  0.00  0.00    +0.135 C 
ATOM     46  C   LIG    1       23.265 -25.322  15.360  0.00  0.00    +0.039 C 
ATOM     47  C   LIG    1       25.802 -24.931  14.759  0.00  0.00    +0.085 C 
ATOM     48  C   LIG    1       27.109 -25.769  14.816  0.00  0.00    +0.026 C 
ATOM     49  C   LIG    1       26.947 -27.112  14.112  0.00  0.00    +0.063 C 
BRANCH  47  50
ATOM     50  N   LIG    1       26.012 -23.571  15.353  0.00  0.00    -0.303 NA
ATOM     51  C   LIG    1       27.446 -23.251  15.498  0.00  0.00    +0.105 C 
ATOM     52  C   LIG    1       25.432 -22.496  14.538  0.00  0.00    +0.105 C 
ENDBRANCH  47  50
ENDBRANCH  42  43
ENDBRANCH  21  42
TORSDOF 9
ENDMDL
MODEL 2
REMARK VINA RESULT:      -2.0      2.759      8.396
REMARK  Name = *****
REMARK                            x       y       z     vdW  Elec       q    Type
REMARK                         _______ _______ _______ _____ _____    ______ ____
ROOT
ATOM      1  C   LIG    1       26.322 -32.843   6.398  0.00  0.00    +0.176 C 
ATOM      2  O   LIG    1       26.389 -33.633   7.612  0.00  0.00    -0.461 OA
ATOM      3  C   LIG    1       27.439 -33.310   8.451  0.00  0.00    +0.308 C 
ATOM      4  O   LIG    1       28.474 -32.747   8.163  0.00  0.00    -0.251 OA
ATOM      5  C   LIG    1       27.036 -33.825   9.834  0.00  0.00    +0.129 C 
ATOM      6  C   LIG    1       26.141 -32.882  10.683  0.00  0.00    +0.040 C 
ATOM      7  C   LIG    1       24.927 -32.253  10.007  0.00  0.00    -0.004 C 
ATOM      8  C   LIG    1       23.779 -32.683  10.517  0.00  0.00    -0.015 C 
ATOM      9  C   LIG    1       23.984 -33.350  11.832  0.00  0.00    +0.023 C 
ATOM     10  C   LIG    1       23.579 -32.380  12.962  0.00  0.00    +0.006 C 
ATOM     11  C   LIG    1       24.005 -32.899  14.333  0.00  0.00    +0.018 C 
ATOM     12  C   LIG    1       23.761 -31.655  15.206  0.00  0.00    +0.039 C 
ATOM     13  C   LIG    1       24.220 -30.447  14.364  0.00  0.00    +0.120 C 
ATOM     14  C   LIG    1       25.448 -33.356  14.313  0.00  0.00    -0.027 C 
ATOM     15  C   LIG    1       26.112 -33.677  13.189  0.00  0.00    -0.026 C 
ATOM     16  C   LIG    1       24.246 -30.988  12.933  0.00  0.00    +0.036 C 
ATOM     17  C   LIG    1       25.102 -31.063   9.115  0.00  0.00    +0.165 C 
ATOM     18  O   LIG    1       26.257 -30.843   8.754  0.00  0.00    -0.292 OA
ATOM     19  C   LIG    1       24.000 -30.010   8.847  0.00  0.00    +0.086 C 
ATOM     20  C   LIG    1       22.524 -30.343   9.046  0.00  0.00    +0.018 C 
ATOM     21  C   LIG    1       24.188 -29.318   7.465  0.00  0.00    +0.132 C 
ATOM     22  C   LIG    1       23.690 -30.139   6.238  0.00  0.00    +0.032 C 
ATOM     23  C   LIG    1       24.649 -31.114   5.545  0.00  0.00    +0.006 C 
ATOM     24  C   LIG    1       25.476 -33.731  11.821  0.00  0.00    +0.027 C 
ATOM     25  C   LIG    1       24.821 -32.462   6.252  0.00  0.00    +0.045 C 
ENDROOT
BRANCH   1  27
ATOM     26  C   LIG    1       26.259 -33.097   3.874  0.00  0.00    +0.007 C 
ATOM     27  C   LIG    1       26.795 -33.647   5.188  0.00  0.00    +0.041 C 
ENDBRANCH   1  27
BRANCH  13  28
ATOM     28  O   LIG    1       25.512 -30.025  14.809  0.00  0.00    -0.371 OA
BRANCH  28  29
ATOM     29  C   LIG    1       25.714 -28.615  15.007  0.00  0.00    +0.150 C 
ATOM     30  C   LIG    1       27.204 -28.359  15.355  0.00  0.00    +0.178 C 
ATOM     31  C   LIG    1       28.058 -29.081  14.288  0.00  0.00    +0.178 C 
ATOM     32  C   LIG    1       27.699 -28.700  12.825  0.00  0.00    +0.152 C 
ATOM     33  C   LIG    1       26.357 -27.949  12.593  0.00  0.00    +0.020 C 
ATOM     34  C   LIG    1       26.573 -26.608  11.880  0.00  0.00    +0.010 C 
ATOM     35  C   LIG    1       25.405 -27.744  13.787  0.00  0.00    +0.040 C 
BRANCH  30  36
ATOM     36  O   LIG    1       27.528 -26.957  15.408  0.00  0.00    -0.375 OA
ATOM     37  C   LIG    1       28.924 -26.697  15.488  0.00  0.00    +0.194 C 
ENDBRANCH  30  36
BRANCH  31  38
ATOM     38  O   LIG    1       29.488 -28.913  14.433  0.00  0.00    -0.374 OA
ATOM     39  C   LIG    1       30.265 -29.741  13.582  0.00  0.00    +0.194 C 
ENDBRANCH  31  38
BRANCH  32  40
ATOM     40  O   LIG    1       27.564 -29.893  12.001  0.00  0.00    -0.377 OA
ATOM     41  C   LIG    1       28.084 -29.815  10.684  0.00  0.00    +0.194 C 
ENDBRANCH  32  40
ENDBRANCH  28  29
ENDBRANCH  13  28
BRANCH  21  42
ATOM     42  O   LIG    1       25.498 -28.788   7.228  0.00  0.00    -0.347 OA
BRANCH  42  43
ATOM     43  C   LIG    1       25.531 -27.551   6.492  0.00  0.00    +0.251 C 
ATOM     44  O   LIG    1       25.790 -26.482   7.385  0.00  0.00    -0.347 OA
ATOM     45  C   LIG    1       25.723 -25.163   6.808  0.00  0.00    +0.135 C 
ATOM     46  C   LIG    1       26.211 -24.292   7.962  0.00  0.00    +0.039 C 
ATOM     47  C   LIG    1       24.266 -24.885   6.285  0.00  0.00    +0.085 C 
ATOM     48  C   LIG    1       23.998 -25.986   5.222  0.00  0.00    +0.026 C 
ATOM     49  C   LIG    1       24.187 -27.384   5.803  0.00  0.00    +0.063 C 
BRANCH  47  50
ATOM     50  N   LIG    1       23.964 -23.525   5.731  0.00  0.00    -0.303 NA
ATOM     51  C   LIG    1       23.069 -22.757   6.619  0.00  0.00    +0.105 C 
ATOM     52  C   LIG    1       25.168 -22.702   5.551  0.00  0.00    +0.105 C 
ENDBRANCH  47  50
ENDBRANCH  42  43
ENDBRANCH  21  42
TORSDOF 9
ENDMDL
MODEL 3
REMARK VINA RESULT:      -1.1      2.466      4.062
REMARK  Name = *****
REMARK                            x       y       z     vdW  Elec       q    Type
REMARK                         _______ _______ _______ _____ _____    ______ ____
ROOT
ATOM      1  C   LIG    1       23.799 -32.160  11.142  0.00  0.00    +0.176 C 
ATOM      2  O   LIG    1       23.843 -32.006   9.702  0.00  0.00    -0.461 OA
ATOM      3  C   LIG    1       22.779 -31.306   9.165  0.00  0.00    +0.308 C 
ATOM      4  O   LIG    1       21.683 -31.132   9.652  0.00  0.00    -0.251 OA
ATOM      5  C   LIG    1       23.262 -30.798   7.805  0.00  0.00    +0.129 C 
ATOM      6  C   LIG    1       24.061 -29.467   7.814  0.00  0.00    +0.040 C 
ATOM      7  C   LIG    1       25.185 -29.317   8.835  0.00  0.00    -0.004 C 
ATOM      8  C   LIG    1       26.382 -29.240   8.268  0.00  0.00    -0.015 C 
ATOM      9  C   LIG    1       26.277 -28.938   6.813  0.00  0.00    +0.023 C 
ATOM     10  C   LIG    1       26.591 -27.445   6.582  0.00  0.00    +0.006 C 
ATOM     11  C   LIG    1       26.251 -27.011   5.158  0.00  0.00    +0.018 C 
ATOM     12  C   LIG    1       26.369 -25.480   5.282  0.00  0.00    +0.039 C 
ATOM     13  C   LIG    1       25.763 -25.116   6.653  0.00  0.00    +0.120 C 
ATOM     14  C   LIG    1       24.869 -27.484   4.764  0.00  0.00    -0.027 C 
ATOM     15  C   LIG    1       24.224 -28.493   5.378  0.00  0.00    -0.026 C 
ATOM     16  C   LIG    1       25.772 -26.440   7.420  0.00  0.00    +0.036 C 
ATOM     17  C   LIG    1       24.861 -28.977  10.257  0.00  0.00    +0.165 C 
ATOM     18  O   LIG    1       23.682 -29.123  10.577  0.00  0.00    -0.292 OA
ATOM     19  C   LIG    1       25.832 -28.251  11.218  0.00  0.00    +0.086 C 
ATOM     20  C   LIG    1       27.340 -28.270  10.981  0.00  0.00    +0.018 C 
ATOM     21  C   LIG    1       25.543 -28.605  12.706  0.00  0.00    +0.132 C 
ATOM     22  C   LIG    1       26.108 -29.976  13.185  0.00  0.00    +0.032 C 
ATOM     23  C   LIG    1       25.252 -31.239  13.028  0.00  0.00    +0.006 C 
ATOM     24  C   LIG    1       24.837 -29.351   6.457  0.00  0.00    +0.027 C 
ATOM     25  C   LIG    1       25.245 -31.845  11.622  0.00  0.00    +0.045 C 
ENDROOT
BRANCH   1  27
ATOM     26  C   LIG    1       21.889 -33.755  11.638  0.00  0.00    +0.007 C 
ATOM     27  C   LIG    1       23.397 -33.581  11.535  0.00  0.00    +0.041 C 
ENDBRANCH   1  27
BRANCH  13  28
ATOM     28  O   LIG    1       24.439 -24.607   6.462  0.00  0.00    -0.371 OA
BRANCH  28  29
ATOM     29  C   LIG    1       23.984 -23.596   7.377  0.00  0.00    +0.150 C 
ATOM     30  C   LIG    1       25.124 -22.571   7.611  0.00  0.00    +0.178 C 
ATOM     31  C   LIG    1       25.638 -22.128   6.222  0.00  0.00    +0.178 C 
ATOM     32  C   LIG    1       24.526 -21.598   5.275  0.00  0.00    +0.152 C 
ATOM     33  C   LIG    1       23.051 -21.889   5.673  0.00  0.00    +0.020 C 
ATOM     34  C   LIG    1       22.232 -20.599   5.798  0.00  0.00    +0.010 C 
ATOM     35  C   LIG    1       22.776 -22.789   6.893  0.00  0.00    +0.040 C 
BRANCH  30  36
ATOM     36  O   LIG    1       24.698 -21.435   8.386  0.00  0.00    -0.375 OA
ATOM     37  C   LIG    1       25.657 -21.006   9.345  0.00  0.00    +0.194 C 
ENDBRANCH  30  36
BRANCH  31  38
ATOM     38  O   LIG    1       26.686 -21.130   6.248  0.00  0.00    -0.374 OA
ATOM     39  C   LIG    1       27.873 -21.543   6.907  0.00  0.00    +0.194 C 
ENDBRANCH  31  38
BRANCH  32  40
ATOM     40  O   LIG    1       24.644 -22.201   3.955  0.00  0.00    -0.377 OA
ATOM     41  C   LIG    1       24.011 -21.519   2.887  0.00  0.00    +0.194 C 
ENDBRANCH  32  40
ENDBRANCH  28  29
ENDBRANCH  13  28
BRANCH  21  42
ATOM     42  O   LIG    1       24.177 -28.445  13.111  0.00  0.00    -0.347 OA
BRANCH  42  43
ATOM     43  C   LIG    1       23.503 -29.665  13.473  0.00  0.00    +0.251 C 
ATOM     44  O   LIG    1       22.187 -29.645  12.948  0.00  0.00    -0.347 OA
ATOM     45  C   LIG    1       21.348 -30.748  13.341  0.00  0.00    +0.135 C 
ATOM     46  C   LIG    1       20.104 -30.514  12.488  0.00  0.00    +0.039 C 
ATOM     47  C   LIG    1       21.142 -30.731  14.901  0.00  0.00    +0.085 C 
ATOM     48  C   LIG    1       22.570 -30.860  15.500  0.00  0.00    +0.026 C 
ATOM     49  C   LIG    1       23.495 -29.759  14.988  0.00  0.00    +0.063 C 
BRANCH  47  50
ATOM     50  N   LIG    1       20.218 -31.748  15.500  0.00  0.00    -0.303 NA
ATOM     51  C   LIG    1       18.816 -31.285  15.497  0.00  0.00    +0.105 C 
ATOM     52  C   LIG    1       20.230 -33.027  14.776  0.00  0.00    +0.105 C 
ENDBRANCH  47  50
ENDBRANCH  42  43
ENDBRANCH  21  42
TORSDOF 9
ENDMDL
MODEL 4
REMARK VINA RESULT:      -0.6      3.014      8.243
REMARK  Name = *****
REMARK                            x       y       z     vdW  Elec       q    Type
REMARK                         _______ _______ _______ _____ _____    ______ ____
ROOT
ATOM      1  C   LIG    1       27.545 -33.059   6.853  0.00  0.00    +0.176 C 
ATOM      2  O   LIG    1       26.905 -33.744   7.959  0.00  0.00    -0.461 OA
ATOM      3  C   LIG    1       27.123 -33.167   9.196  0.00  0.00    +0.308 C 
ATOM      4  O   LIG    1       28.026 -32.428   9.522  0.00  0.00    -0.251 OA
ATOM      5  C   LIG    1       25.987 -33.668  10.091  0.00  0.00    +0.129 C 
ATOM      6  C   LIG    1       24.655 -32.873  10.017  0.00  0.00    +0.040 C 
ATOM      7  C   LIG    1       24.098 -32.542   8.636  0.00  0.00    -0.004 C 
ATOM      8  C   LIG    1       22.952 -33.161   8.385  0.00  0.00    -0.015 C 
ATOM      9  C   LIG    1       22.337 -33.693   9.634  0.00  0.00    +0.023 C 
ATOM     10  C   LIG    1       21.192 -32.756  10.074  0.00  0.00    +0.006 C 
ATOM     11  C   LIG    1       20.692 -33.096  11.476  0.00  0.00    +0.018 C 
ATOM     12  C   LIG    1       19.803 -31.874  11.773  0.00  0.00    +0.039 C 
ATOM     13  C   LIG    1       20.553 -30.653  11.205  0.00  0.00    +0.120 C 
ATOM     14  C   LIG    1       21.849 -33.254  12.439  0.00  0.00    -0.027 C 
ATOM     15  C   LIG    1       23.112 -33.504  12.050  0.00  0.00    -0.026 C 
ATOM     16  C   LIG    1       21.555 -31.263  10.223  0.00  0.00    +0.036 C 
ATOM     17  C   LIG    1       24.668 -31.398   7.856  0.00  0.00    +0.165 C 
ATOM     18  O   LIG    1       25.750 -30.973   8.260  0.00  0.00    -0.292 OA
ATOM     19  C   LIG    1       23.886 -30.604   6.782  0.00  0.00    +0.086 C 
ATOM     20  C   LIG    1       22.679 -31.213   6.074  0.00  0.00    +0.018 C 
ATOM     21  C   LIG    1       24.838 -29.974   5.724  0.00  0.00    +0.132 C 
ATOM     22  C   LIG    1       25.345 -30.951   4.620  0.00  0.00    +0.032 C 
ATOM     23  C   LIG    1       26.628 -31.755   4.859  0.00  0.00    +0.006 C 
ATOM     24  C   LIG    1       23.517 -33.767  10.620  0.00  0.00    +0.027 C 
ATOM     25  C   LIG    1       26.459 -32.996   5.741  0.00  0.00    +0.045 C 
ENDROOT
BRANCH   1  27
ATOM     26  C   LIG    1       28.899 -33.823   4.848  0.00  0.00    +0.007 C 
ATOM     27  C   LIG    1       28.774 -33.824   6.364  0.00  0.00    +0.041 C 
ENDBRANCH   1  27
BRANCH  13  28
ATOM     28  O   LIG    1       21.196 -29.954  12.275  0.00  0.00    -0.371 OA
BRANCH  28  29
ATOM     29  C   LIG    1       22.619 -29.773  12.184  0.00  0.00    +0.150 C 
ATOM     30  C   LIG    1       22.941 -28.256  12.216  0.00  0.00    +0.178 C 
ATOM     31  C   LIG    1       22.199 -27.652  13.430  0.00  0.00    +0.178 C 
ATOM     32  C   LIG    1       22.500 -28.367  14.776  0.00  0.00    +0.152 C 
ATOM     33  C   LIG    1       23.194 -29.757  14.705  0.00  0.00    +0.020 C 
ATOM     34  C   LIG    1       24.507 -29.777  15.499  0.00  0.00    +0.010 C 
ATOM     35  C   LIG    1       23.421 -30.404  13.325  0.00  0.00    +0.040 C 
BRANCH  30  36
ATOM     36  O   LIG    1       24.354 -27.991  12.295  0.00  0.00    -0.375 OA
ATOM     37  C   LIG    1       25.163 -29.055  11.807  0.00  0.00    +0.194 C 
ENDBRANCH  30  36
BRANCH  31  38
ATOM     38  O   LIG    1       22.422 -26.237  13.641  0.00  0.00    -0.374 OA
ATOM     39  C   LIG    1       23.772 -25.889  13.904  0.00  0.00    +0.194 C 
ENDBRANCH  31  38
BRANCH  32  40
ATOM     40  O   LIG    1       21.267 -28.643  15.499  0.00  0.00    -0.377 OA
ATOM     41  C   LIG    1       20.077 -28.100  14.952  0.00  0.00    +0.194 C 
ENDBRANCH  32  40
ENDBRANCH  28  29
ENDBRANCH  13  28
BRANCH  21  42
ATOM     42  O   LIG    1       25.921 -29.208   6.265  0.00  0.00    -0.347 OA
BRANCH  42  43
ATOM     43  C   LIG    1       25.970 -27.834   5.837  0.00  0.00    +0.251 C 
ATOM     44  O   LIG    1       25.933 -26.988   6.973  0.00  0.00    -0.347 OA
ATOM     45  C   LIG    1       25.844 -25.578   6.692  0.00  0.00    +0.135 C 
ATOM     46  C   LIG    1       25.998 -24.971   8.083  0.00  0.00    +0.039 C 
ATOM     47  C   LIG    1       24.499 -25.269   5.936  0.00  0.00    +0.085 C 
ATOM     48  C   LIG    1       24.565 -26.108   4.630  0.00  0.00    +0.026 C 
ATOM     49  C   LIG    1       24.781 -27.590   4.924  0.00  0.00    +0.063 C 
BRANCH  47  50
ATOM     50  N   LIG    1       24.173 -23.838   5.635  0.00  0.00    -0.303 NA
ATOM     51  C   LIG    1       23.055 -23.343   6.463  0.00  0.00    +0.105 C 
ATOM     52  C   LIG    1       25.301 -22.930   5.885  0.00  0.00    +0.105 C 
ENDBRANCH  47  50
ENDBRANCH  42  43
ENDBRANCH  21  42
TORSDOF 9
ENDMDL
MODEL 5
REMARK VINA RESULT:      -0.3      2.773      4.463
REMARK  Name = *****
REMARK                            x       y       z     vdW  Elec       q    Type
REMARK                         _______ _______ _______ _____ _____    ______ ____
ROOT
ATOM      1  C   LIG    1       21.153 -32.119  13.304  0.00  0.00    +0.176 C 
ATOM      2  O   LIG    1       20.977 -32.624  11.957  0.00  0.00    -0.461 OA
ATOM      3  C   LIG    1       20.658 -31.660  11.018  0.00  0.00    +0.308 C 
ATOM      4  O   LIG    1       20.164 -30.570  11.212  0.00  0.00    -0.251 OA
ATOM      5  C   LIG    1       21.044 -32.258   9.664  0.00  0.00    +0.129 C 
ATOM      6  C   LIG    1       22.530 -32.098   9.242  0.00  0.00    +0.040 C 
ATOM      7  C   LIG    1       23.604 -32.443  10.269  0.00  0.00    -0.004 C 
ATOM      8  C   LIG    1       24.327 -33.498   9.916  0.00  0.00    -0.015 C 
ATOM      9  C   LIG    1       24.156 -33.816   8.471  0.00  0.00    +0.023 C 
ATOM     10  C   LIG    1       25.384 -33.303   7.690  0.00  0.00    +0.006 C 
ATOM     11  C   LIG    1       25.158 -33.363   6.181  0.00  0.00    +0.018 C 
ATOM     12  C   LIG    1       26.362 -32.547   5.672  0.00  0.00    +0.039 C 
ATOM     13  C   LIG    1       26.521 -31.368   6.653  0.00  0.00    +0.120 C 
ATOM     14  C   LIG    1       23.819 -32.765   5.810  0.00  0.00    -0.027 C 
ATOM     15  C   LIG    1       22.803 -32.618   6.680  0.00  0.00    -0.026 C 
ATOM     16  C   LIG    1       25.746 -31.816   7.894  0.00  0.00    +0.036 C 
ATOM     17  C   LIG    1       23.945 -31.464  11.350  0.00  0.00    +0.165 C 
ATOM     18  O   LIG    1       23.130 -30.557  11.513  0.00  0.00    -0.292 OA
ATOM     19  C   LIG    1       25.319 -31.399  12.059  0.00  0.00    +0.086 C 
ATOM     20  C   LIG    1       26.250 -32.607  12.089  0.00  0.00    +0.018 C 
ATOM     21  C   LIG    1       25.199 -30.808  13.494  0.00  0.00    +0.132 C 
ATOM     22  C   LIG    1       24.693 -31.802  14.583  0.00  0.00    +0.032 C 
ATOM     23  C   LIG    1       23.187 -31.940  14.836  0.00  0.00    +0.006 C 
ATOM     24  C   LIG    1       22.829 -33.129   8.099  0.00  0.00    +0.027 C 
ATOM     25  C   LIG    1       22.440 -32.818  13.827  0.00  0.00    +0.045 C 
ENDROOT
BRANCH   1  27
ATOM     26  C   LIG    1       19.208 -31.231  14.670  0.00  0.00    +0.007 C 
ATOM     27  C   LIG    1       19.954 -32.465  14.186  0.00  0.00    +0.041 C 
ENDBRANCH   1  27
BRANCH  13  28
ATOM     28  O   LIG    1       25.970 -30.186   6.064  0.00  0.00    -0.371 OA
BRANCH  28  29
ATOM     29  C   LIG    1       24.741 -29.685   6.618  0.00  0.00    +0.150 C 
ATOM     30  C   LIG    1       25.005 -29.172   8.057  0.00  0.00    +0.178 C 
ATOM     31  C   LIG    1       26.224 -28.224   7.994  0.00  0.00    +0.178 C 
ATOM     32  C   LIG    1       26.081 -27.077   6.955  0.00  0.00    +0.152 C 
ATOM     33  C   LIG    1       24.947 -27.210   5.899  0.00  0.00    +0.020 C 
ATOM     34  C   LIG    1       23.996 -26.007   5.935  0.00  0.00    +0.010 C 
ATOM     35  C   LIG    1       24.124 -28.511   5.853  0.00  0.00    +0.040 C 
BRANCH  30  36
ATOM     36  O   LIG    1       23.864 -28.502   8.625  0.00  0.00    -0.375 OA
ATOM     37  C   LIG    1       23.233 -29.235   9.669  0.00  0.00    +0.194 C 
ENDBRANCH  30  36
BRANCH  31  38
ATOM     38  O   LIG    1       26.590 -27.613   9.254  0.00  0.00    -0.374 OA
ATOM     39  C   LIG    1       26.911 -28.537  10.282  0.00  0.00    +0.194 C 
ENDBRANCH  31  38
BRANCH  32  40
ATOM     40  O   LIG    1       27.286 -26.965   6.145  0.00  0.00    -0.377 OA
ATOM     41  C   LIG    1       27.224 -27.512   4.839  0.00  0.00    +0.194 C 
ENDBRANCH  32  40
ENDBRANCH  28  29
ENDBRANCH  13  28
BRANCH  21  42
ATOM     42  O   LIG    1       24.498 -29.560  13.578  0.00  0.00    -0.347 OA
BRANCH  42  43
ATOM     43  C   LIG    1       25.324 -28.388  13.440  0.00  0.00    +0.251 C 
ATOM     44  O   LIG    1       26.345 -28.418  14.422  0.00  0.00    -0.347 OA
ATOM     45  C   LIG    1       27.173 -27.241  14.489  0.00  0.00    +0.135 C 
ATOM     46  C   LIG    1       28.240 -27.665  15.493  0.00  0.00    +0.039 C 
ATOM     47  C   LIG    1       26.296 -25.994  14.881  0.00  0.00    +0.085 C 
ATOM     48  C   LIG    1       25.230 -25.878  13.757  0.00  0.00    +0.026 C 
ATOM     49  C   LIG    1       24.432 -27.170  13.604  0.00  0.00    +0.063 C 
BRANCH  47  50
ATOM     50  N   LIG    1       26.991 -24.684  15.095  0.00  0.00    -0.303 NA
ATOM     51  C   LIG    1       28.035 -24.444  14.079  0.00  0.00    +0.105 C 
ATOM     52  C   LIG    1       26.078 -23.535  15.026  0.00  0.00    +0.105 C 
ENDBRANCH  47  50
ENDBRANCH  42  43
ENDBRANCH  21  42
TORSDOF 9
ENDMDL
MODEL 6
REMARK VINA RESULT:       0.5      2.095      3.430
REMARK  Name = *****
REMARK                            x       y       z     vdW  Elec       q    Type
REMARK                         _______ _______ _______ _____ _____    ______ ____
ROOT
ATOM      1  C   LIG    1       22.439 -33.051  13.373  0.00  0.00    +0.176 C 
ATOM      2  O   LIG    1       22.147 -33.523  12.033  0.00  0.00    -0.461 OA
ATOM      3  C   LIG    1       21.348 -32.678  11.287  0.00  0.00    +0.308 C 
ATOM      4  O   LIG    1       20.589 -31.824  11.692  0.00  0.00    -0.251 OA
ATOM      5  C   LIG    1       21.603 -33.050   9.826  0.00  0.00    +0.129 C 
ATOM      6  C   LIG    1       22.836 -32.386   9.154  0.00  0.00    +0.040 C 
ATOM      7  C   LIG    1       24.157 -32.403   9.916  0.00  0.00    -0.004 C 
ATOM      8  C   LIG    1       25.084 -33.140   9.316  0.00  0.00    -0.015 C 
ATOM      9  C   LIG    1       24.716 -33.429   7.902  0.00  0.00    +0.023 C 
ATOM     10  C   LIG    1       25.523 -32.502   6.968  0.00  0.00    +0.006 C 
ATOM     11  C   LIG    1       25.010 -32.563   5.531  0.00  0.00    +0.018 C 
ATOM     12  C   LIG    1       25.757 -31.371   4.903  0.00  0.00    +0.039 C 
ATOM     13  C   LIG    1       25.743 -30.253   5.965  0.00  0.00    +0.120 C 
ATOM     14  C   LIG    1       23.504 -32.427   5.488  0.00  0.00    -0.027 C 
ATOM     15  C   LIG    1       22.704 -32.667   6.544  0.00  0.00    -0.026 C 
ATOM     16  C   LIG    1       25.433 -30.991   7.269  0.00  0.00    +0.036 C 
ATOM     17  C   LIG    1       24.396 -31.418  11.019  0.00  0.00    +0.165 C 
ATOM     18  O   LIG    1       23.392 -30.841  11.434  0.00  0.00    -0.292 OA
ATOM     19  C   LIG    1       25.797 -30.933  11.461  0.00  0.00    +0.086 C 
ATOM     20  C   LIG    1       27.046 -31.764  11.179  0.00  0.00    +0.018 C 
ATOM     21  C   LIG    1       25.807 -30.482  12.952  0.00  0.00    +0.132 C 
ATOM     22  C   LIG    1       25.886 -31.638  13.995  0.00  0.00    +0.032 C 
ATOM     23  C   LIG    1       24.591 -32.279  14.507  0.00  0.00    +0.006 C 
ATOM     24  C   LIG    1       23.193 -33.205   7.866  0.00  0.00    +0.027 C 
ATOM     25  C   LIG    1       23.961 -33.307  13.563  0.00  0.00    +0.045 C 
ENDROOT
BRANCH   1  27
ATOM     26  C   LIG    1       20.626 -32.932  15.144  0.00  0.00    +0.007 C 
ATOM     27  C   LIG    1       21.628 -33.817  14.417  0.00  0.00    +0.041 C 
ENDBRANCH   1  27
BRANCH  13  28
ATOM     28  O   LIG    1       24.735 -29.296   5.628  0.00  0.00    -0.371 OA
BRANCH  28  29
ATOM     29  C   LIG    1       25.056 -28.327   4.615  0.00  0.00    +0.150 C 
ATOM     30  C   LIG    1       24.558 -26.931   5.070  0.00  0.00    +0.178 C 
ATOM     31  C   LIG    1       25.084 -26.697   6.504  0.00  0.00    +0.178 C 
ATOM     32  C   LIG    1       26.621 -26.873   6.650  0.00  0.00    +0.152 C 
ATOM     33  C   LIG    1       27.373 -27.576   5.484  0.00  0.00    +0.020 C 
ATOM     34  C   LIG    1       28.489 -26.692   4.914  0.00  0.00    +0.010 C 
ATOM     35  C   LIG    1       26.551 -28.173   4.325  0.00  0.00    +0.040 C 
BRANCH  30  36
ATOM     36  O   LIG    1       24.984 -25.876   4.188  0.00  0.00    -0.375 OA
ATOM     37  C   LIG    1       24.628 -24.575   4.641  0.00  0.00    +0.194 C 
ENDBRANCH  30  36
BRANCH  31  38
ATOM     38  O   LIG    1       24.747 -25.412   7.077  0.00  0.00    -0.374 OA
ATOM     39  C   LIG    1       25.855 -24.547   7.272  0.00  0.00    +0.194 C 
ENDBRANCH  31  38
BRANCH  32  40
ATOM     40  O   LIG    1       26.936 -27.703   7.804  0.00  0.00    -0.377 OA
ATOM     41  C   LIG    1       25.880 -27.946   8.718  0.00  0.00    +0.194 C 
ENDBRANCH  32  40
ENDBRANCH  28  29
ENDBRANCH  13  28
BRANCH  21  42
ATOM     42  O   LIG    1       24.784 -29.543  13.306  0.00  0.00    -0.347 OA
BRANCH  42  43
ATOM     43  C   LIG    1       25.157 -28.591  14.320  0.00  0.00    +0.251 C 
ATOM     44  O   LIG    1       24.191 -27.555  14.366  0.00  0.00    -0.347 OA
ATOM     45  C   LIG    1       24.501 -26.459  15.248  0.00  0.00    +0.135 C 
ATOM     46  C   LIG    1       23.216 -25.638  15.190  0.00  0.00    +0.039 C 
ATOM     47  C   LIG    1       25.815 -25.742  14.765  0.00  0.00    +0.085 C 
ATOM     48  C   LIG    1       26.916 -26.838  14.809  0.00  0.00    +0.026 C 
ATOM     49  C   LIG    1       26.532 -28.052  13.969  0.00  0.00    +0.063 C 
BRANCH  47  50
ATOM     50  N   LIG    1       26.257 -24.512  15.500  0.00  0.00    -0.303 NA
ATOM     51  C   LIG    1       27.717 -24.312  15.407  0.00  0.00    +0.105 C 
ATOM     52  C   LIG    1       25.640 -23.284  14.981  0.00  0.00    +0.105 C 
ENDBRANCH  47  50
ENDBRANCH  42  43
ENDBRANCH  21  42
TORSDOF 9
ENDMDL
