MODEL 1
REMARK VINA RESULT:       0.6      0.000      0.000
REMARK  Name = *****
REMARK                            x       y       z     vdW  Elec       q    Type
REMARK                         _______ _______ _______ _____ _____    ______ ____
ROOT
ATOM      1  C   LIG    1       24.278 -13.641   2.418  0.00  0.00    +0.061 C 
ATOM      2  C   LIG    1       24.471 -14.812   3.427  0.00  0.00    +0.020 C 
ATOM      3  C   LIG    1       25.688 -15.410   3.209  0.00  0.00    +0.013 C 
ENDROOT
BRANCH   2   4
ATOM      4  N   LIG    1       23.335 -15.162   4.262  0.00  0.00    -0.273 N 
ATOM      5  C   LIG    1       23.224 -14.575   5.564  0.00  0.00    +0.333 C 
ATOM      6  O   LIG    1       22.340 -14.780   6.402  0.00  0.00    -0.279 OA
BRANCH   4   7
ATOM      7  C   LIG    1       22.207 -16.192   4.027  0.00  0.00    +0.153 C 
BRANCH   7   8
ATOM      8  C   LIG    1       22.280 -17.669   4.335  0.00  0.00    +0.028 A 
ATOM      9  C   LIG    1       21.458 -18.736   4.265  0.00  0.00    +0.124 A 
ATOM     10  N   LIG    1       21.715 -20.030   4.736  0.00  0.00    -0.218 NA
ATOM     11  C   LIG    1       22.972 -20.312   5.094  0.00  0.00    +0.128 A 
ATOM     12  C   LIG    1       23.509 -21.569   5.735  0.00  0.00    +0.088 C 
ATOM     13  N   LIG    1       23.883 -19.512   4.629  0.00  0.00    -0.240 NA
ATOM     14  C   LIG    1       23.451 -18.285   4.253  0.00  0.00    +0.121 A 
BRANCH   9  15
ATOM     15  N   LIG    1       20.380 -18.619   3.383  0.00  0.00    -0.343 N 
ATOM     16  H   LIG    1       20.084 -17.641   3.404  0.00  0.00    +0.144 HD
ATOM     17  H   LIG    1       20.849 -18.831   2.506  0.00  0.00    +0.144 HD
ENDBRANCH   9  15
ENDBRANCH   7   8
ENDBRANCH   4   7
ENDBRANCH   2   4
BRANCH   3  18
ATOM     18  S   LIG    1       26.372 -16.912   3.527  0.00  0.00    -0.050 S 
BRANCH  18  19
ATOM     19  C   LIG    1       27.882 -17.200   4.366  0.00  0.00    +0.224 C 
ATOM     20  O   LIG    1       28.632 -16.321   4.476  0.00  0.00    -0.279 OA
BRANCH  19  21
ATOM     21  C   LIG    1       28.155 -18.544   5.027  0.00  0.00    +0.029 A 
ATOM     22  C   LIG    1       27.118 -19.417   4.875  0.00  0.00    +0.012 A 
ATOM     23  C   LIG    1       26.994 -20.437   5.811  0.00  0.00    +0.001 A 
ATOM     24  C   LIG    1       27.936 -20.601   6.835  0.00  0.00    +0.000 A 
ATOM     25  C   LIG    1       29.113 -19.902   6.800  0.00  0.00    +0.001 A 
ATOM     26  C   LIG    1       29.246 -18.970   5.807  0.00  0.00    +0.012 A 
ENDBRANCH  19  21
ENDBRANCH  18  19
ENDBRANCH   3  18
BRANCH   3  27
ATOM     27  C   LIG    1       26.877 -14.697   2.523  0.00  0.00    +0.072 C 
BRANCH  27  28
ATOM     28  C   LIG    1       27.076 -13.172   2.882  0.00  0.00    +0.177 C 
BRANCH  28  29
ATOM     29  O   LIG    1       28.062 -13.101   3.893  0.00  0.00    -0.286 OA
BRANCH  29  30
ATOM     30  P   LIG    1       27.609 -12.723   5.372  0.00  0.00    +0.472 P 
ATOM     31  O   LIG    1       26.241 -12.224   5.661  0.00  0.00    -0.228 OA
BRANCH  30  32
ATOM     32  O   LIG    1       28.831 -11.890   5.956  0.00  0.00    -0.303 OA
ATOM     33  H   LIG    1       29.134 -12.280   6.790  0.00  0.00    +0.222 HD
ENDBRANCH  30  32
BRANCH  30  34
ATOM     34  O   LIG    1       27.867 -14.126   6.106  0.00  0.00    -0.303 OA
ATOM     35  H   LIG    1       27.683 -14.021   7.059  0.00  0.00    +0.222 HD
ENDBRANCH  30  34
ENDBRANCH  29  30
ENDBRANCH  28  29
ENDBRANCH  27  28
ENDBRANCH   3  27
TORSDOF 13
ENDMDL
MODEL 2
REMARK VINA RESULT:       1.2      2.889      5.972
REMARK  Name = *****
REMARK                            x       y       z     vdW  Elec       q    Type
REMARK                         _______ _______ _______ _____ _____    ______ ____
ROOT
ATOM      1  C   LIG    1       23.345 -19.991   5.615  0.00  0.00    +0.061 C 
ATOM      2  C   LIG    1       23.512 -18.906   4.510  0.00  0.00    +0.020 C 
ATOM      3  C   LIG    1       24.805 -18.915   4.048  0.00  0.00    +0.013 C 
ENDROOT
BRANCH   2   4
ATOM      4  N   LIG    1       22.390 -18.009   4.286  0.00  0.00    -0.273 N 
ATOM      5  C   LIG    1       21.390 -18.375   3.328  0.00  0.00    +0.333 C 
ATOM      6  O   LIG    1       20.393 -17.721   3.004  0.00  0.00    -0.279 OA
BRANCH   4   7
ATOM      7  C   LIG    1       22.114 -16.599   4.857  0.00  0.00    +0.153 C 
BRANCH   7   8
ATOM      8  C   LIG    1       22.797 -15.323   4.427  0.00  0.00    +0.028 A 
ATOM      9  C   LIG    1       23.296 -14.219   5.022  0.00  0.00    +0.124 A 
ATOM     10  N   LIG    1       23.791 -13.073   4.389  0.00  0.00    -0.218 NA
ATOM     11  C   LIG    1       24.003 -13.144   3.071  0.00  0.00    +0.128 A 
ATOM     12  C   LIG    1       24.417 -12.045   2.122  0.00  0.00    +0.088 C 
ATOM     13  N   LIG    1       24.093 -14.343   2.579  0.00  0.00    -0.240 NA
ATOM     14  C   LIG    1       23.523 -15.325   3.318  0.00  0.00    +0.121 A 
BRANCH   9  15
ATOM     15  N   LIG    1       23.624 -14.350   6.374  0.00  0.00    -0.343 N 
ATOM     16  H   LIG    1       24.629 -14.180   6.453  0.00  0.00    +0.144 HD
ATOM     17  H   LIG    1       23.099 -13.569   6.758  0.00  0.00    +0.144 HD
ENDBRANCH   9  15
ENDBRANCH   7   8
ENDBRANCH   4   7
ENDBRANCH   2   4
BRANCH   3  18
ATOM     18  S   LIG    1       25.819 -17.823   3.270  0.00  0.00    -0.050 S 
BRANCH  18  19
ATOM     19  C   LIG    1       27.120 -16.915   4.012  0.00  0.00    +0.224 C 
ATOM     20  O   LIG    1       28.049 -17.493   4.400  0.00  0.00    -0.279 OA
BRANCH  19  21
ATOM     21  C   LIG    1       27.078 -15.394   4.050  0.00  0.00    +0.029 A 
ATOM     22  C   LIG    1       27.312 -14.838   2.825  0.00  0.00    +0.012 A 
ATOM     23  C   LIG    1       27.803 -13.538   2.794  0.00  0.00    +0.001 A 
ATOM     24  C   LIG    1       27.990 -12.804   3.972  0.00  0.00    +0.000 A 
ATOM     25  C   LIG    1       27.483 -13.268   5.156  0.00  0.00    +0.001 A 
ATOM     26  C   LIG    1       26.918 -14.515   5.136  0.00  0.00    +0.012 A 
ENDBRANCH  19  21
ENDBRANCH  18  19
ENDBRANCH   3  18
BRANCH   3  27
ATOM     27  C   LIG    1       25.740 -20.142   4.158  0.00  0.00    +0.072 C 
BRANCH  27  28
ATOM     28  C   LIG    1       25.867 -20.794   5.591  0.00  0.00    +0.177 C 
BRANCH  28  29
ATOM     29  O   LIG    1       26.712 -19.962   6.361  0.00  0.00    -0.286 OA
BRANCH  29  30
ATOM     30  P   LIG    1       28.266 -20.303   6.420  0.00  0.00    +0.472 P 
ATOM     31  O   LIG    1       28.764 -21.545   7.062  0.00  0.00    -0.228 OA
BRANCH  30  32
ATOM     32  O   LIG    1       28.952 -18.933   6.847  0.00  0.00    -0.303 OA
ATOM     33  H   LIG    1       28.628 -18.652   7.716  0.00  0.00    +0.222 HD
ENDBRANCH  30  32
BRANCH  30  34
ATOM     34  O   LIG    1       28.609 -20.298   4.854  0.00  0.00    -0.303 OA
ATOM     35  H   LIG    1       28.705 -21.221   4.549  0.00  0.00    +0.222 HD
ENDBRANCH  30  34
ENDBRANCH  29  30
ENDBRANCH  28  29
ENDBRANCH  27  28
ENDBRANCH   3  27
TORSDOF 13
ENDMDL
MODEL 3
REMARK VINA RESULT:       2.2      3.439      6.260
REMARK  Name = *****
REMARK                            x       y       z     vdW  Elec       q    Type
REMARK                         _______ _______ _______ _____ _____    ______ ____
ROOT
ATOM      1  C   LIG    1       22.172 -17.004   4.823  0.00  0.00    +0.061 C 
ATOM      2  C   LIG    1       23.531 -17.085   4.067  0.00  0.00    +0.020 C 
ATOM      3  C   LIG    1       23.892 -18.401   3.909  0.00  0.00    +0.013 C 
ENDROOT
BRANCH   2   4
ATOM      4  N   LIG    1       24.228 -15.834   3.820  0.00  0.00    -0.273 N 
ATOM      5  C   LIG    1       23.531 -14.599   4.023  0.00  0.00    +0.333 C 
ATOM      6  O   LIG    1       23.966 -13.458   3.839  0.00  0.00    -0.279 OA
BRANCH   4   7
ATOM      7  C   LIG    1       25.642 -15.579   3.249  0.00  0.00    +0.153 C 
BRANCH   7   8
ATOM      8  C   LIG    1       26.552 -14.433   3.624  0.00  0.00    +0.028 A 
ATOM      9  C   LIG    1       27.028 -13.315   3.036  0.00  0.00    +0.124 A 
ATOM     10  N   LIG    1       27.986 -12.435   3.554  0.00  0.00    -0.218 NA
ATOM     11  C   LIG    1       28.313 -12.574   4.843  0.00  0.00    +0.128 A 
ATOM     12  C   LIG    1       29.382 -11.852   5.626  0.00  0.00    +0.088 C 
ATOM     13  N   LIG    1       27.464 -13.236   5.570  0.00  0.00    -0.240 NA
ATOM     14  C   LIG    1       26.636 -14.068   4.895  0.00  0.00    +0.121 A 
BRANCH   9  15
ATOM     15  N   LIG    1       26.286 -12.831   1.955  0.00  0.00    -0.343 N 
ATOM     16  H   LIG    1       26.236 -11.815   2.061  0.00  0.00    +0.144 HD
ATOM     17  H   LIG    1       26.910 -13.079   1.190  0.00  0.00    +0.144 HD
ENDBRANCH   9  15
ENDBRANCH   7   8
ENDBRANCH   4   7
ENDBRANCH   2   4
BRANCH   3  18
ATOM     18  S   LIG    1       25.325 -19.239   3.649  0.00  0.00    -0.050 S 
BRANCH  18  19
ATOM     19  C   LIG    1       26.911 -18.773   4.228  0.00  0.00    +0.224 C 
ATOM     20  O   LIG    1       27.467 -17.908   3.689  0.00  0.00    -0.279 OA
BRANCH  19  21
ATOM     21  C   LIG    1       27.499 -19.418   5.475  0.00  0.00    +0.029 A 
ATOM     22  C   LIG    1       28.548 -18.707   5.982  0.00  0.00    +0.012 A 
ATOM     23  C   LIG    1       29.475 -19.393   6.758  0.00  0.00    +0.001 A 
ATOM     24  C   LIG    1       29.304 -20.750   7.061  0.00  0.00    +0.000 A 
ATOM     25  C   LIG    1       28.113 -21.368   6.790  0.00  0.00    +0.001 A 
ATOM     26  C   LIG    1       27.181 -20.633   6.107  0.00  0.00    +0.012 A 
ENDBRANCH  19  21
ENDBRANCH  18  19
ENDBRANCH   3  18
BRANCH   3  27
ATOM     27  C   LIG    1       22.879 -19.570   3.930  0.00  0.00    +0.072 C 
BRANCH  27  28
ATOM     28  C   LIG    1       23.477 -21.013   3.704  0.00  0.00    +0.177 C 
BRANCH  28  29
ATOM     29  O   LIG    1       23.842 -21.524   4.970  0.00  0.00    -0.286 OA
BRANCH  29  30
ATOM     30  P   LIG    1       23.486 -20.670   6.266  0.00  0.00    +0.472 P 
ATOM     31  O   LIG    1       24.538 -19.991   7.061  0.00  0.00    -0.228 OA
BRANCH  30  32
ATOM     32  O   LIG    1       22.439 -21.571   7.054  0.00  0.00    -0.303 OA
ATOM     33  H   LIG    1       22.900 -22.144   7.687  0.00  0.00    +0.222 HD
ENDBRANCH  30  32
BRANCH  30  34
ATOM     34  O   LIG    1       22.482 -19.597   5.621  0.00  0.00    -0.303 OA
ATOM     35  H   LIG    1       21.690 -20.065   5.293  0.00  0.00    +0.222 HD
ENDBRANCH  30  34
ENDBRANCH  29  30
ENDBRANCH  28  29
ENDBRANCH  27  28
ENDBRANCH   3  27
TORSDOF 13
ENDMDL
MODEL 4
REMARK VINA RESULT:       3.1      2.659      5.848
REMARK  Name = *****
REMARK                            x       y       z     vdW  Elec       q    Type
REMARK                         _______ _______ _______ _____ _____    ______ ____
ROOT
ATOM      1  C   LIG    1       26.174 -18.381   2.506  0.00  0.00    +0.061 C 
ATOM      2  C   LIG    1       26.810 -17.761   3.785  0.00  0.00    +0.020 C 
ATOM      3  C   LIG    1       26.769 -16.391   3.700  0.00  0.00    +0.013 C 
ENDROOT
BRANCH   2   4
ATOM      4  N   LIG    1       27.451 -18.673   4.717  0.00  0.00    -0.273 N 
ATOM      5  C   LIG    1       28.720 -18.312   5.278  0.00  0.00    +0.333 C 
ATOM      6  O   LIG    1       29.405 -18.978   6.061  0.00  0.00    -0.279 OA
BRANCH   4   7
ATOM      7  C   LIG    1       27.037 -20.092   5.165  0.00  0.00    +0.153 C 
BRANCH   7   8
ATOM      8  C   LIG    1       25.620 -20.575   5.370  0.00  0.00    +0.028 A 
ATOM      9  C   LIG    1       24.596 -20.991   4.597  0.00  0.00    +0.124 A 
ATOM     10  N   LIG    1       23.291 -21.285   5.015  0.00  0.00    -0.218 NA
ATOM     11  C   LIG    1       23.077 -21.382   6.331  0.00  0.00    +0.128 A 
ATOM     12  C   LIG    1       21.769 -21.571   7.061  0.00  0.00    +0.088 C 
ATOM     13  N   LIG    1       24.135 -21.568   7.062  0.00  0.00    -0.240 NA
ATOM     14  C   LIG    1       25.309 -21.191   6.502  0.00  0.00    +0.121 A 
BRANCH   9  15
ATOM     15  N   LIG    1       24.940 -21.456   3.326  0.00  0.00    -0.343 N 
ATOM     16  H   LIG    1       24.313 -20.996   2.661  0.00  0.00    +0.144 HD
ATOM     17  H   LIG    1       25.880 -21.077   3.249  0.00  0.00    +0.144 HD
ENDBRANCH   9  15
ENDBRANCH   7   8
ENDBRANCH   4   7
ENDBRANCH   2   4
BRANCH   3  18
ATOM     18  S   LIG    1       27.612 -15.111   4.390  0.00  0.00    -0.050 S 
BRANCH  18  19
ATOM     19  C   LIG    1       27.720 -13.483   3.751  0.00  0.00    +0.224 C 
ATOM     20  O   LIG    1       28.757 -13.089   3.408  0.00  0.00    -0.279 OA
BRANCH  19  21
ATOM     21  C   LIG    1       26.464 -12.646   3.552  0.00  0.00    +0.029 A 
ATOM     22  C   LIG    1       25.759 -12.485   4.709  0.00  0.00    +0.012 A 
ATOM     23  C   LIG    1       24.401 -12.212   4.601  0.00  0.00    +0.001 A 
ATOM     24  C   LIG    1       23.791 -12.046   3.351  0.00  0.00    +0.000 A 
ATOM     25  C   LIG    1       24.560 -11.925   2.225  0.00  0.00    +0.001 A 
ATOM     26  C   LIG    1       25.909 -12.104   2.379  0.00  0.00    +0.012 A 
ENDBRANCH  19  21
ENDBRANCH  18  19
ENDBRANCH   3  18
BRANCH   3  27
ATOM     27  C   LIG    1       25.761 -15.622   2.814  0.00  0.00    +0.072 C 
BRANCH  27  28
ATOM     28  C   LIG    1       24.264 -15.607   3.314  0.00  0.00    +0.177 C 
BRANCH  28  29
ATOM     29  O   LIG    1       23.957 -16.909   3.772  0.00  0.00    -0.286 OA
BRANCH  29  30
ATOM     30  P   LIG    1       22.486 -17.199   4.308  0.00  0.00    +0.472 P 
ATOM     31  O   LIG    1       21.419 -17.708   3.411  0.00  0.00    -0.228 OA
BRANCH  30  32
ATOM     32  O   LIG    1       22.142 -15.938   5.214  0.00  0.00    -0.303 OA
ATOM     33  H   LIG    1       21.260 -15.600   4.997  0.00  0.00    +0.222 HD
ENDBRANCH  30  32
BRANCH  30  34
ATOM     34  O   LIG    1       22.818 -18.270   5.456  0.00  0.00    -0.303 OA
ATOM     35  H   LIG    1       23.781 -18.264   5.624  0.00  0.00    +0.222 HD
ENDBRANCH  30  34
ENDBRANCH  29  30
ENDBRANCH  28  29
ENDBRANCH  27  28
ENDBRANCH   3  27
TORSDOF 13
ENDMDL
