MODEL 1
REMARK VINA RESULT:       6.5      0.000      0.000
REMARK  Name = *****
REMARK                            x       y       z     vdW  Elec       q    Type
REMARK                         _______ _______ _______ _____ _____    ______ ____
ROOT
ATOM      1  C   LIG    1       29.013 -18.762   6.521  0.00  0.00    +0.044 C 
ATOM      2  C   LIG    1       27.698 -19.355   7.062  0.00  0.00    +0.006 C 
ATOM      3  C   LIG    1       27.860 -20.858   6.807  0.00  0.00    -0.001 C 
ATOM      4  C   LIG    1       26.446 -21.438   6.805  0.00  0.00    +0.034 C 
ATOM      5  C   LIG    1       25.554 -20.262   6.486  0.00  0.00    -0.073 C 
ATOM      6  C   LIG    1       24.216 -20.314   6.332  0.00  0.00    -0.027 C 
ATOM      7  C   LIG    1       28.590 -20.951   5.462  0.00  0.00    +0.036 C 
ATOM      8  C   LIG    1       26.377 -18.995   6.375  0.00  0.00    +0.035 C 
ATOM      9  C   LIG    1       29.430 -19.674   5.341  0.00  0.00    +0.122 C 
ENDROOT
BRANCH   1  11
ATOM     10  C   LIG    1       28.253 -16.689   5.345  0.00  0.00    +0.000 C 
ATOM     11  C   LIG    1       29.049 -17.277   6.258  0.00  0.00    -0.022 C 
BRANCH  10  12
ATOM     12  C   LIG    1       28.225 -15.215   5.032  0.00  0.00    +0.141 C 
BRANCH  12  13
ATOM     13  C   LIG    1       27.807 -14.921   3.573  0.00  0.00    +0.030 C 
ATOM     14  C   LIG    1       28.047 -13.450   3.199  0.00  0.00    +0.011 C 
BRANCH  13  15
ATOM     15  C   LIG    1       26.339 -15.324   3.321  0.00  0.00    +0.095 C 
BRANCH  15  18
ATOM     16  C   LIG    1       25.573 -19.336   2.978  0.00  0.00    +0.106 C 
ATOM     17  C   LIG    1       25.982 -17.954   3.208  0.00  0.00    -0.106 C 
ATOM     18  C   LIG    1       26.212 -16.778   3.323  0.00  0.00    -0.102 C 
ENDBRANCH  15  18
ENDBRANCH  13  15
ENDBRANCH  12  13
BRANCH  12  19
ATOM     19  O   LIG    1       27.279 -14.607   5.908  0.00  0.00    -0.388 OA
ATOM     20  H   LIG    1       27.475 -13.655   5.939  0.00  0.00    +0.210 HD
ENDBRANCH  12  19
ENDBRANCH  10  12
ENDBRANCH   1  11
BRANCH   9  21
ATOM     21  O   LIG    1       29.241 -19.093   4.057  0.00  0.00    -0.391 OA
ATOM     22  H   LIG    1       29.780 -19.583   3.415  0.00  0.00    +0.210 HD
ENDBRANCH   9  21
BRANCH   6  23
ATOM     23  C   LIG    1       23.366 -21.564   6.408  0.00  0.00    +0.028 C 
BRANCH  23  24
ATOM     24  C   LIG    1       22.191 -21.569   5.415  0.00  0.00    +0.015 C 
BRANCH  24  25
ATOM     25  C   LIG    1       22.513 -20.740   4.165  0.00  0.00    +0.121 C 
BRANCH  25  26
ATOM     26  C   LIG    1       21.766 -19.425   4.130  0.00  0.00    +0.307 C 
ATOM     27  O   LIG    1       20.664 -19.256   3.625  0.00  0.00    -0.251 OA
BRANCH  26  28
ATOM     28  O   LIG    1       22.443 -18.484   4.851  0.00  0.00    -0.457 OA
BRANCH  28  29
ATOM     29  C   LIG    1       22.657 -17.263   4.144  0.00  0.00    +0.311 C 
BRANCH  29  30
ATOM     30  C   LIG    1       22.684 -16.002   5.015  0.00  0.00    +0.200 C 
ATOM     31  O   LIG    1       22.137 -15.935   6.115  0.00  0.00    -0.288 OA
BRANCH  30  32
ATOM     32  C   LIG    1       23.300 -14.779   4.421  0.00  0.00    +0.021 A 
ATOM     33  C   LIG    1       23.871 -13.824   5.273  0.00  0.00    +0.011 A 
ATOM     34  C   LIG    1       24.373 -12.630   4.747  0.00  0.00    +0.001 A 
ATOM     35  C   LIG    1       24.331 -12.397   3.372  0.00  0.00    +0.000 A 
ATOM     36  C   LIG    1       23.803 -13.362   2.519  0.00  0.00    +0.001 A 
ATOM     37  C   LIG    1       23.284 -14.549   3.040  0.00  0.00    +0.011 A 
ENDBRANCH  30  32
ENDBRANCH  29  30
ENDBRANCH  28  29
ENDBRANCH  26  28
ENDBRANCH  25  26
ENDBRANCH  24  25
ENDBRANCH  23  24
ENDBRANCH   6  23
TORSDOF 15
ENDMDL
MODEL 2
REMARK VINA RESULT:       7.0      1.797      4.800
REMARK  Name = *****
REMARK                            x       y       z     vdW  Elec       q    Type
REMARK                         _______ _______ _______ _____ _____    ______ ____
ROOT
ATOM      1  C   LIG    1       26.946 -15.969   3.098  0.00  0.00    +0.044 C 
ATOM      2  C   LIG    1       27.629 -17.250   3.616  0.00  0.00    +0.006 C 
ATOM      3  C   LIG    1       26.588 -18.339   3.336  0.00  0.00    -0.001 C 
ATOM      4  C   LIG    1       26.930 -19.498   4.272  0.00  0.00    +0.034 C 
ATOM      5  C   LIG    1       27.721 -18.861   5.390  0.00  0.00    -0.073 C 
ATOM      6  C   LIG    1       28.194 -19.501   6.478  0.00  0.00    -0.027 C 
ATOM      7  C   LIG    1       25.237 -17.673   3.614  0.00  0.00    +0.036 C 
ATOM      8  C   LIG    1       27.925 -17.385   5.113  0.00  0.00    +0.035 C 
ATOM      9  C   LIG    1       25.430 -16.178   3.332  0.00  0.00    +0.122 C 
ENDROOT
BRANCH   1  11
ATOM     10  C   LIG    1       27.011 -13.469   3.140  0.00  0.00    +0.000 C 
ATOM     11  C   LIG    1       27.514 -14.647   3.552  0.00  0.00    -0.022 C 
BRANCH  10  12
ATOM     12  C   LIG    1       27.517 -12.111   3.553  0.00  0.00    +0.141 C 
BRANCH  12  13
ATOM     13  C   LIG    1       27.396 -11.864   5.074  0.00  0.00    +0.030 C 
ATOM     14  C   LIG    1       28.388 -12.727   5.871  0.00  0.00    +0.011 C 
BRANCH  13  15
ATOM     15  C   LIG    1       25.950 -12.088   5.563  0.00  0.00    +0.095 C 
BRANCH  15  18
ATOM     16  C   LIG    1       23.807 -12.760   2.135  0.00  0.00    +0.106 C 
ATOM     17  C   LIG    1       24.428 -12.427   3.412  0.00  0.00    -0.106 C 
ATOM     18  C   LIG    1       25.050 -12.216   4.421  0.00  0.00    -0.102 C 
ENDBRANCH  15  18
ENDBRANCH  13  15
ENDBRANCH  12  13
BRANCH  12  19
ATOM     19  O   LIG    1       28.894 -12.038   3.189  0.00  0.00    -0.388 OA
ATOM     20  H   LIG    1       29.366 -12.731   3.682  0.00  0.00    +0.210 HD
ENDBRANCH  12  19
ENDBRANCH  10  12
ENDBRANCH   1  11
BRANCH   9  21
ATOM     21  O   LIG    1       24.893 -15.413   4.403  0.00  0.00    -0.391 OA
ATOM     22  H   LIG    1       24.163 -15.912   4.803  0.00  0.00    +0.210 HD
ENDBRANCH   9  21
BRANCH   6  23
ATOM     23  C   LIG    1       27.986 -20.965   6.801  0.00  0.00    +0.028 C 
BRANCH  23  24
ATOM     24  C   LIG    1       26.738 -21.570   6.134  0.00  0.00    +0.015 C 
BRANCH  24  25
ATOM     25  C   LIG    1       25.518 -21.495   7.061  0.00  0.00    +0.121 C 
BRANCH  25  26
ATOM     26  C   LIG    1       24.544 -20.411   6.656  0.00  0.00    +0.307 C 
ATOM     27  O   LIG    1       24.829 -19.419   5.998  0.00  0.00    -0.251 OA
BRANCH  26  28
ATOM     28  O   LIG    1       23.276 -20.761   7.023  0.00  0.00    -0.457 OA
BRANCH  28  29
ATOM     29  C   LIG    1       22.600 -21.567   6.060  0.00  0.00    +0.311 C 
BRANCH  29  30
ATOM     30  C   LIG    1       22.715 -21.085   4.610  0.00  0.00    +0.200 C 
ATOM     31  O   LIG    1       23.528 -21.548   3.811  0.00  0.00    -0.288 OA
BRANCH  30  32
ATOM     32  C   LIG    1       21.877 -19.915   4.215  0.00  0.00    +0.021 A 
ATOM     33  C   LIG    1       22.351 -18.622   4.473  0.00  0.00    +0.011 A 
ATOM     34  C   LIG    1       21.545 -17.514   4.194  0.00  0.00    +0.001 A 
ATOM     35  C   LIG    1       20.279 -17.691   3.635  0.00  0.00    +0.000 A 
ATOM     36  C   LIG    1       19.822 -18.971   3.339  0.00  0.00    +0.001 A 
ATOM     37  C   LIG    1       20.615 -20.083   3.631  0.00  0.00    +0.011 A 
ENDBRANCH  30  32
ENDBRANCH  29  30
ENDBRANCH  28  29
ENDBRANCH  26  28
ENDBRANCH  25  26
ENDBRANCH  24  25
ENDBRANCH  23  24
ENDBRANCH   6  23
TORSDOF 15
ENDMDL
MODEL 3
REMARK VINA RESULT:       7.7      1.959      6.096
REMARK  Name = *****
REMARK                            x       y       z     vdW  Elec       q    Type
REMARK                         _______ _______ _______ _____ _____    ______ ____
ROOT
ATOM      1  C   LIG    1       22.987 -21.487   4.926  0.00  0.00    +0.044 C 
ATOM      2  C   LIG    1       24.138 -20.879   4.101  0.00  0.00    +0.006 C 
ATOM      3  C   LIG    1       25.365 -21.106   4.990  0.00  0.00    -0.001 C 
ATOM      4  C   LIG    1       26.412 -20.094   4.526  0.00  0.00    +0.034 C 
ATOM      5  C   LIG    1       25.614 -19.007   3.848  0.00  0.00    -0.073 C 
ATOM      6  C   LIG    1       26.122 -17.874   3.322  0.00  0.00    -0.027 C 
ATOM      7  C   LIG    1       24.858 -20.890   6.420  0.00  0.00    +0.036 C 
ATOM      8  C   LIG    1       24.143 -19.373   3.824  0.00  0.00    +0.035 C 
ATOM      9  C   LIG    1       23.371 -21.262   6.409  0.00  0.00    +0.122 C 
ENDROOT
BRANCH   1  11
ATOM     10  C   LIG    1       21.223 -19.839   4.272  0.00  0.00    +0.000 C 
ATOM     11  C   LIG    1       21.579 -21.109   4.539  0.00  0.00    -0.022 C 
BRANCH  10  12
ATOM     12  C   LIG    1       19.843 -19.384   3.873  0.00  0.00    +0.141 C 
BRANCH  12  13
ATOM     13  C   LIG    1       19.795 -17.889   3.481  0.00  0.00    +0.030 C 
ATOM     14  C   LIG    1       20.539 -17.624   2.163  0.00  0.00    +0.011 C 
BRANCH  13  15
ATOM     15  C   LIG    1       20.341 -16.997   4.615  0.00  0.00    +0.095 C 
BRANCH  15  18
ATOM     16  C   LIG    1       24.206 -15.710   4.155  0.00  0.00    +0.106 C 
ATOM     17  C   LIG    1       22.890 -16.330   4.269  0.00  0.00    -0.106 C 
ATOM     18  C   LIG    1       21.758 -16.719   4.394  0.00  0.00    -0.102 C 
ENDBRANCH  15  18
ENDBRANCH  13  15
ENDBRANCH  12  13
BRANCH  12  19
ATOM     19  O   LIG    1       19.444 -20.162   2.747  0.00  0.00    -0.388 OA
ATOM     20  H   LIG    1       19.311 -19.553   2.000  0.00  0.00    +0.210 HD
ENDBRANCH  12  19
ENDBRANCH  10  12
ENDBRANCH   1  11
BRANCH   9  21
ATOM     21  O   LIG    1       22.617 -20.250   7.061  0.00  0.00    -0.391 OA
ATOM     22  H   LIG    1       22.403 -19.558   6.414  0.00  0.00    +0.210 HD
ENDBRANCH   9  21
BRANCH   6  23
ATOM     23  C   LIG    1       27.578 -17.463   3.353  0.00  0.00    +0.028 C 
BRANCH  23  24
ATOM     24  C   LIG    1       28.128 -17.255   4.774  0.00  0.00    +0.015 C 
BRANCH  24  25
ATOM     25  C   LIG    1       28.935 -15.955   4.876  0.00  0.00    +0.121 C 
BRANCH  25  26
ATOM     26  C   LIG    1       28.098 -14.726   4.604  0.00  0.00    +0.307 C 
ATOM     27  O   LIG    1       26.989 -14.513   5.076  0.00  0.00    -0.251 OA
BRANCH  26  28
ATOM     28  O   LIG    1       28.809 -13.832   3.856  0.00  0.00    -0.457 OA
BRANCH  28  29
ATOM     29  C   LIG    1       27.999 -12.852   3.208  0.00  0.00    +0.311 C 
BRANCH  29  30
ATOM     30  C   LIG    1       26.668 -13.368   2.654  0.00  0.00    +0.200 C 
ATOM     31  O   LIG    1       26.593 -14.263   1.812  0.00  0.00    -0.288 OA
BRANCH  30  32
ATOM     32  C   LIG    1       25.430 -12.651   3.080  0.00  0.00    +0.021 A 
ATOM     33  C   LIG    1       25.126 -12.574   4.446  0.00  0.00    +0.011 A 
ATOM     34  C   LIG    1       23.927 -11.986   4.863  0.00  0.00    +0.001 A 
ATOM     35  C   LIG    1       23.045 -11.452   3.924  0.00  0.00    +0.000 A 
ATOM     36  C   LIG    1       23.363 -11.490   2.569  0.00  0.00    +0.001 A 
ATOM     37  C   LIG    1       24.550 -12.091   2.146  0.00  0.00    +0.011 A 
ENDBRANCH  30  32
ENDBRANCH  29  30
ENDBRANCH  28  29
ENDBRANCH  26  28
ENDBRANCH  25  26
ENDBRANCH  24  25
ENDBRANCH  23  24
ENDBRANCH   6  23
TORSDOF 15
ENDMDL
MODEL 4
REMARK VINA RESULT:       8.5      1.862      6.058
REMARK  Name = *****
REMARK                            x       y       z     vdW  Elec       q    Type
REMARK                         _______ _______ _______ _____ _____    ______ ____
ROOT
ATOM      1  C   LIG    1       23.056 -14.304   4.155  0.00  0.00    +0.044 C 
ATOM      2  C   LIG    1       22.680 -15.719   3.673  0.00  0.00    +0.006 C 
ATOM      3  C   LIG    1       21.564 -16.132   4.638  0.00  0.00    -0.001 C 
ATOM      4  C   LIG    1       21.512 -17.659   4.590  0.00  0.00    +0.034 C 
ATOM      5  C   LIG    1       22.880 -18.070   4.100  0.00  0.00    -0.073 C 
ATOM      6  C   LIG    1       23.310 -19.339   3.948  0.00  0.00    -0.027 C 
ATOM      7  C   LIG    1       21.982 -15.551   5.994  0.00  0.00    +0.036 C 
ATOM      8  C   LIG    1       23.713 -16.844   3.783  0.00  0.00    +0.035 C 
ATOM      9  C   LIG    1       22.822 -14.307   5.685  0.00  0.00    +0.122 C 
ENDROOT
BRANCH   1  11
ATOM     10  C   LIG    1       25.496 -14.475   3.631  0.00  0.00    +0.000 C 
ATOM     11  C   LIG    1       24.372 -13.736   3.683  0.00  0.00    -0.022 C 
BRANCH  10  12
ATOM     12  C   LIG    1       26.843 -13.983   3.167  0.00  0.00    +0.141 C 
BRANCH  12  13
ATOM     13  C   LIG    1       28.009 -14.555   4.004  0.00  0.00    +0.030 C 
ATOM     14  C   LIG    1       27.714 -15.983   4.488  0.00  0.00    +0.011 C 
BRANCH  13  15
ATOM     15  C   LIG    1       28.354 -13.629   5.188  0.00  0.00    +0.095 C 
BRANCH  15  18
ATOM     16  C   LIG    1       24.888 -11.528   5.797  0.00  0.00    +0.106 C 
ATOM     17  C   LIG    1       26.149 -12.260   5.757  0.00  0.00    -0.106 C 
ATOM     18  C   LIG    1       27.173 -12.870   5.590  0.00  0.00    -0.102 C 
ENDBRANCH  15  18
ENDBRANCH  13  15
ENDBRANCH  12  13
BRANCH  12  19
ATOM     19  O   LIG    1       27.008 -14.398   1.813  0.00  0.00    -0.388 OA
ATOM     20  H   LIG    1       27.951 -14.595   1.678  0.00  0.00    +0.210 HD
ENDBRANCH  12  19
ENDBRANCH  10  12
ENDBRANCH   1  11
BRANCH   9  21
ATOM     21  O   LIG    1       24.014 -14.327   6.459  0.00  0.00    -0.391 OA
ATOM     22  H   LIG    1       24.732 -14.682   5.909  0.00  0.00    +0.210 HD
ENDBRANCH   9  21
BRANCH   6  23
ATOM     23  C   LIG    1       22.517 -20.584   4.280  0.00  0.00    +0.028 C 
BRANCH  23  24
ATOM     24  C   LIG    1       22.347 -20.820   5.791  0.00  0.00    +0.015 C 
BRANCH  24  25
ATOM     25  C   LIG    1       23.340 -19.978   6.602  0.00  0.00    +0.121 C 
BRANCH  25  26
ATOM     26  C   LIG    1       24.767 -20.454   6.451  0.00  0.00    +0.307 C 
ATOM     27  O   LIG    1       25.733 -19.976   7.032  0.00  0.00    -0.251 OA
BRANCH  26  28
ATOM     28  O   LIG    1       24.807 -21.572   5.668  0.00  0.00    -0.457 OA
BRANCH  28  29
ATOM     29  C   LIG    1       25.371 -21.350   4.377  0.00  0.00    +0.311 C 
BRANCH  29  30
ATOM     30  C   LIG    1       26.242 -20.096   4.252  0.00  0.00    +0.200 C 
ATOM     31  O   LIG    1       26.085 -19.254   3.368  0.00  0.00    -0.288 OA
BRANCH  30  32
ATOM     32  C   LIG    1       27.404 -19.980   5.182  0.00  0.00    +0.021 A 
ATOM     33  C   LIG    1       27.755 -21.084   5.971  0.00  0.00    +0.011 A 
ATOM     34  C   LIG    1       28.781 -20.971   6.914  0.00  0.00    +0.001 A 
ATOM     35  C   LIG    1       29.475 -19.768   7.054  0.00  0.00    +0.000 A 
ATOM     36  C   LIG    1       29.157 -18.683   6.243  0.00  0.00    +0.001 A 
ATOM     37  C   LIG    1       28.121 -18.785   5.312  0.00  0.00    +0.011 A 
ENDBRANCH  30  32
ENDBRANCH  29  30
ENDBRANCH  28  29
ENDBRANCH  26  28
ENDBRANCH  25  26
ENDBRANCH  24  25
ENDBRANCH  23  24
ENDBRANCH   6  23
TORSDOF 15
ENDMDL
MODEL 5
REMARK VINA RESULT:       8.7      1.597      5.710
REMARK  Name = *****
REMARK                            x       y       z     vdW  Elec       q    Type
REMARK                         _______ _______ _______ _____ _____    ______ ____
ROOT
ATOM      1  C   LIG    1       22.987 -19.258   3.943  0.00  0.00    +0.044 C 
ATOM      2  C   LIG    1       24.462 -19.296   4.391  0.00  0.00    +0.006 C 
ATOM      3  C   LIG    1       25.001 -20.560   3.714  0.00  0.00    -0.001 C 
ATOM      4  C   LIG    1       26.245 -20.962   4.506  0.00  0.00    +0.034 C 
ATOM      5  C   LIG    1       26.056 -20.321   5.860  0.00  0.00    -0.073 C 
ATOM      6  C   LIG    1       26.892 -20.446   6.910  0.00  0.00    -0.027 C 
ATOM      7  C   LIG    1       23.847 -21.567   3.784  0.00  0.00    +0.036 C 
ATOM      8  C   LIG    1       24.787 -19.492   5.874  0.00  0.00    +0.035 C 
ATOM      9  C   LIG    1       22.557 -20.739   3.795  0.00  0.00    +0.122 C 
ENDROOT
BRANCH   1  11
ATOM     10  C   LIG    1       22.436 -17.179   5.220  0.00  0.00    +0.000 C 
ATOM     11  C   LIG    1       22.049 -18.366   4.718  0.00  0.00    -0.022 C 
BRANCH  10  12
ATOM     12  C   LIG    1       21.558 -16.232   5.997  0.00  0.00    +0.141 C 
BRANCH  12  13
ATOM     13  C   LIG    1       22.237 -14.869   6.262  0.00  0.00    +0.030 C 
ATOM     14  C   LIG    1       21.235 -13.829   6.790  0.00  0.00    +0.011 C 
BRANCH  13  15
ATOM     15  C   LIG    1       22.960 -14.350   5.003  0.00  0.00    +0.095 C 
BRANCH  15  18
ATOM     16  C   LIG    1       26.407 -12.247   5.708  0.00  0.00    +0.106 C 
ATOM     17  C   LIG    1       25.103 -12.888   5.579  0.00  0.00    -0.106 C 
ATOM     18  C   LIG    1       24.086 -13.503   5.386  0.00  0.00    -0.102 C 
ENDBRANCH  15  18
ENDBRANCH  13  15
ENDBRANCH  12  13
BRANCH  12  19
ATOM     19  O   LIG    1       20.379 -16.011   5.227  0.00  0.00    -0.388 OA
ATOM     20  H   LIG    1       20.006 -16.881   5.004  0.00  0.00    +0.210 HD
ENDBRANCH  12  19
ENDBRANCH  10  12
ENDBRANCH   1  11
BRANCH   9  21
ATOM     21  O   LIG    1       21.696 -21.203   4.826  0.00  0.00    -0.391 OA
ATOM     22  H   LIG    1       22.069 -22.019   5.196  0.00  0.00    +0.210 HD
ENDBRANCH   9  21
BRANCH   6  23
ATOM     23  C   LIG    1       28.151 -21.286   6.940  0.00  0.00    +0.028 C 
BRANCH  23  24
ATOM     24  C   LIG    1       29.375 -20.580   6.334  0.00  0.00    +0.015 C 
BRANCH  24  25
ATOM     25  C   LIG    1       28.959 -19.551   5.275  0.00  0.00    +0.121 C 
BRANCH  25  26
ATOM     26  C   LIG    1       29.094 -18.126   5.763  0.00  0.00    +0.307 C 
ATOM     27  O   LIG    1       29.475 -17.798   6.878  0.00  0.00    -0.251 OA
BRANCH  26  28
ATOM     28  O   LIG    1       28.848 -17.256   4.739  0.00  0.00    -0.457 OA
BRANCH  28  29
ATOM     29  C   LIG    1       28.326 -15.999   5.165  0.00  0.00    +0.311 C 
BRANCH  29  30
ATOM     30  C   LIG    1       28.369 -14.885   4.113  0.00  0.00    +0.200 C 
ATOM     31  O   LIG    1       29.338 -14.142   3.962  0.00  0.00    -0.288 OA
BRANCH  30  32
ATOM     32  C   LIG    1       27.118 -14.634   3.339  0.00  0.00    +0.021 A 
ATOM     33  C   LIG    1       26.976 -13.420   2.653  0.00  0.00    +0.011 A 
ATOM     34  C   LIG    1       25.777 -13.125   1.996  0.00  0.00    +0.001 A 
ATOM     35  C   LIG    1       24.731 -14.048   1.999  0.00  0.00    +0.000 A 
ATOM     36  C   LIG    1       24.884 -15.271   2.644  0.00  0.00    +0.001 A 
ATOM     37  C   LIG    1       26.071 -15.564   3.317  0.00  0.00    +0.011 A 
ENDBRANCH  30  32
ENDBRANCH  29  30
ENDBRANCH  28  29
ENDBRANCH  26  28
ENDBRANCH  25  26
ENDBRANCH  24  25
ENDBRANCH  23  24
ENDBRANCH   6  23
TORSDOF 15
ENDMDL
MODEL 6
REMARK VINA RESULT:       8.8      1.828      5.572
REMARK  Name = *****
REMARK                            x       y       z     vdW  Elec       q    Type
REMARK                         _______ _______ _______ _____ _____    ______ ____
ROOT
ATOM      1  C   LIG    1       22.279 -16.079   3.800  0.00  0.00    +0.044 C 
ATOM      2  C   LIG    1       22.890 -17.471   3.545  0.00  0.00    +0.006 C 
ATOM      3  C   LIG    1       22.112 -18.376   4.506  0.00  0.00    -0.001 C 
ATOM      4  C   LIG    1       22.983 -19.615   4.714  0.00  0.00    +0.034 C 
ATOM      5  C   LIG    1       24.381 -19.156   4.374  0.00  0.00    -0.073 C 
ATOM      6  C   LIG    1       25.495 -19.910   4.462  0.00  0.00    -0.027 C 
ATOM      7  C   LIG    1       21.902 -17.525   5.764  0.00  0.00    +0.036 C 
ATOM      8  C   LIG    1       24.360 -17.717   3.899  0.00  0.00    +0.035 C 
ATOM      9  C   LIG    1       21.874 -16.066   5.294  0.00  0.00    +0.122 C 
ENDROOT
BRANCH   1  11
ATOM     10  C   LIG    1       23.254 -13.792   4.075  0.00  0.00    +0.000 C 
ATOM     11  C   LIG    1       23.053 -14.881   3.309  0.00  0.00    -0.022 C 
BRANCH  10  12
ATOM     12  C   LIG    1       24.020 -12.562   3.660  0.00  0.00    +0.141 C 
BRANCH  12  13
ATOM     13  C   LIG    1       24.522 -12.634   2.200  0.00  0.00    +0.030 C 
ATOM     14  C   LIG    1       24.964 -14.057   1.821  0.00  0.00    +0.011 C 
BRANCH  13  15
ATOM     15  C   LIG    1       25.655 -11.618   1.947  0.00  0.00    +0.095 C 
BRANCH  15  18
ATOM     16  C   LIG    1       29.338 -12.565   3.476  0.00  0.00    +0.106 C 
ATOM     17  C   LIG    1       28.000 -12.405   2.916  0.00  0.00    -0.106 C 
ATOM     18  C   LIG    1       26.919 -12.139   2.459  0.00  0.00    -0.102 C 
ENDBRANCH  15  18
ENDBRANCH  13  15
ENDBRANCH  12  13
BRANCH  12  19
ATOM     19  O   LIG    1       23.141 -11.447   3.784  0.00  0.00    -0.388 OA
ATOM     20  H   LIG    1       22.592 -11.414   2.981  0.00  0.00    +0.210 HD
ENDBRANCH  12  19
ENDBRANCH  10  12
ENDBRANCH   1  11
BRANCH   9  21
ATOM     21  O   LIG    1       22.720 -15.278   6.122  0.00  0.00    -0.391 OA
ATOM     22  H   LIG    1       22.199 -14.541   6.482  0.00  0.00    +0.210 HD
ENDBRANCH   9  21
BRANCH   6  23
ATOM     23  C   LIG    1       25.558 -21.339   4.958  0.00  0.00    +0.028 C 
BRANCH  23  24
ATOM     24  C   LIG    1       26.306 -21.493   6.293  0.00  0.00    +0.015 C 
BRANCH  24  25
ATOM     25  C   LIG    1       26.844 -20.146   6.791  0.00  0.00    +0.121 C 
BRANCH  25  26
ATOM     26  C   LIG    1       28.152 -19.763   6.136  0.00  0.00    +0.307 C 
ATOM     27  O   LIG    1       28.951 -20.550   5.648  0.00  0.00    -0.251 OA
BRANCH  26  28
ATOM     28  O   LIG    1       28.255 -18.403   6.058  0.00  0.00    -0.457 OA
BRANCH  28  29
ATOM     29  C   LIG    1       28.674 -17.931   4.778  0.00  0.00    +0.311 C 
BRANCH  29  30
ATOM     30  C   LIG    1       27.686 -16.995   4.074  0.00  0.00    +0.200 C 
ATOM     31  O   LIG    1       27.188 -17.247   2.978  0.00  0.00    -0.288 OA
BRANCH  30  32
ATOM     32  C   LIG    1       27.433 -15.669   4.711  0.00  0.00    +0.021 A 
ATOM     33  C   LIG    1       28.465 -15.055   5.433  0.00  0.00    +0.011 A 
ATOM     34  C   LIG    1       28.224 -13.857   6.114  0.00  0.00    +0.001 A 
ATOM     35  C   LIG    1       26.966 -13.259   6.056  0.00  0.00    +0.000 A 
ATOM     36  C   LIG    1       25.950 -13.845   5.306  0.00  0.00    +0.001 A 
ATOM     37  C   LIG    1       26.179 -15.050   4.639  0.00  0.00    +0.011 A 
ENDBRANCH  30  32
ENDBRANCH  29  30
ENDBRANCH  28  29
ENDBRANCH  26  28
ENDBRANCH  25  26
ENDBRANCH  24  25
ENDBRANCH  23  24
ENDBRANCH   6  23
TORSDOF 15
ENDMDL
