MODEL 1
REMARK VINA RESULT:      -6.4      0.000      0.000
REMARK  Name = *****
REMARK                            x       y       z     vdW  Elec       q    Type
REMARK                         _______ _______ _______ _____ _____    ______ ____
ROOT
ATOM      1  C   LIG    1       27.968 -29.391  12.262  0.00  0.00    +0.042 C 
ATOM      2  C   LIG    1       27.477 -29.610  13.702  0.00  0.00    +0.069 C 
ATOM      3  C   LIG    1       25.906 -29.624  13.865  0.00  0.00    -0.000 C 
ATOM      4  C   LIG    1       25.569 -28.120  14.106  0.00  0.00    +0.001 C 
ATOM      5  C   LIG    1       24.649 -27.414  13.099  0.00  0.00    -0.004 C 
ATOM      6  C   LIG    1       23.536 -28.360  12.515  0.00  0.00    -0.001 C 
ATOM      7  C   LIG    1       24.412 -29.408  11.769  0.00  0.00    +0.005 C 
ATOM      8  C   LIG    1       22.231 -28.748  13.484  0.00  0.00    -0.022 C 
ATOM      9  C   LIG    1       22.004 -27.290  14.089  0.00  0.00    +0.001 C 
ATOM     10  C   LIG    1       21.028 -26.507  13.206  0.00  0.00    +0.059 C 
ATOM     11  C   LIG    1       19.759 -27.005  13.747  0.00  0.00    +0.040 A 
ATOM     12  C   LIG    1       19.620 -28.298  14.220  0.00  0.00    -0.006 A 
ATOM     13  C   LIG    1       18.460 -28.188  15.032  0.00  0.00    +0.138 A 
ATOM     14  N   LIG    1       17.983 -26.940  15.091  0.00  0.00    -0.182 NA
ATOM     15  N   LIG    1       18.837 -26.200  14.357  0.00  0.00    -0.281 N 
ATOM     16  H   LIG    1       18.855 -25.188  14.473  0.00  0.00    +0.189 HD
ATOM     17  C   LIG    1       23.102 -26.440  14.692  0.00  0.00    +0.005 C 
ATOM     18  C   LIG    1       21.555 -29.458  12.117  0.00  0.00    +0.012 C 
ATOM     19  C   LIG    1       20.828 -29.354  14.231  0.00  0.00    +0.045 C 
ATOM     20  C   LIG    1       24.125 -26.107  13.668  0.00  0.00    +0.004 C 
ATOM     21  C   LIG    1       26.909 -27.364  14.247  0.00  0.00    +0.007 C 
ATOM     22  C   LIG    1       25.493 -30.387  15.161  0.00  0.00    +0.014 C 
ATOM     23  C   LIG    1       25.129 -30.330  12.725  0.00  0.00    +0.010 C 
ATOM     24  C   LIG    1       27.916 -28.438  14.581  0.00  0.00    +0.035 C 
ENDROOT
BRANCH   2  25
ATOM     25  O   LIG    1       28.071 -30.821  14.150  0.00  0.00    -0.388 OA
ATOM     26  H   LIG    1       29.011 -30.652  14.330  0.00  0.00    +0.210 HD
ENDBRANCH   2  25
TORSDOF 1
ENDMDL
MODEL 2
REMARK VINA RESULT:      -5.9      4.594      6.526
REMARK  Name = *****
REMARK                            x       y       z     vdW  Elec       q    Type
REMARK                         _______ _______ _______ _____ _____    ______ ____
ROOT
ATOM      1  C   LIG    1       25.384 -28.533  15.500  0.00  0.00    +0.042 C 
ATOM      2  C   LIG    1       24.453 -27.835  14.495  0.00  0.00    +0.069 C 
ATOM      3  C   LIG    1       24.183 -28.655  13.173  0.00  0.00    -0.000 C 
ATOM      4  C   LIG    1       25.342 -28.194  12.235  0.00  0.00    +0.001 C 
ATOM      5  C   LIG    1       26.330 -29.257  11.731  0.00  0.00    -0.004 C 
ATOM      6  C   LIG    1       25.653 -30.654  11.475  0.00  0.00    -0.001 C 
ATOM      7  C   LIG    1       25.193 -31.018  12.917  0.00  0.00    +0.005 C 
ATOM      8  C   LIG    1       24.704 -30.842  10.113  0.00  0.00    -0.022 C 
ATOM      9  C   LIG    1       25.663 -30.063   9.104  0.00  0.00    +0.001 C 
ATOM     10  C   LIG    1       26.654 -31.043   8.467  0.00  0.00    +0.059 C 
ATOM     11  C   LIG    1       25.816 -31.560   7.380  0.00  0.00    +0.040 A 
ATOM     12  C   LIG    1       24.447 -31.710   7.516  0.00  0.00    -0.006 A 
ATOM     13  C   LIG    1       24.024 -31.767   6.161  0.00  0.00    +0.138 A 
ATOM     14  N   LIG    1       25.031 -31.606   5.295  0.00  0.00    -0.182 NA
ATOM     15  N   LIG    1       26.123 -31.401   6.057  0.00  0.00    -0.281 N 
ATOM     16  H   LIG    1       26.954 -30.979   5.644  0.00  0.00    +0.189 HD
ATOM     17  C   LIG    1       26.246 -28.692   9.375  0.00  0.00    +0.005 C 
ATOM     18  C   LIG    1       24.655 -32.479  10.495  0.00  0.00    +0.012 C 
ATOM     19  C   LIG    1       23.659 -31.322   8.859  0.00  0.00    +0.045 C 
ATOM     20  C   LIG    1       27.140 -28.729  10.560  0.00  0.00    +0.004 C 
ATOM     21  C   LIG    1       26.089 -27.049  12.956  0.00  0.00    +0.007 C 
ATOM     22  C   LIG    1       22.855 -28.191  12.499  0.00  0.00    +0.014 C 
ATOM     23  C   LIG    1       24.017 -30.184  13.364  0.00  0.00    +0.010 C 
ATOM     24  C   LIG    1       25.110 -26.549  13.989  0.00  0.00    +0.035 C 
ENDROOT
BRANCH   2  25
ATOM     25  O   LIG    1       23.253 -27.541  15.196  0.00  0.00    -0.388 OA
ATOM     26  H   LIG    1       22.744 -28.363  15.292  0.00  0.00    +0.210 HD
ENDBRANCH   2  25
TORSDOF 1
ENDMDL
MODEL 3
REMARK VINA RESULT:      -5.8      3.204      5.813
REMARK  Name = *****
REMARK                            x       y       z     vdW  Elec       q    Type
REMARK                         _______ _______ _______ _____ _____    ______ ____
ROOT
ATOM      1  C   LIG    1       21.415 -32.763  11.841  0.00  0.00    +0.042 C 
ATOM      2  C   LIG    1       21.739 -31.700  10.779  0.00  0.00    +0.069 C 
ATOM      3  C   LIG    1       22.907 -30.714  11.172  0.00  0.00    -0.000 C 
ATOM      4  C   LIG    1       22.157 -29.566  11.918  0.00  0.00    +0.001 C 
ATOM      5  C   LIG    1       22.524 -29.297  13.385  0.00  0.00    -0.004 C 
ATOM      6  C   LIG    1       24.048 -29.535  13.693  0.00  0.00    -0.001 C 
ATOM      7  C   LIG    1       24.163 -31.061  13.402  0.00  0.00    +0.005 C 
ATOM      8  C   LIG    1       25.154 -28.396  13.173  0.00  0.00    -0.022 C 
ATOM      9  C   LIG    1       24.303 -27.108  13.577  0.00  0.00    +0.001 C 
ATOM     10  C   LIG    1       24.645 -26.688  15.010  0.00  0.00    +0.059 C 
ATOM     11  C   LIG    1       25.851 -25.895  14.747  0.00  0.00    +0.040 A 
ATOM     12  C   LIG    1       26.729 -26.211  13.727  0.00  0.00    -0.006 A 
ATOM     13  C   LIG    1       27.425 -24.985  13.551  0.00  0.00    +0.138 A 
ATOM     14  N   LIG    1       26.969 -24.010  14.344  0.00  0.00    -0.182 NA
ATOM     15  N   LIG    1       25.944 -24.559  15.025  0.00  0.00    -0.281 N 
ATOM     16  H   LIG    1       25.260 -23.956  15.481  0.00  0.00    +0.189 HD
ATOM     17  C   LIG    1       22.849 -26.901  13.208  0.00  0.00    +0.005 C 
ATOM     18  C   LIG    1       26.298 -29.246  14.065  0.00  0.00    +0.012 C 
ATOM     19  C   LIG    1       26.503 -27.455  12.738  0.00  0.00    +0.045 C 
ATOM     20  C   LIG    1       21.998 -27.944  13.834  0.00  0.00    +0.004 C 
ATOM     21  C   LIG    1       20.643 -29.836  11.772  0.00  0.00    +0.007 C 
ATOM     22  C   LIG    1       23.543 -30.076   9.898  0.00  0.00    +0.014 C 
ATOM     23  C   LIG    1       24.097 -31.363  11.925  0.00  0.00    +0.010 C 
ATOM     24  C   LIG    1       20.537 -30.773  10.593  0.00  0.00    +0.035 C 
ENDROOT
BRANCH   2  25
ATOM     25  O   LIG    1       22.017 -32.405   9.577  0.00  0.00    -0.388 OA
ATOM     26  H   LIG    1       21.447 -33.191   9.544  0.00  0.00    +0.210 HD
ENDBRANCH   2  25
TORSDOF 1
ENDMDL
MODEL 4
REMARK VINA RESULT:      -5.7      2.866      4.747
REMARK  Name = *****
REMARK                            x       y       z     vdW  Elec       q    Type
REMARK                         _______ _______ _______ _____ _____    ______ ____
ROOT
ATOM      1  C   LIG    1       26.110 -33.068   9.176  0.00  0.00    +0.042 C 
ATOM      2  C   LIG    1       25.566 -31.786   8.525  0.00  0.00    +0.069 C 
ATOM      3  C   LIG    1       24.836 -30.803   9.521  0.00  0.00    -0.000 C 
ATOM      4  C   LIG    1       23.359 -31.305   9.485  0.00  0.00    +0.001 C 
ATOM      5  C   LIG    1       22.733 -31.805  10.796  0.00  0.00    -0.004 C 
ATOM      6  C   LIG    1       23.238 -31.016  12.059  0.00  0.00    -0.001 C 
ATOM      7  C   LIG    1       24.752 -31.379  12.038  0.00  0.00    +0.005 C 
ATOM      8  C   LIG    1       22.646 -29.477  12.326  0.00  0.00    -0.022 C 
ATOM      9  C   LIG    1       21.126 -29.791  11.959  0.00  0.00    +0.001 C 
ATOM     10  C   LIG    1       20.368 -30.227  13.216  0.00  0.00    +0.059 C 
ATOM     11  C   LIG    1       20.035 -28.909  13.767  0.00  0.00    +0.040 A 
ATOM     12  C   LIG    1       20.875 -27.820  13.622  0.00  0.00    -0.006 A 
ATOM     13  C   LIG    1       19.990 -26.735  13.863  0.00  0.00    +0.138 A 
ATOM     14  N   LIG    1       18.729 -27.129  14.071  0.00  0.00    -0.182 NA
ATOM     15  N   LIG    1       18.750 -28.469  13.933  0.00  0.00    -0.281 N 
ATOM     16  H   LIG    1       17.880 -28.973  13.768  0.00  0.00    +0.189 HD
ATOM     17  C   LIG    1       20.687 -30.507  10.699  0.00  0.00    +0.005 C 
ATOM     18  C   LIG    1       23.425 -29.544  13.816  0.00  0.00    +0.012 C 
ATOM     19  C   LIG    1       22.270 -27.897  12.834  0.00  0.00    +0.045 C 
ATOM     20  C   LIG    1       21.221 -31.892  10.674  0.00  0.00    +0.004 C 
ATOM     21  C   LIG    1       23.267 -32.387   8.386  0.00  0.00    +0.007 C 
ATOM     22  C   LIG    1       24.826 -29.350   8.953  0.00  0.00    +0.014 C 
ATOM     23  C   LIG    1       25.487 -30.676  10.922  0.00  0.00    +0.010 C 
ATOM     24  C   LIG    1       24.475 -32.144   7.514  0.00  0.00    +0.035 C 
ENDROOT
BRANCH   2  25
ATOM     25  O   LIG    1       26.667 -31.167   7.874  0.00  0.00    -0.388 OA
ATOM     26  H   LIG    1       26.445 -31.057   6.934  0.00  0.00    +0.210 HD
ENDBRANCH   2  25
TORSDOF 1
ENDMDL
MODEL 5
REMARK VINA RESULT:      -5.4      5.225      7.669
REMARK  Name = *****
REMARK                            x       y       z     vdW  Elec       q    Type
REMARK                         _______ _______ _______ _____ _____    ______ ____
ROOT
ATOM      1  C   LIG    1       21.125 -30.331  14.483  0.00  0.00    +0.042 C 
ATOM      2  C   LIG    1       20.612 -29.839  13.119  0.00  0.00    +0.069 C 
ATOM      3  C   LIG    1       21.250 -30.572  11.875  0.00  0.00    -0.000 C 
ATOM      4  C   LIG    1       22.516 -29.709  11.576  0.00  0.00    +0.001 C 
ATOM      5  C   LIG    1       23.891 -30.390  11.659  0.00  0.00    -0.004 C 
ATOM      6  C   LIG    1       23.864 -31.891  11.191  0.00  0.00    -0.001 C 
ATOM      7  C   LIG    1       22.915 -32.508  12.261  0.00  0.00    +0.005 C 
ATOM      8  C   LIG    1       23.768 -32.214   9.554  0.00  0.00    -0.022 C 
ATOM      9  C   LIG    1       24.805 -31.100   9.080  0.00  0.00    +0.001 C 
ATOM     10  C   LIG    1       26.219 -31.687   9.044  0.00  0.00    +0.059 C 
ATOM     11  C   LIG    1       26.185 -32.318   7.720  0.00  0.00    +0.040 A 
ATOM     12  C   LIG    1       25.027 -32.868   7.199  0.00  0.00    -0.006 A 
ATOM     13  C   LIG    1       25.326 -32.916   5.811  0.00  0.00    +0.138 A 
ATOM     14  N   LIG    1       26.521 -32.390   5.518  0.00  0.00    -0.182 NA
ATOM     15  N   LIG    1       27.012 -31.952   6.694  0.00  0.00    -0.281 N 
ATOM     16  H   LIG    1       27.771 -31.272   6.701  0.00  0.00    +0.189 HD
ATOM     17  C   LIG    1       24.755 -29.651   9.518  0.00  0.00    +0.005 C 
ATOM     18  C   LIG    1       24.036 -33.825   9.958  0.00  0.00    +0.012 C 
ATOM     19  C   LIG    1       23.628 -32.853   7.984  0.00  0.00    +0.045 C 
ATOM     20  C   LIG    1       24.956 -29.542  10.985  0.00  0.00    +0.004 C 
ATOM     21  C   LIG    1       22.460 -28.472  12.499  0.00  0.00    +0.007 C 
ATOM     22  C   LIG    1       20.322 -30.448  10.628  0.00  0.00    +0.014 C 
ATOM     23  C   LIG    1       21.479 -32.095  12.050  0.00  0.00    +0.010 C 
ATOM     24  C   LIG    1       21.012 -28.376  12.915  0.00  0.00    +0.035 C 
ENDROOT
BRANCH   2  25
ATOM     25  O   LIG    1       19.198 -29.971  13.150  0.00  0.00    -0.388 OA
ATOM     26  H   LIG    1       18.820 -29.142  13.489  0.00  0.00    +0.210 HD
ENDBRANCH   2  25
TORSDOF 1
ENDMDL
MODEL 6
REMARK VINA RESULT:      -5.4      3.438      5.582
REMARK  Name = *****
REMARK                            x       y       z     vdW  Elec       q    Type
REMARK                         _______ _______ _______ _____ _____    ______ ____
ROOT
ATOM      1  C   LIG    1       26.159 -32.581   7.657  0.00  0.00    +0.042 C 
ATOM      2  C   LIG    1       25.507 -31.223   7.349  0.00  0.00    +0.069 C 
ATOM      3  C   LIG    1       25.580 -30.178   8.530  0.00  0.00    -0.000 C 
ATOM      4  C   LIG    1       24.284 -30.482   9.344  0.00  0.00    +0.001 C 
ATOM      5  C   LIG    1       24.436 -30.928  10.807  0.00  0.00    -0.004 C 
ATOM      6  C   LIG    1       25.650 -30.243  11.536  0.00  0.00    -0.001 C 
ATOM      7  C   LIG    1       26.839 -30.800  10.698  0.00  0.00    +0.005 C 
ATOM      8  C   LIG    1       25.501 -28.646  12.004  0.00  0.00    -0.022 C 
ATOM      9  C   LIG    1       24.008 -28.749  12.557  0.00  0.00    +0.001 C 
ATOM     10  C   LIG    1       24.030 -29.113  14.045  0.00  0.00    +0.059 C 
ATOM     11  C   LIG    1       24.223 -27.777  14.618  0.00  0.00    +0.040 A 
ATOM     12  C   LIG    1       24.967 -26.804  13.975  0.00  0.00    -0.006 A 
ATOM     13  C   LIG    1       24.506 -25.619  14.608  0.00  0.00    +0.138 A 
ATOM     14  N   LIG    1       23.537 -25.849  15.500  0.00  0.00    -0.182 NA
ATOM     15  N   LIG    1       23.313 -27.176  15.444  0.00  0.00    -0.281 N 
ATOM     16  H   LIG    1       22.444 -27.558  15.815  0.00  0.00    +0.189 HD
ATOM     17  C   LIG    1       22.860 -29.371  11.791  0.00  0.00    +0.005 C 
ATOM     18  C   LIG    1       26.960 -28.852  12.814  0.00  0.00    +0.012 C 
ATOM     19  C   LIG    1       25.667 -27.043  12.551  0.00  0.00    +0.045 C 
ATOM     20  C   LIG    1       23.115 -30.813  11.547  0.00  0.00    +0.004 C 
ATOM     21  C   LIG    1       23.465 -31.515   8.538  0.00  0.00    +0.007 C 
ATOM     22  C   LIG    1       25.434 -28.723   7.988  0.00  0.00    +0.014 C 
ATOM     23  C   LIG    1       26.910 -30.172   9.328  0.00  0.00    +0.010 C 
ATOM     24  C   LIG    1       24.004 -31.411   7.133  0.00  0.00    +0.035 C 
ENDROOT
BRANCH   2  25
ATOM     25  O   LIG    1       26.126 -30.738   6.166  0.00  0.00    -0.388 OA
ATOM     26  H   LIG    1       27.053 -31.027   6.165  0.00  0.00    +0.210 HD
ENDBRANCH   2  25
TORSDOF 1
ENDMDL
MODEL 7
REMARK VINA RESULT:      -5.2      3.813      5.728
REMARK  Name = *****
REMARK                            x       y       z     vdW  Elec       q    Type
REMARK                         _______ _______ _______ _____ _____    ______ ____
ROOT
ATOM      1  C   LIG    1       26.513 -32.708   7.200  0.00  0.00    +0.042 C 
ATOM      2  C   LIG    1       25.551 -31.571   6.820  0.00  0.00    +0.069 C 
ATOM      3  C   LIG    1       24.929 -30.799   8.049  0.00  0.00    -0.000 C 
ATOM      4  C   LIG    1       23.640 -31.623   8.360  0.00  0.00    +0.001 C 
ATOM      5  C   LIG    1       23.518 -32.278   9.744  0.00  0.00    -0.004 C 
ATOM      6  C   LIG    1       24.169 -31.420  10.891  0.00  0.00    -0.001 C 
ATOM      7  C   LIG    1       25.661 -31.430  10.444  0.00  0.00    +0.005 C 
ATOM      8  C   LIG    1       23.359 -30.061  11.427  0.00  0.00    -0.022 C 
ATOM      9  C   LIG    1       21.900 -30.705  11.447  0.00  0.00    +0.001 C 
ATOM     10  C   LIG    1       21.625 -31.327  12.819  0.00  0.00    +0.059 C 
ATOM     11  C   LIG    1       21.183 -30.130  13.543  0.00  0.00    +0.040 A 
ATOM     12  C   LIG    1       21.699 -28.876  13.271  0.00  0.00    -0.006 A 
ATOM     13  C   LIG    1       20.704 -28.025  13.822  0.00  0.00    +0.138 A 
ATOM     14  N   LIG    1       19.662 -28.699  14.321  0.00  0.00    -0.182 NA
ATOM     15  N   LIG    1       19.930 -29.996  14.075  0.00  0.00    -0.281 N 
ATOM     16  H   LIG    1       19.175 -30.681  14.103  0.00  0.00    +0.189 HD
ATOM     17  C   LIG    1       21.297 -31.477  10.293  0.00  0.00    +0.005 C 
ATOM     18  C   LIG    1       24.511 -29.980  12.650  0.00  0.00    +0.012 C 
ATOM     19  C   LIG    1       22.809 -28.618  12.141  0.00  0.00    +0.045 C 
ATOM     20  C   LIG    1       22.085 -32.704  10.016  0.00  0.00    +0.004 C 
ATOM     21  C   LIG    1       23.485 -32.675   7.240  0.00  0.00    +0.007 C 
ATOM     22  C   LIG    1       24.455 -29.376   7.623  0.00  0.00    +0.014 C 
ATOM     23  C   LIG    1       25.895 -30.556   9.236  0.00  0.00    +0.010 C 
ATOM     24  C   LIG    1       24.327 -32.147   6.104  0.00  0.00    +0.035 C 
ENDROOT
BRANCH   2  25
ATOM     25  O   LIG    1       26.273 -30.705   5.955  0.00  0.00    -0.388 OA
ATOM     26  H   LIG    1       26.718 -30.032   6.497  0.00  0.00    +0.210 HD
ENDBRANCH   2  25
TORSDOF 1
ENDMDL
MODEL 8
REMARK VINA RESULT:      -5.0      3.099      4.365
REMARK  Name = *****
REMARK                            x       y       z     vdW  Elec       q    Type
REMARK                         _______ _______ _______ _____ _____    ______ ____
ROOT
ATOM      1  C   LIG    1       26.874 -26.890  15.343  0.00  0.00    +0.042 C 
ATOM      2  C   LIG    1       25.904 -26.175  14.388  0.00  0.00    +0.069 C 
ATOM      3  C   LIG    1       24.605 -27.000  14.033  0.00  0.00    -0.000 C 
ATOM      4  C   LIG    1       25.046 -27.820  12.781  0.00  0.00    +0.001 C 
ATOM      5  C   LIG    1       25.016 -29.354  12.873  0.00  0.00    -0.004 C 
ATOM      6  C   LIG    1       23.834 -29.894  13.760  0.00  0.00    -0.001 C 
ATOM      7  C   LIG    1       24.221 -29.300  15.146  0.00  0.00    +0.005 C 
ATOM      8  C   LIG    1       22.287 -29.869  13.128  0.00  0.00    -0.022 C 
ATOM      9  C   LIG    1       22.672 -30.374  11.665  0.00  0.00    +0.001 C 
ATOM     10  C   LIG    1       22.598 -31.903  11.607  0.00  0.00    +0.059 C 
ATOM     11  C   LIG    1       21.162 -32.066  11.361  0.00  0.00    +0.040 A 
ATOM     12  C   LIG    1       20.224 -31.194  11.883  0.00  0.00    -0.006 A 
ATOM     13  C   LIG    1       19.102 -31.436  11.046  0.00  0.00    +0.138 A 
ATOM     14  N   LIG    1       19.358 -32.321  10.077  0.00  0.00    -0.182 NA
ATOM     15  N   LIG    1       20.656 -32.648  10.230  0.00  0.00    -0.281 N 
ATOM     16  H   LIG    1       21.162 -33.083   9.459  0.00  0.00    +0.189 HD
ATOM     17  C   LIG    1       23.786 -29.782  10.828  0.00  0.00    +0.005 C 
ATOM     18  C   LIG    1       21.828 -30.757  14.481  0.00  0.00    +0.012 C 
ATOM     19  C   LIG    1       20.622 -29.929  12.787  0.00  0.00    +0.045 C 
ATOM     20  C   LIG    1       25.099 -29.980  11.492  0.00  0.00    +0.004 C 
ATOM     21  C   LIG    1       26.451 -27.323  12.376  0.00  0.00    +0.007 C 
ATOM     22  C   LIG    1       23.460 -26.051  13.564  0.00  0.00    +0.014 C 
ATOM     23  C   LIG    1       23.994 -27.809  15.207  0.00  0.00    +0.010 C 
ATOM     24  C   LIG    1       26.576 -25.969  13.029  0.00  0.00    +0.035 C 
ENDROOT
BRANCH   2  25
ATOM     25  O   LIG    1       25.595 -24.925  14.988  0.00  0.00    -0.388 OA
ATOM     26  H   LIG    1       25.291 -25.088  15.897  0.00  0.00    +0.210 HD
ENDBRANCH   2  25
TORSDOF 1
ENDMDL
MODEL 9
REMARK VINA RESULT:      -5.0      5.487      7.331
REMARK  Name = *****
REMARK                            x       y       z     vdW  Elec       q    Type
REMARK                         _______ _______ _______ _____ _____    ______ ____
ROOT
ATOM      1  C   LIG    1       25.474 -33.825  10.832  0.00  0.00    +0.042 C 
ATOM      2  C   LIG    1       24.433 -32.744  11.169  0.00  0.00    +0.069 C 
ATOM      3  C   LIG    1       24.219 -31.664  10.037  0.00  0.00    -0.000 C 
ATOM      4  C   LIG    1       25.284 -30.579  10.387  0.00  0.00    +0.001 C 
ATOM      5  C   LIG    1       26.374 -30.273   9.348  0.00  0.00    -0.004 C 
ATOM      6  C   LIG    1       25.860 -30.386   7.866  0.00  0.00    -0.001 C 
ATOM      7  C   LIG    1       25.494 -31.898   7.803  0.00  0.00    +0.005 C 
ATOM      8  C   LIG    1       24.895 -29.163   7.261  0.00  0.00    -0.022 C 
ATOM      9  C   LIG    1       25.721 -27.947   7.880  0.00  0.00    +0.001 C 
ATOM     10  C   LIG    1       26.799 -27.494   6.891  0.00  0.00    +0.059 C 
ATOM     11  C   LIG    1       25.993 -26.607   6.045  0.00  0.00    +0.040 A 
ATOM     12  C   LIG    1       24.657 -26.855   5.785  0.00  0.00    -0.006 A 
ATOM     13  C   LIG    1       24.200 -25.577   5.365  0.00  0.00    +0.138 A 
ATOM     14  N   LIG    1       25.150 -24.639   5.426  0.00  0.00    -0.182 NA
ATOM     15  N   LIG    1       26.235 -25.266   5.921  0.00  0.00    -0.281 N 
ATOM     16  H   LIG    1       26.996 -24.718   6.321  0.00  0.00    +0.189 HD
ATOM     17  C   LIG    1       26.146 -27.860   9.331  0.00  0.00    +0.005 C 
ATOM     18  C   LIG    1       25.054 -29.914   5.764  0.00  0.00    +0.012 C 
ATOM     19  C   LIG    1       23.874 -28.117   6.390  0.00  0.00    +0.045 C 
ATOM     20  C   LIG    1       27.076 -28.966   9.670  0.00  0.00    +0.004 C 
ATOM     21  C   LIG    1       25.913 -30.970  11.742  0.00  0.00    +0.007 C 
ATOM     22  C   LIG    1       22.824 -30.983  10.183  0.00  0.00    +0.014 C 
ATOM     23  C   LIG    1       24.243 -32.212   8.587  0.00  0.00    +0.010 C 
ATOM     24  C   LIG    1       24.916 -31.918  12.363  0.00  0.00    +0.035 C 
ENDROOT
BRANCH   2  25
ATOM     25  O   LIG    1       23.231 -33.430  11.489  0.00  0.00    -0.388 OA
ATOM     26  H   LIG    1       23.027 -33.271  12.425  0.00  0.00    +0.210 HD
ENDBRANCH   2  25
TORSDOF 1
ENDMDL
