MODEL 1
REMARK VINA RESULT:      -4.7      0.000      0.000
REMARK  Name = *****
REMARK                            x       y       z     vdW  Elec       q    Type
REMARK                         _______ _______ _______ _____ _____    ______ ____
ROOT
ATOM      1  C   LIG    1       24.771 -29.525  11.033  0.00  0.00    +0.005 C 
ATOM      2  C   LIG    1       24.559 -28.654  12.128  0.00  0.00    +0.125 C 
ATOM      3  C   LIG    1       23.428 -28.780  12.954  0.00  0.00    +0.056 C 
ATOM      4  C   LIG    1       22.565 -29.874  12.814  0.00  0.00    +0.007 C 
ATOM      5  C   LIG    1       22.853 -30.814  11.825  0.00  0.00    +0.048 C 
ATOM      6  N   LIG    1       21.914 -31.823  11.919  0.00  0.00    -0.357 NA
ATOM      7  H   LIG    1       21.879 -32.631  11.310  0.00  0.00    +0.166 HD
ATOM      8  C   LIG    1       21.012 -31.488  12.881  0.00  0.00    +0.039 C 
ATOM      9  C   LIG    1       19.741 -32.124  13.270  0.00  0.00    +0.123 C 
ATOM     10  C   LIG    1       18.952 -33.344  12.868  0.00  0.00    +0.030 C 
ATOM     11  C   LIG    1       17.443 -32.964  13.229  0.00  0.00    +0.005 C 
ATOM     12  C   LIG    1       16.877 -32.368  11.936  0.00  0.00    +0.010 C 
ATOM     13  C   LIG    1       17.783 -31.180  11.593  0.00  0.00    +0.008 C 
ATOM     14  C   LIG    1       17.274 -31.793  14.347  0.00  0.00    +0.088 C 
ATOM     15  N   LIG    1       18.002 -30.542  13.969  0.00  0.00    -0.297 NA
ATOM     16  C   LIG    1       18.983 -29.910  14.916  0.00  0.00    +0.089 C 
ATOM     17  C   LIG    1       20.451 -29.405  14.413  0.00  0.00    +0.053 C 
ATOM     18  C   LIG    1       18.753 -30.910  12.800  0.00  0.00    +0.082 C 
ATOM     19  C   LIG    1       21.346 -30.255  13.447  0.00  0.00    -0.017 C 
ATOM     20  C   LIG    1       23.910 -30.645  10.914  0.00  0.00    +0.034 C 
ENDROOT
BRANCH   1  30
ATOM     21  C   LIG    1       28.824 -33.825   6.735  0.00  0.00    +0.035 C 
ATOM     22  C   LIG    1       28.145 -32.853   7.648  0.00  0.00    -0.030 C 
ATOM     23  C   LIG    1       26.945 -32.288   7.435  0.00  0.00    -0.056 C 
ATOM     24  C   LIG    1       26.287 -31.318   8.377  0.00  0.00    +0.032 C 
ATOM     25  C   LIG    1       24.845 -31.785   8.576  0.00  0.00    +0.122 C 
ATOM     26  C   LIG    1       24.099 -31.392   7.307  0.00  0.00    +0.075 C 
ATOM     27  C   LIG    1       23.662 -29.881   7.437  0.00  0.00    +0.057 C 
ATOM     28  C   LIG    1       24.735 -28.809   7.649  0.00  0.00    -0.017 C 
ATOM     29  C   LIG    1       25.607 -28.586   8.735  0.00  0.00    +0.028 C 
ATOM     30  C   LIG    1       25.946 -29.352  10.038  0.00  0.00    +0.070 C 
ATOM     31  N   LIG    1       26.364 -27.477   8.421  0.00  0.00    -0.357 NA
ATOM     32  H   LIG    1       27.070 -27.077   9.021  0.00  0.00    +0.166 HD
ATOM     33  C   LIG    1       26.143 -27.073   7.131  0.00  0.00    +0.047 C 
ATOM     34  C   LIG    1       26.799 -26.095   6.371  0.00  0.00    +0.026 C 
ATOM     35  C   LIG    1       26.376 -25.906   5.053  0.00  0.00    +0.002 C 
ATOM     36  C   LIG    1       25.322 -26.647   4.530  0.00  0.00    +0.001 C 
ATOM     37  C   LIG    1       24.675 -27.615   5.309  0.00  0.00    +0.010 C 
ATOM     38  C   LIG    1       25.103 -27.850   6.634  0.00  0.00    +0.003 C 
ATOM     39  N   LIG    1       24.874 -31.643   6.056  0.00  0.00    -0.297 NA
ATOM     40  C   LIG    1       23.984 -32.156   5.013  0.00  0.00    +0.105 C 
ATOM     41  C   LIG    1       26.824 -30.642   9.650  0.00  0.00    +0.023 C 
ATOM     42  C   LIG    1       26.079 -32.510   6.179  0.00  0.00    +0.115 C 
BRANCH  25  43
ATOM     43  C   LIG    1       24.725 -33.242   9.016  0.00  0.00    +0.312 C 
ATOM     44  O   LIG    1       25.570 -33.815   9.693  0.00  0.00    -0.251 OA
BRANCH  43  45
ATOM     45  O   LIG    1       23.591 -33.825   8.546  0.00  0.00    -0.468 OA
ATOM     46  C   LIG    1       22.440 -33.776   9.385  0.00  0.00    +0.280 C 
ENDBRANCH  43  45
ENDBRANCH  25  43
ENDBRANCH   1  30
BRANCH   2  47
ATOM     47  O   LIG    1       25.469 -27.649  12.345  0.00  0.00    -0.495 OA
ATOM     48  C   LIG    1       26.305 -27.795  13.487  0.00  0.00    +0.277 C 
ENDBRANCH   2  47
BRANCH   9  49
ATOM     49  C   LIG    1       20.151 -32.639  14.787  0.00  0.00    +0.321 C 
ATOM     50  O   LIG    1       19.579 -33.438  15.500  0.00  0.00    -0.250 OA
BRANCH  49  51
ATOM     51  O   LIG    1       21.429 -32.219  15.104  0.00  0.00    -0.467 OA
ATOM     52  C   LIG    1       22.327 -33.267  15.499  0.00  0.00    +0.280 C 
ENDBRANCH  49  51
ENDBRANCH   9  49
BRANCH  13  53
ATOM     53  C   LIG    1       18.503 -31.349  10.236  0.00  0.00    +0.002 C 
ATOM     54  C   LIG    1       18.034 -32.562   9.437  0.00  0.00    +0.004 C 
ENDBRANCH  13  53
TORSDOF 7
ENDMDL
