MODEL 1
REMARK VINA RESULT:       2.4      0.000      0.000
REMARK  Name = *****
REMARK                            x       y       z     vdW  Elec       q    Type
REMARK                         _______ _______ _______ _____ _____    ______ ____
ROOT
ATOM      1  C   LIG    1       25.626 -15.100   3.487  0.00  0.00    +0.059 C 
ENDROOT
BRANCH   1   2
ATOM      2  C   LIG    1       26.731 -14.242   4.221  0.00  0.00    -0.033 A 
ATOM      3  C   LIG    1       26.615 -13.787   5.545  0.00  0.00    +0.005 A 
ATOM      4  C   LIG    1       27.521 -12.882   6.107  0.00  0.00    +0.000 A 
ATOM      5  C   LIG    1       28.584 -12.405   5.359  0.00  0.00    +0.000 A 
ATOM      6  C   LIG    1       28.803 -12.927   4.093  0.00  0.00    +0.000 A 
ATOM      7  C   LIG    1       27.935 -13.892   3.574  0.00  0.00    +0.005 A 
ENDBRANCH   1   2
BRANCH   1   8
ATOM      8  C   LIG    1       24.274 -15.262   4.318  0.00  0.00    -0.033 A 
ATOM      9  C   LIG    1       23.335 -16.287   4.074  0.00  0.00    +0.005 A 
ATOM     10  C   LIG    1       22.215 -16.514   4.885  0.00  0.00    +0.000 A 
ATOM     11  C   LIG    1       21.924 -15.646   5.919  0.00  0.00    +0.000 A 
ATOM     12  C   LIG    1       22.754 -14.551   6.127  0.00  0.00    +0.000 A 
ATOM     13  C   LIG    1       23.895 -14.348   5.322  0.00  0.00    +0.005 A 
ENDBRANCH   1   8
BRANCH   1  14
ATOM     14  C   LIG    1       26.116 -16.646   3.195  0.00  0.00    +0.191 C 
BRANCH  14  16
ATOM     15  C   LIG    1       24.827 -18.898   2.917  0.00  0.00    +0.007 C 
ATOM     16  C   LIG    1       25.198 -17.727   3.836  0.00  0.00    +0.042 C 
ENDBRANCH  14  16
BRANCH  14  17
ATOM     17  O   LIG    1       27.446 -16.918   3.698  0.00  0.00    -0.460 OA
BRANCH  17  18
ATOM     18  C   LIG    1       27.748 -17.987   4.444  0.00  0.00    +0.304 C 
ATOM     19  O   LIG    1       27.048 -18.986   4.501  0.00  0.00    -0.251 OA
ATOM     20  C   LIG    1       29.001 -17.834   5.193  0.00  0.00    +0.136 C 
ENDBRANCH  17  18
ENDBRANCH  14  17
ENDBRANCH   1  14
BRANCH   1  21
ATOM     21  C   LIG    1       25.422 -14.391   2.061  0.00  0.00    +0.038 C 
BRANCH  21  22
ATOM     22  C   LIG    1       24.284 -13.326   1.813  0.00  0.00    +0.054 C 
ATOM     23  C   LIG    1       22.970 -13.792   2.494  0.00  0.00    +0.024 C 
BRANCH  22  24
ATOM     24  N   LIG    1       24.637 -11.936   2.169  0.00  0.00    -0.306 NA
ATOM     25  C   LIG    1       26.073 -11.678   2.200  0.00  0.00    +0.105 C 
ATOM     26  C   LIG    1       24.071 -11.486   3.445  0.00  0.00    +0.105 C 
ENDBRANCH  22  24
ENDBRANCH  21  22
ENDBRANCH   1  21
TORSDOF 9
ENDMDL
MODEL 2
REMARK VINA RESULT:       2.5      2.734      5.081
REMARK  Name = *****
REMARK                            x       y       z     vdW  Elec       q    Type
REMARK                         _______ _______ _______ _____ _____    ______ ____
ROOT
ATOM      1  C   LIG    1       23.603 -18.349   4.310  0.00  0.00    +0.059 C 
ENDROOT
BRANCH   1   2
ATOM      2  C   LIG    1       24.083 -19.406   5.381  0.00  0.00    -0.033 A 
ATOM      3  C   LIG    1       25.432 -19.726   5.611  0.00  0.00    +0.005 A 
ATOM      4  C   LIG    1       25.818 -20.790   6.434  0.00  0.00    +0.000 A 
ATOM      5  C   LIG    1       24.860 -21.568   7.061  0.00  0.00    +0.000 A 
ATOM      6  C   LIG    1       23.526 -21.206   6.959  0.00  0.00    +0.000 A 
ATOM      7  C   LIG    1       23.160 -20.091   6.198  0.00  0.00    +0.005 A 
ENDBRANCH   1   2
BRANCH   1   8
ATOM      8  C   LIG    1       22.101 -18.566   3.813  0.00  0.00    -0.033 A 
ATOM      9  C   LIG    1       21.377 -19.756   4.037  0.00  0.00    +0.005 A 
ATOM     10  C   LIG    1       20.019 -19.902   3.724  0.00  0.00    +0.000 A 
ATOM     11  C   LIG    1       19.350 -18.890   3.063  0.00  0.00    +0.000 A 
ATOM     12  C   LIG    1       20.052 -17.742   2.713  0.00  0.00    +0.000 A 
ATOM     13  C   LIG    1       21.412 -17.594   3.060  0.00  0.00    +0.005 A 
ENDBRANCH   1   8
BRANCH   1  14
ATOM     14  C   LIG    1       24.500 -18.395   2.929  0.00  0.00    +0.191 C 
BRANCH  14  16
ATOM     15  C   LIG    1       24.551 -20.994   2.702  0.00  0.00    +0.007 C 
ATOM     16  C   LIG    1       25.352 -19.689   2.774  0.00  0.00    +0.042 C 
ENDBRANCH  14  16
BRANCH  14  17
ATOM     17  O   LIG    1       25.440 -17.298   2.833  0.00  0.00    -0.460 OA
BRANCH  17  18
ATOM     18  C   LIG    1       26.586 -17.246   3.522  0.00  0.00    +0.304 C 
ATOM     19  O   LIG    1       27.115 -18.227   4.021  0.00  0.00    -0.251 OA
ATOM     20  C   LIG    1       27.137 -15.890   3.625  0.00  0.00    +0.136 C 
ENDBRANCH  17  18
ENDBRANCH  14  17
ENDBRANCH   1  14
BRANCH   1  21
ATOM     21  C   LIG    1       23.852 -16.918   4.990  0.00  0.00    +0.038 C 
BRANCH  21  22
ATOM     22  C   LIG    1       22.860 -15.708   4.781  0.00  0.00    +0.054 C 
ATOM     23  C   LIG    1       21.930 -15.571   6.015  0.00  0.00    +0.024 C 
BRANCH  22  24
ATOM     24  N   LIG    1       23.501 -14.427   4.417  0.00  0.00    -0.306 NA
ATOM     25  C   LIG    1       23.845 -14.316   3.004  0.00  0.00    +0.105 C 
ATOM     26  C   LIG    1       24.704 -14.121   5.199  0.00  0.00    +0.105 C 
ENDBRANCH  22  24
ENDBRANCH  21  22
ENDBRANCH   1  21
TORSDOF 9
ENDMDL
MODEL 3
REMARK VINA RESULT:       3.0      1.029      1.904
REMARK  Name = *****
REMARK                            x       y       z     vdW  Elec       q    Type
REMARK                         _______ _______ _______ _____ _____    ______ ____
ROOT
ATOM      1  C   LIG    1       25.680 -15.159   3.834  0.00  0.00    +0.059 C 
ENDROOT
BRANCH   1   2
ATOM      2  C   LIG    1       26.802 -14.187   4.374  0.00  0.00    -0.033 A 
ATOM      3  C   LIG    1       26.711 -13.490   5.591  0.00  0.00    +0.005 A 
ATOM      4  C   LIG    1       27.632 -12.503   5.958  0.00  0.00    +0.000 A 
ATOM      5  C   LIG    1       28.683 -12.184   5.115  0.00  0.00    +0.000 A 
ATOM      6  C   LIG    1       28.878 -12.936   3.967  0.00  0.00    +0.000 A 
ATOM      7  C   LIG    1       27.995 -13.975   3.653  0.00  0.00    +0.005 A 
ENDBRANCH   1   2
BRANCH   1   8
ATOM      8  C   LIG    1       24.321 -15.109   4.670  0.00  0.00    -0.033 A 
ATOM      9  C   LIG    1       23.984 -14.046   5.534  0.00  0.00    +0.005 A 
ATOM     10  C   LIG    1       22.738 -13.932   6.164  0.00  0.00    +0.000 A 
ATOM     11  C   LIG    1       21.807 -14.946   6.044  0.00  0.00    +0.000 A 
ATOM     12  C   LIG    1       22.137 -16.072   5.298  0.00  0.00    +0.000 A 
ATOM     13  C   LIG    1       23.385 -16.162   4.644  0.00  0.00    +0.005 A 
ENDBRANCH   1   8
BRANCH   1  14
ATOM     14  C   LIG    1       26.135 -16.742   3.887  0.00  0.00    +0.191 C 
BRANCH  14  16
ATOM     15  C   LIG    1       28.445 -17.591   4.753  0.00  0.00    +0.007 C 
ATOM     16  C   LIG    1       27.647 -16.972   3.600  0.00  0.00    +0.042 C 
ENDBRANCH  14  16
BRANCH  14  17
ATOM     17  O   LIG    1       25.428 -17.562   2.926  0.00  0.00    -0.460 OA
BRANCH  17  18
ATOM     18  C   LIG    1       24.911 -18.761   3.217  0.00  0.00    +0.304 C 
ATOM     19  O   LIG    1       23.881 -19.188   2.719  0.00  0.00    -0.251 OA
ATOM     20  C   LIG    1       25.703 -19.508   4.202  0.00  0.00    +0.136 C 
ENDBRANCH  17  18
ENDBRANCH  14  17
ENDBRANCH   1  14
BRANCH   1  21
ATOM     21  C   LIG    1       25.496 -14.770   2.288  0.00  0.00    +0.038 C 
BRANCH  21  22
ATOM     22  C   LIG    1       24.416 -13.722   1.812  0.00  0.00    +0.054 C 
ATOM     23  C   LIG    1       23.045 -14.050   2.459  0.00  0.00    +0.024 C 
BRANCH  22  24
ATOM     24  N   LIG    1       24.796 -12.305   1.990  0.00  0.00    -0.306 NA
ATOM     25  C   LIG    1       26.228 -12.094   2.175  0.00  0.00    +0.105 C 
ATOM     26  C   LIG    1       24.096 -11.636   3.092  0.00  0.00    +0.105 C 
ENDBRANCH  22  24
ENDBRANCH  21  22
ENDBRANCH   1  21
TORSDOF 9
ENDMDL
MODEL 4
REMARK VINA RESULT:       3.5      2.406      5.858
REMARK  Name = *****
REMARK                            x       y       z     vdW  Elec       q    Type
REMARK                         _______ _______ _______ _____ _____    ______ ____
ROOT
ATOM      1  C   LIG    1       25.371 -15.388   3.562  0.00  0.00    +0.059 C 
ENDROOT
BRANCH   1   2
ATOM      2  C   LIG    1       23.983 -15.875   4.138  0.00  0.00    -0.033 A 
ATOM      3  C   LIG    1       23.184 -15.108   5.002  0.00  0.00    +0.005 A 
ATOM      4  C   LIG    1       22.052 -15.631   5.637  0.00  0.00    +0.000 A 
ATOM      5  C   LIG    1       21.679 -16.947   5.420  0.00  0.00    +0.000 A 
ATOM      6  C   LIG    1       22.368 -17.696   4.479  0.00  0.00    +0.000 A 
ATOM      7  C   LIG    1       23.448 -17.133   3.791  0.00  0.00    +0.005 A 
ENDBRANCH   1   2
BRANCH   1   8
ATOM      8  C   LIG    1       26.215 -14.491   4.577  0.00  0.00    -0.033 A 
ATOM      9  C   LIG    1       27.611 -14.611   4.739  0.00  0.00    +0.005 A 
ATOM     10  C   LIG    1       28.374 -13.739   5.526  0.00  0.00    +0.000 A 
ATOM     11  C   LIG    1       27.749 -12.767   6.283  0.00  0.00    +0.000 A 
ATOM     12  C   LIG    1       26.362 -12.683   6.250  0.00  0.00    +0.000 A 
ATOM     13  C   LIG    1       25.606 -13.549   5.431  0.00  0.00    +0.005 A 
ENDBRANCH   1   8
BRANCH   1  14
ATOM     14  C   LIG    1       25.204 -14.444   2.223  0.00  0.00    +0.191 C 
BRANCH  14  16
ATOM     15  C   LIG    1       27.798 -14.189   2.099  0.00  0.00    +0.007 C 
ATOM     16  C   LIG    1       26.427 -13.521   1.948  0.00  0.00    +0.042 C 
ENDBRANCH  14  16
BRANCH  14  17
ATOM     17  O   LIG    1       24.060 -13.560   2.296  0.00  0.00    -0.460 OA
BRANCH  17  18
ATOM     18  C   LIG    1       24.153 -12.253   2.565  0.00  0.00    +0.304 C 
ATOM     19  O   LIG    1       24.679 -11.448   1.812  0.00  0.00    -0.251 OA
ATOM     20  C   LIG    1       23.567 -11.886   3.860  0.00  0.00    +0.136 C 
ENDBRANCH  17  18
ENDBRANCH  14  17
ENDBRANCH   1  14
BRANCH   1  21
ATOM     21  C   LIG    1       26.130 -16.727   3.107  0.00  0.00    +0.038 C 
BRANCH  21  22
ATOM     22  C   LIG    1       26.257 -17.980   4.058  0.00  0.00    +0.054 C 
ATOM     23  C   LIG    1       25.304 -19.105   3.575  0.00  0.00    +0.024 C 
BRANCH  22  24
ATOM     24  N   LIG    1       27.635 -18.467   4.272  0.00  0.00    -0.306 NA
ATOM     25  C   LIG    1       27.719 -19.668   5.096  0.00  0.00    +0.105 C 
ATOM     26  C   LIG    1       28.539 -17.463   4.846  0.00  0.00    +0.105 C 
ENDBRANCH  22  24
ENDBRANCH  21  22
ENDBRANCH   1  21
TORSDOF 9
ENDMDL
MODEL 5
REMARK VINA RESULT:       4.6      2.801      5.996
REMARK  Name = *****
REMARK                            x       y       z     vdW  Elec       q    Type
REMARK                         _______ _______ _______ _____ _____    ______ ____
ROOT
ATOM      1  C   LIG    1       25.730 -17.717   3.835  0.00  0.00    +0.059 C 
ENDROOT
BRANCH   1   2
ATOM      2  C   LIG    1       26.558 -18.635   4.818  0.00  0.00    -0.033 A 
ATOM      3  C   LIG    1       25.973 -19.530   5.730  0.00  0.00    +0.005 A 
ATOM      4  C   LIG    1       26.719 -20.195   6.708  0.00  0.00    +0.000 A 
ATOM      5  C   LIG    1       28.085 -19.989   6.802  0.00  0.00    +0.000 A 
ATOM      6  C   LIG    1       28.716 -19.212   5.843  0.00  0.00    +0.000 A 
ATOM      7  C   LIG    1       27.969 -18.618   4.821  0.00  0.00    +0.005 A 
ENDBRANCH   1   2
BRANCH   1   8
ATOM      8  C   LIG    1       26.412 -16.304   3.540  0.00  0.00    -0.033 A 
ATOM      9  C   LIG    1       26.066 -15.494   2.437  0.00  0.00    +0.005 A 
ATOM     10  C   LIG    1       26.562 -14.198   2.248  0.00  0.00    +0.000 A 
ATOM     11  C   LIG    1       27.523 -13.694   3.103  0.00  0.00    +0.000 A 
ATOM     12  C   LIG    1       27.985 -14.499   4.138  0.00  0.00    +0.000 A 
ATOM     13  C   LIG    1       27.456 -15.793   4.336  0.00  0.00    +0.005 A 
ENDBRANCH   1   8
BRANCH   1  14
ATOM     14  C   LIG    1       24.241 -17.337   4.428  0.00  0.00    +0.191 C 
BRANCH  14  16
ATOM     15  C   LIG    1       22.283 -18.879   5.202  0.00  0.00    +0.007 C 
ATOM     16  C   LIG    1       23.130 -18.354   4.036  0.00  0.00    +0.042 C 
ENDBRANCH  14  16
BRANCH  14  17
ATOM     17  O   LIG    1       23.766 -16.048   3.971  0.00  0.00    -0.460 OA
BRANCH  17  18
ATOM     18  C   LIG    1       23.254 -15.119   4.786  0.00  0.00    +0.304 C 
ATOM     19  O   LIG    1       22.365 -15.348   5.592  0.00  0.00    -0.251 OA
ATOM     20  C   LIG    1       23.861 -13.794   4.607  0.00  0.00    +0.136 C 
ENDBRANCH  17  18
ENDBRANCH  14  17
ENDBRANCH   1  14
BRANCH   1  21
ATOM     21  C   LIG    1       25.504 -18.607   2.519  0.00  0.00    +0.038 C 
BRANCH  21  22
ATOM     22  C   LIG    1       25.350 -20.176   2.587  0.00  0.00    +0.054 C 
ATOM     23  C   LIG    1       26.622 -20.802   3.218  0.00  0.00    +0.024 C 
BRANCH  22  24
ATOM     24  N   LIG    1       24.110 -20.658   3.231  0.00  0.00    -0.306 NA
ATOM     25  C   LIG    1       24.337 -21.570   4.346  0.00  0.00    +0.105 C 
ATOM     26  C   LIG    1       23.171 -21.301   2.305  0.00  0.00    +0.105 C 
ENDBRANCH  22  24
ENDBRANCH  21  22
ENDBRANCH   1  21
TORSDOF 9
ENDMDL
MODEL 6
REMARK VINA RESULT:       4.7      1.363      2.634
REMARK  Name = *****
REMARK                            x       y       z     vdW  Elec       q    Type
REMARK                         _______ _______ _______ _____ _____    ______ ____
ROOT
ATOM      1  C   LIG    1       25.354 -15.541   3.950  0.00  0.00    +0.059 C 
ENDROOT
BRANCH   1   2
ATOM      2  C   LIG    1       25.027 -14.235   4.775  0.00  0.00    -0.033 A 
ATOM      3  C   LIG    1       23.733 -13.708   4.924  0.00  0.00    +0.005 A 
ATOM      4  C   LIG    1       23.496 -12.459   5.506  0.00  0.00    +0.000 A 
ATOM      5  C   LIG    1       24.554 -11.693   5.966  0.00  0.00    +0.000 A 
ATOM      6  C   LIG    1       25.832 -12.232   5.951  0.00  0.00    +0.000 A 
ATOM      7  C   LIG    1       26.043 -13.517   5.441  0.00  0.00    +0.005 A 
ENDBRANCH   1   2
BRANCH   1   8
ATOM      8  C   LIG    1       24.230 -16.670   4.051  0.00  0.00    -0.033 A 
ATOM      9  C   LIG    1       24.383 -17.964   3.509  0.00  0.00    +0.005 A 
ATOM     10  C   LIG    1       23.459 -18.997   3.711  0.00  0.00    +0.000 A 
ATOM     11  C   LIG    1       22.274 -18.745   4.375  0.00  0.00    +0.000 A 
ATOM     12  C   LIG    1       22.023 -17.454   4.826  0.00  0.00    +0.000 A 
ATOM     13  C   LIG    1       22.974 -16.428   4.642  0.00  0.00    +0.005 A 
ENDBRANCH   1   8
BRANCH   1  14
ATOM     14  C   LIG    1       26.730 -16.287   4.464  0.00  0.00    +0.191 C 
BRANCH  14  16
ATOM     15  C   LIG    1       28.175 -14.117   4.356  0.00  0.00    +0.007 C 
ATOM     16  C   LIG    1       28.038 -15.597   3.979  0.00  0.00    +0.042 C 
ENDBRANCH  14  16
BRANCH  14  17
ATOM     17  O   LIG    1       26.827 -17.660   4.015  0.00  0.00    -0.460 OA
BRANCH  17  18
ATOM     18  C   LIG    1       27.464 -18.617   4.699  0.00  0.00    +0.304 C 
ATOM     19  O   LIG    1       28.612 -18.504   5.101  0.00  0.00    -0.251 OA
ATOM     20  C   LIG    1       26.648 -19.818   4.909  0.00  0.00    +0.136 C 
ENDBRANCH  17  18
ENDBRANCH  14  17
ENDBRANCH   1  14
BRANCH   1  21
ATOM     21  C   LIG    1       25.621 -15.035   2.450  0.00  0.00    +0.038 C 
BRANCH  21  22
ATOM     22  C   LIG    1       24.808 -13.842   1.813  0.00  0.00    +0.054 C 
ATOM     23  C   LIG    1       23.393 -13.773   2.447  0.00  0.00    +0.024 C 
BRANCH  22  24
ATOM     24  N   LIG    1       25.494 -12.534   1.832  0.00  0.00    -0.306 NA
ATOM     25  C   LIG    1       26.782 -12.549   2.519  0.00  0.00    +0.105 C 
ATOM     26  C   LIG    1       24.691 -11.448   2.406  0.00  0.00    +0.105 C 
ENDBRANCH  22  24
ENDBRANCH  21  22
ENDBRANCH   1  21
TORSDOF 9
ENDMDL
MODEL 7
REMARK VINA RESULT:       5.2      1.471      3.333
REMARK  Name = *****
REMARK                            x       y       z     vdW  Elec       q    Type
REMARK                         _______ _______ _______ _____ _____    ______ ____
ROOT
ATOM      1  C   LIG    1       25.655 -15.188   3.521  0.00  0.00    +0.059 C 
ENDROOT
BRANCH   1   2
ATOM      2  C   LIG    1       25.105 -14.175   4.602  0.00  0.00    -0.033 A 
ATOM      3  C   LIG    1       23.870 -14.324   5.254  0.00  0.00    +0.005 A 
ATOM      4  C   LIG    1       23.329 -13.325   6.069  0.00  0.00    +0.000 A 
ATOM      5  C   LIG    1       24.014 -12.138   6.263  0.00  0.00    +0.000 A 
ATOM      6  C   LIG    1       25.291 -12.004   5.739  0.00  0.00    +0.000 A 
ATOM      7  C   LIG    1       25.853 -13.045   4.993  0.00  0.00    +0.005 A 
ENDBRANCH   1   2
BRANCH   1   8
ATOM      8  C   LIG    1       25.021 -16.649   3.620  0.00  0.00    -0.033 A 
ATOM      9  C   LIG    1       23.709 -16.893   4.078  0.00  0.00    +0.005 A 
ATOM     10  C   LIG    1       23.102 -18.155   4.040  0.00  0.00    +0.000 A 
ATOM     11  C   LIG    1       23.830 -19.260   3.642  0.00  0.00    +0.000 A 
ATOM     12  C   LIG    1       25.165 -19.091   3.293  0.00  0.00    +0.000 A 
ATOM     13  C   LIG    1       25.757 -17.810   3.307  0.00  0.00    +0.005 A 
ENDBRANCH   1   8
BRANCH   1  14
ATOM     14  C   LIG    1       27.278 -15.436   3.655  0.00  0.00    +0.191 C 
BRANCH  14  16
ATOM     15  C   LIG    1       28.946 -16.870   5.059  0.00  0.00    +0.007 C 
ATOM     16  C   LIG    1       27.655 -16.831   4.232  0.00  0.00    +0.042 C 
ENDBRANCH  14  16
BRANCH  14  17
ATOM     17  O   LIG    1       27.925 -14.471   4.518  0.00  0.00    -0.460 OA
BRANCH  17  18
ATOM     18  C   LIG    1       28.621 -13.423   4.062  0.00  0.00    +0.304 C 
ATOM     19  O   LIG    1       28.742 -13.162   2.875  0.00  0.00    -0.251 OA
ATOM     20  C   LIG    1       29.231 -12.625   5.132  0.00  0.00    +0.136 C 
ENDBRANCH  17  18
ENDBRANCH  14  17
ENDBRANCH   1  14
BRANCH   1  21
ATOM     21  C   LIG    1       25.400 -14.472   2.107  0.00  0.00    +0.038 C 
BRANCH  21  22
ATOM     22  C   LIG    1       24.111 -13.605   1.829  0.00  0.00    +0.054 C 
ATOM     23  C   LIG    1       22.967 -14.043   2.782  0.00  0.00    +0.024 C 
BRANCH  22  24
ATOM     24  N   LIG    1       24.324 -12.143   1.843  0.00  0.00    -0.306 NA
ATOM     25  C   LIG    1       25.727 -11.748   1.902  0.00  0.00    +0.105 C 
ATOM     26  C   LIG    1       23.615 -11.449   2.924  0.00  0.00    +0.105 C 
ENDBRANCH  22  24
ENDBRANCH  21  22
ENDBRANCH   1  21
TORSDOF 9
ENDMDL
