MODEL 1
REMARK VINA RESULT:      -5.7      0.000      0.000
REMARK  Name = *****
REMARK                            x       y       z     vdW  Elec       q    Type
REMARK                         _______ _______ _______ _____ _____    ______ ____
ROOT
ATOM      1  C   LIG    1       25.673 -20.613   6.020  0.00  0.00    +0.100 A 
ATOM      2  C   LIG    1       25.196 -20.345   4.731  0.00  0.00    +0.131 A 
ATOM      3  C   LIG    1       23.820 -20.312   4.483  0.00  0.00    +0.046 A 
ATOM      4  C   LIG    1       22.915 -20.533   5.524  0.00  0.00    +0.004 A 
ATOM      5  C   LIG    1       23.381 -20.781   6.814  0.00  0.00    +0.001 A 
ATOM      6  C   LIG    1       24.754 -20.818   7.062  0.00  0.00    +0.019 A 
ENDROOT
BRANCH   1   7
ATOM      7  C   LIG    1       27.112 -20.676   6.376  0.00  0.00    +0.343 C 
ATOM      8  O   LIG    1       27.586 -21.572   7.059  0.00  0.00    -0.245 OA
BRANCH   7  10
ATOM      9  C   LIG    1       29.122 -19.485   6.275  0.00  0.00    +0.280 C 
ATOM     10  O   LIG    1       27.812 -19.698   5.751  0.00  0.00    -0.464 OA
ENDBRANCH   7  10
ENDBRANCH   1   7
BRANCH   2  11
ATOM     11  O   LIG    1       26.057 -20.074   3.704  0.00  0.00    -0.506 OA
ATOM     12  H   LIG    1       25.940 -19.155   3.416  0.00  0.00    +0.292 HD
ENDBRANCH   2  11
TORSDOF 3
ENDMDL
MODEL 2
REMARK VINA RESULT:      -5.0      1.293      1.722
REMARK  Name = *****
REMARK                            x       y       z     vdW  Elec       q    Type
REMARK                         _______ _______ _______ _____ _____    ______ ____
ROOT
ATOM      1  C   LIG    1       25.127 -20.077   5.179  0.00  0.00    +0.100 A 
ATOM      2  C   LIG    1       24.748 -19.221   4.138  0.00  0.00    +0.131 A 
ATOM      3  C   LIG    1       23.395 -19.017   3.853  0.00  0.00    +0.046 A 
ATOM      4  C   LIG    1       22.414 -19.656   4.616  0.00  0.00    +0.004 A 
ATOM      5  C   LIG    1       22.782 -20.494   5.667  0.00  0.00    +0.001 A 
ATOM      6  C   LIG    1       24.133 -20.701   5.950  0.00  0.00    +0.019 A 
ENDROOT
BRANCH   1   7
ATOM      7  C   LIG    1       26.536 -20.361   5.551  0.00  0.00    +0.343 C 
ATOM      8  O   LIG    1       27.470 -19.661   5.188  0.00  0.00    -0.245 OA
BRANCH   7  10
ATOM      9  C   LIG    1       27.886 -21.559   7.037  0.00  0.00    +0.280 C 
ATOM     10  O   LIG    1       26.611 -21.399   6.419  0.00  0.00    -0.464 OA
ENDBRANCH   7  10
ENDBRANCH   1   7
BRANCH   2  11
ATOM     11  O   LIG    1       25.684 -18.544   3.408  0.00  0.00    -0.506 OA
ATOM     12  H   LIG    1       26.381 -19.157   3.122  0.00  0.00    +0.292 HD
ENDBRANCH   2  11
TORSDOF 3
ENDMDL
MODEL 3
REMARK VINA RESULT:      -4.8      6.986      8.029
REMARK  Name = *****
REMARK                            x       y       z     vdW  Elec       q    Type
REMARK                         _______ _______ _______ _____ _____    ______ ____
ROOT
ATOM      1  C   LIG    1       25.694 -13.771   3.994  0.00  0.00    +0.100 A 
ATOM      2  C   LIG    1       26.723 -13.944   3.060  0.00  0.00    +0.131 A 
ATOM      3  C   LIG    1       28.045 -13.647   3.406  0.00  0.00    +0.046 A 
ATOM      4  C   LIG    1       28.346 -13.189   4.691  0.00  0.00    +0.004 A 
ATOM      5  C   LIG    1       27.332 -13.033   5.633  0.00  0.00    +0.001 A 
ATOM      6  C   LIG    1       26.011 -13.326   5.288  0.00  0.00    +0.019 A 
ENDROOT
BRANCH   1   7
ATOM      7  C   LIG    1       24.264 -14.051   3.717  0.00  0.00    +0.343 C 
ATOM      8  O   LIG    1       23.589 -14.799   4.409  0.00  0.00    -0.245 OA
BRANCH   7  10
ATOM      9  C   LIG    1       23.854 -11.883   2.944  0.00  0.00    +0.280 C 
ATOM     10  O   LIG    1       23.807 -13.287   2.696  0.00  0.00    -0.464 OA
ENDBRANCH   7  10
ENDBRANCH   1   7
BRANCH   2  11
ATOM     11  O   LIG    1       26.464 -14.438   1.812  0.00  0.00    -0.506 OA
ATOM     12  H   LIG    1       25.675 -15.003   1.843  0.00  0.00    +0.292 HD
ENDBRANCH   2  11
TORSDOF 3
ENDMDL
MODEL 4
REMARK VINA RESULT:      -4.7      5.755      6.509
REMARK  Name = *****
REMARK                            x       y       z     vdW  Elec       q    Type
REMARK                         _______ _______ _______ _____ _____    ______ ____
ROOT
ATOM      1  C   LIG    1       25.684 -15.016   3.318  0.00  0.00    +0.100 A 
ATOM      2  C   LIG    1       26.153 -13.955   2.533  0.00  0.00    +0.131 A 
ATOM      3  C   LIG    1       25.459 -12.741   2.505  0.00  0.00    +0.046 A 
ATOM      4  C   LIG    1       24.303 -12.578   3.272  0.00  0.00    +0.004 A 
ATOM      5  C   LIG    1       23.841 -13.622   4.071  0.00  0.00    +0.001 A 
ATOM      6  C   LIG    1       24.530 -14.835   4.097  0.00  0.00    +0.019 A 
ENDROOT
BRANCH   1   7
ATOM      7  C   LIG    1       26.347 -16.341   3.404  0.00  0.00    +0.343 C 
ATOM      8  O   LIG    1       27.454 -16.497   3.899  0.00  0.00    -0.245 OA
BRANCH   7  10
ATOM      9  C   LIG    1       25.752 -18.594   3.599  0.00  0.00    +0.280 C 
ATOM     10  O   LIG    1       25.520 -17.328   2.983  0.00  0.00    -0.464 OA
ENDBRANCH   7  10
ENDBRANCH   1   7
BRANCH   2  11
ATOM     11  O   LIG    1       27.308 -14.069   1.812  0.00  0.00    -0.506 OA
ATOM     12  H   LIG    1       27.742 -13.202   1.753  0.00  0.00    +0.292 HD
ENDBRANCH   2  11
TORSDOF 3
ENDMDL
MODEL 5
REMARK VINA RESULT:      -4.7      6.984      7.662
REMARK  Name = *****
REMARK                            x       y       z     vdW  Elec       q    Type
REMARK                         _______ _______ _______ _____ _____    ______ ____
ROOT
ATOM      1  C   LIG    1       26.353 -13.651   3.604  0.00  0.00    +0.100 A 
ATOM      2  C   LIG    1       25.586 -13.192   4.681  0.00  0.00    +0.131 A 
ATOM      3  C   LIG    1       24.364 -12.552   4.451  0.00  0.00    +0.046 A 
ATOM      4  C   LIG    1       23.898 -12.379   3.146  0.00  0.00    +0.004 A 
ATOM      5  C   LIG    1       24.646 -12.851   2.069  0.00  0.00    +0.001 A 
ATOM      6  C   LIG    1       25.867 -13.487   2.296  0.00  0.00    +0.019 A 
ENDROOT
BRANCH   1   7
ATOM      7  C   LIG    1       27.663 -14.333   3.748  0.00  0.00    +0.343 C 
ATOM      8  O   LIG    1       27.767 -15.501   4.093  0.00  0.00    -0.245 OA
BRANCH   7  10
ATOM      9  C   LIG    1       28.965 -12.448   4.213  0.00  0.00    +0.280 C 
ATOM     10  O   LIG    1       28.677 -13.534   3.335  0.00  0.00    -0.464 OA
ENDBRANCH   7  10
ENDBRANCH   1   7
BRANCH   2  11
ATOM     11  O   LIG    1       25.992 -13.392   5.971  0.00  0.00    -0.506 OA
ATOM     12  H   LIG    1       26.938 -13.610   5.983  0.00  0.00    +0.292 HD
ENDBRANCH   2  11
TORSDOF 3
ENDMDL
MODEL 6
REMARK VINA RESULT:      -4.3      1.739      3.943
REMARK  Name = *****
REMARK                            x       y       z     vdW  Elec       q    Type
REMARK                         _______ _______ _______ _____ _____    ______ ____
ROOT
ATOM      1  C   LIG    1       26.312 -20.620   5.904  0.00  0.00    +0.100 A 
ATOM      2  C   LIG    1       27.010 -19.679   5.138  0.00  0.00    +0.131 A 
ATOM      3  C   LIG    1       28.379 -19.481   5.344  0.00  0.00    +0.046 A 
ATOM      4  C   LIG    1       29.058 -20.231   6.308  0.00  0.00    +0.004 A 
ATOM      5  C   LIG    1       28.374 -21.182   7.062  0.00  0.00    +0.001 A 
ATOM      6  C   LIG    1       27.007 -21.379   6.859  0.00  0.00    +0.019 A 
ENDROOT
BRANCH   1   7
ATOM      7  C   LIG    1       24.860 -20.894   5.762  0.00  0.00    +0.343 C 
ATOM      8  O   LIG    1       24.028 -20.488   6.561  0.00  0.00    -0.245 OA
BRANCH   7  10
ATOM      9  C   LIG    1       23.530 -20.956   3.840  0.00  0.00    +0.280 C 
ATOM     10  O   LIG    1       24.596 -21.529   4.595  0.00  0.00    -0.464 OA
ENDBRANCH   7  10
ENDBRANCH   1   7
BRANCH   2  11
ATOM     11  O   LIG    1       26.383 -18.968   4.153  0.00  0.00    -0.506 OA
ATOM     12  H   LIG    1       25.817 -18.288   4.553  0.00  0.00    +0.292 HD
ENDBRANCH   2  11
TORSDOF 3
ENDMDL
MODEL 7
REMARK VINA RESULT:      -4.2      6.965      7.708
REMARK  Name = *****
REMARK                            x       y       z     vdW  Elec       q    Type
REMARK                         _______ _______ _______ _____ _____    ______ ____
ROOT
ATOM      1  C   LIG    1       25.939 -13.447   3.449  0.00  0.00    +0.100 A 
ATOM      2  C   LIG    1       25.533 -12.966   4.700  0.00  0.00    +0.131 A 
ATOM      3  C   LIG    1       24.433 -12.110   4.801  0.00  0.00    +0.046 A 
ATOM      4  C   LIG    1       23.725 -11.740   3.654  0.00  0.00    +0.004 A 
ATOM      5  C   LIG    1       24.110 -12.229   2.407  0.00  0.00    +0.001 A 
ATOM      6  C   LIG    1       25.211 -13.082   2.305  0.00  0.00    +0.019 A 
ENDROOT
BRANCH   1   7
ATOM      7  C   LIG    1       27.097 -14.352   3.242  0.00  0.00    +0.343 C 
ATOM      8  O   LIG    1       28.230 -14.071   3.604  0.00  0.00    -0.245 OA
BRANCH   7  10
ATOM      9  C   LIG    1       26.945 -16.662   3.572  0.00  0.00    +0.280 C 
ATOM     10  O   LIG    1       26.700 -15.540   2.725  0.00  0.00    -0.464 OA
ENDBRANCH   7  10
ENDBRANCH   1   7
BRANCH   2  11
ATOM     11  O   LIG    1       26.175 -13.351   5.843  0.00  0.00    -0.506 OA
ATOM     12  H   LIG    1       26.098 -12.651   6.511  0.00  0.00    +0.292 HD
ENDBRANCH   2  11
TORSDOF 3
ENDMDL
MODEL 8
REMARK VINA RESULT:      -4.2      1.551      2.246
REMARK  Name = *****
REMARK                            x       y       z     vdW  Elec       q    Type
REMARK                         _______ _______ _______ _____ _____    ______ ____
ROOT
ATOM      1  C   LIG    1       25.129 -20.193   5.442  0.00  0.00    +0.100 A 
ATOM      2  C   LIG    1       23.847 -20.448   5.943  0.00  0.00    +0.131 A 
ATOM      3  C   LIG    1       22.721 -19.953   5.277  0.00  0.00    +0.046 A 
ATOM      4  C   LIG    1       22.871 -19.213   4.102  0.00  0.00    +0.004 A 
ATOM      5  C   LIG    1       24.142 -18.971   3.586  0.00  0.00    +0.001 A 
ATOM      6  C   LIG    1       25.267 -19.461   4.251  0.00  0.00    +0.019 A 
ENDROOT
BRANCH   1   7
ATOM      7  C   LIG    1       26.381 -20.669   6.081  0.00  0.00    +0.343 C 
ATOM      8  O   LIG    1       26.402 -21.572   6.905  0.00  0.00    -0.245 OA
BRANCH   7  10
ATOM      9  C   LIG    1       28.666 -20.222   6.295  0.00  0.00    +0.280 C 
ATOM     10  O   LIG    1       27.465 -20.059   5.543  0.00  0.00    -0.464 OA
ENDBRANCH   7  10
ENDBRANCH   1   7
BRANCH   2  11
ATOM     11  O   LIG    1       23.668 -21.212   7.062  0.00  0.00    -0.506 OA
ATOM     12  H   LIG    1       23.833 -22.145   6.849  0.00  0.00    +0.292 HD
ENDBRANCH   2  11
TORSDOF 3
ENDMDL
MODEL 9
REMARK VINA RESULT:      -4.1      7.099      8.256
REMARK  Name = *****
REMARK                            x       y       z     vdW  Elec       q    Type
REMARK                         _______ _______ _______ _____ _____    ______ ____
ROOT
ATOM      1  C   LIG    1       25.505 -13.725   4.017  0.00  0.00    +0.100 A 
ATOM      2  C   LIG    1       26.476 -13.460   4.990  0.00  0.00    +0.131 A 
ATOM      3  C   LIG    1       27.834 -13.501   4.658  0.00  0.00    +0.046 A 
ATOM      4  C   LIG    1       28.226 -13.794   3.350  0.00  0.00    +0.004 A 
ATOM      5  C   LIG    1       27.266 -14.040   2.371  0.00  0.00    +0.001 A 
ATOM      6  C   LIG    1       25.911 -14.003   2.701  0.00  0.00    +0.019 A 
ENDROOT
BRANCH   1   7
ATOM      7  C   LIG    1       24.044 -13.713   4.276  0.00  0.00    +0.343 C 
ATOM      8  O   LIG    1       23.354 -14.721   4.229  0.00  0.00    -0.245 OA
BRANCH   7  10
ATOM      9  C   LIG    1       23.662 -11.490   3.658  0.00  0.00    +0.280 C 
ATOM     10  O   LIG    1       23.632 -12.486   4.679  0.00  0.00    -0.464 OA
ENDBRANCH   7  10
ENDBRANCH   1   7
BRANCH   2  11
ATOM     11  O   LIG    1       26.120 -13.121   6.266  0.00  0.00    -0.506 OA
ATOM     12  H   LIG    1       25.266 -13.527   6.484  0.00  0.00    +0.292 HD
ENDBRANCH   2  11
TORSDOF 3
ENDMDL
