MODEL 1
REMARK VINA RESULT:       5.7      0.000      0.000
REMARK  Name = *****
REMARK                            x       y       z     vdW  Elec       q    Type
REMARK                         _______ _______ _______ _____ _____    ______ ____
ROOT
ATOM      1  C   LIG    1       24.232 -12.713   4.197  0.00  0.00    +0.066 C 
ATOM      2  C   LIG    1       23.849 -12.716   2.711  0.00  0.00    +0.045 C 
ATOM      3  C   LIG    1       24.116 -11.449   1.934  0.00  0.00    +0.063 C 
ATOM      4  N   LIG    1       23.436 -13.748   2.026  0.00  0.00    -0.158 NA
ATOM      5  N   LIG    1       23.112 -14.924   2.678  0.00  0.00    -0.149 NA
ATOM      6  C   LIG    1       23.989 -15.530   3.442  0.00  0.00    +0.101 C 
ATOM      7  C   LIG    1       25.296 -14.975   3.824  0.00  0.00    +0.010 A 
ATOM      8  C   LIG    1       26.420 -15.799   3.726  0.00  0.00    +0.059 A 
ATOM      9  C   LIG    1       27.638 -15.391   4.259  0.00  0.00    +0.162 A 
ATOM     10  C   LIG    1       27.733 -14.133   4.882  0.00  0.00    +0.162 A 
ATOM     11  C   LIG    1       26.602 -13.291   4.922  0.00  0.00    +0.054 A 
ATOM     12  C   LIG    1       25.380 -13.689   4.363  0.00  0.00    -0.026 A 
ENDROOT
BRANCH   6  13
ATOM     13  C   LIG    1       23.596 -16.847   4.039  0.00  0.00    +0.006 A 
ATOM     14  C   LIG    1       24.423 -17.955   3.844  0.00  0.00    +0.059 A 
ATOM     15  C   LIG    1       24.081 -19.229   4.337  0.00  0.00    +0.162 A 
ATOM     16  C   LIG    1       22.888 -19.369   5.068  0.00  0.00    +0.162 A 
ATOM     17  C   LIG    1       22.066 -18.247   5.261  0.00  0.00    +0.050 A 
ATOM     18  C   LIG    1       22.407 -16.997   4.753  0.00  0.00    +0.014 A 
BRANCH  15  19
ATOM     19  O   LIG    1       24.859 -20.335   4.093  0.00  0.00    -0.491 OA
ATOM     20  C   LIG    1       26.141 -20.363   4.726  0.00  0.00    +0.277 C 
ENDBRANCH  15  19
BRANCH  16  21
ATOM     21  O   LIG    1       22.329 -20.477   5.640  0.00  0.00    -0.491 OA
ATOM     22  C   LIG    1       22.951 -21.116   6.739  0.00  0.00    +0.277 C 
ENDBRANCH  16  21
ENDBRANCH   6  13
BRANCH   1  24
ATOM     23  C   LIG    1       22.786 -11.623   6.002  0.00  0.00    +0.005 C 
ATOM     24  C   LIG    1       23.023 -12.857   5.136  0.00  0.00    +0.011 C 
ENDBRANCH   1  24
BRANCH   9  25
ATOM     25  O   LIG    1       28.754 -16.168   4.105  0.00  0.00    -0.491 OA
ATOM     26  C   LIG    1       28.742 -17.425   4.774  0.00  0.00    +0.277 C 
ENDBRANCH   9  25
BRANCH  10  27
ATOM     27  O   LIG    1       28.841 -13.582   5.480  0.00  0.00    -0.491 OA
ATOM     28  C   LIG    1       29.113 -12.215   5.197  0.00  0.00    +0.277 C 
ENDBRANCH  10  27
TORSDOF 6
ENDMDL
MODEL 2
REMARK VINA RESULT:       6.5      2.372      4.477
REMARK  Name = *****
REMARK                            x       y       z     vdW  Elec       q    Type
REMARK                         _______ _______ _______ _____ _____    ______ ____
ROOT
ATOM      1  C   LIG    1       22.167 -16.593   4.287  0.00  0.00    +0.066 C 
ATOM      2  C   LIG    1       21.867 -17.443   3.045  0.00  0.00    +0.045 C 
ATOM      3  C   LIG    1       20.641 -17.073   2.245  0.00  0.00    +0.063 C 
ATOM      4  N   LIG    1       22.638 -18.369   2.543  0.00  0.00    -0.158 NA
ATOM      5  N   LIG    1       23.746 -18.803   3.250  0.00  0.00    -0.149 NA
ATOM      6  C   LIG    1       24.672 -17.957   3.628  0.00  0.00    +0.101 C 
ATOM      7  C   LIG    1       24.572 -16.493   3.514  0.00  0.00    +0.010 A 
ATOM      8  C   LIG    1       25.664 -15.793   2.997  0.00  0.00    +0.059 A 
ATOM      9  C   LIG    1       25.697 -14.403   3.052  0.00  0.00    +0.162 A 
ATOM     10  C   LIG    1       24.613 -13.709   3.618  0.00  0.00    +0.162 A 
ATOM     11  C   LIG    1       23.493 -14.429   4.083  0.00  0.00    +0.054 A 
ATOM     12  C   LIG    1       23.446 -15.829   4.005  0.00  0.00    -0.026 A 
ENDROOT
BRANCH   6  13
ATOM     13  C   LIG    1       25.886 -18.514   4.307  0.00  0.00    +0.006 A 
ATOM     14  C   LIG    1       25.739 -19.590   5.186  0.00  0.00    +0.059 A 
ATOM     15  C   LIG    1       26.834 -20.123   5.892  0.00  0.00    +0.162 A 
ATOM     16  C   LIG    1       28.108 -19.568   5.676  0.00  0.00    +0.162 A 
ATOM     17  C   LIG    1       28.245 -18.489   4.788  0.00  0.00    +0.050 A 
ATOM     18  C   LIG    1       27.150 -17.960   4.109  0.00  0.00    +0.014 A 
BRANCH  15  19
ATOM     19  O   LIG    1       26.684 -21.139   6.805  0.00  0.00    -0.491 OA
ATOM     20  C   LIG    1       25.346 -21.572   7.062  0.00  0.00    +0.277 C 
ENDBRANCH  15  19
BRANCH  16  21
ATOM     21  O   LIG    1       29.314 -19.889   6.231  0.00  0.00    -0.491 OA
ATOM     22  C   LIG    1       29.475 -21.083   6.973  0.00  0.00    +0.277 C 
ENDBRANCH  16  21
ENDBRANCH   6  13
BRANCH   1  24
ATOM     23  C   LIG    1       22.160 -18.896   5.398  0.00  0.00    +0.005 C 
ATOM     24  C   LIG    1       22.078 -17.386   5.602  0.00  0.00    +0.011 C 
ENDBRANCH   1  24
BRANCH   9  25
ATOM     25  O   LIG    1       26.737 -13.715   2.488  0.00  0.00    -0.491 OA
ATOM     26  C   LIG    1       27.949 -13.683   3.233  0.00  0.00    +0.277 C 
ENDBRANCH   9  25
BRANCH  10  27
ATOM     27  O   LIG    1       24.487 -12.350   3.777  0.00  0.00    -0.491 OA
ATOM     28  C   LIG    1       24.228 -11.585   2.605  0.00  0.00    +0.277 C 
ENDBRANCH  10  27
TORSDOF 6
ENDMDL
