MODEL 1
REMARK VINA RESULT:      -5.3      0.000      0.000
REMARK  Name = *****
REMARK                            x       y       z     vdW  Elec       q    Type
REMARK                         _______ _______ _______ _____ _____    ______ ____
ROOT
ATOM      1  C   LIG    1       22.778 -30.669  11.507  0.00  0.00    +0.064 A 
ATOM      2  C   LIG    1       23.780 -30.848  10.522  0.00  0.00    +0.049 A 
ATOM      3  I   LIG    1       23.871 -32.698   9.436  0.00  0.00    -0.041 I 
ATOM      4  C   LIG    1       24.846 -29.930  10.432  0.00  0.00    +0.065 A 
ATOM      5  C   LIG    1       25.088 -29.097  11.547  0.00  0.00    +0.040 A 
ATOM      6  I   LIG    1       27.164 -28.647  11.942  0.00  0.00    -0.042 I 
ATOM      7  C   LIG    1       24.080 -28.850  12.511  0.00  0.00    +0.065 A 
ATOM      8  C   LIG    1       22.868 -29.553  12.372  0.00  0.00    +0.049 A 
ATOM      9  I   LIG    1       21.008 -28.811  13.209  0.00  0.00    -0.041 I 
ENDROOT
BRANCH   1  11
ATOM     10  C   LIG    1       21.963 -32.658  12.751  0.00  0.00    +0.138 C 
ATOM     11  N   LIG    1       21.744 -31.643  11.729  0.00  0.00    -0.271 N 
ATOM     12  C   LIG    1       20.603 -31.607  10.910  0.00  0.00    +0.245 C 
ATOM     13  O   LIG    1       20.441 -30.759  10.028  0.00  0.00    -0.273 OA
BRANCH  12  14
ATOM     14  C   LIG    1       19.498 -32.630  11.226  0.00  0.00    +0.252 C 
BRANCH  14  15
ATOM     15  O   LIG    1       18.481 -32.103  12.062  0.00  0.00    -0.386 OA
ATOM     16  H   LIG    1       18.440 -31.142  11.916  0.00  0.00    +0.210 HD
ENDBRANCH  14  15
ENDBRANCH  12  14
ENDBRANCH   1  11
BRANCH   4  17
ATOM     17  C   LIG    1       25.558 -29.679   9.116  0.00  0.00    +0.246 C 
ATOM     18  N   LIG    1       24.786 -29.104   8.111  0.00  0.00    -0.309 N 
ATOM     19  H   LIG    1       23.868 -28.736   8.330  0.00  0.00    +0.149 HD
ATOM     20  O   LIG    1       26.710 -30.030   8.898  0.00  0.00    -0.270 OA
BRANCH  18  21
ATOM     21  C   LIG    1       25.298 -28.867   6.760  0.00  0.00    +0.138 C 
BRANCH  21  22
ATOM     22  C   LIG    1       24.651 -29.724   5.647  0.00  0.00    +0.157 C 
BRANCH  22  23
ATOM     23  O   LIG    1       23.217 -29.672   5.689  0.00  0.00    -0.388 OA
ATOM     24  H   LIG    1       22.966 -28.791   6.028  0.00  0.00    +0.210 HD
ENDBRANCH  22  23
BRANCH  22  25
ATOM     25  C   LIG    1       25.069 -31.194   5.834  0.00  0.00    +0.188 C 
BRANCH  25  26
ATOM     26  O   LIG    1       26.418 -31.293   6.284  0.00  0.00    -0.392 OA
ATOM     27  H   LIG    1       26.463 -30.775   7.110  0.00  0.00    +0.209 HD
ENDBRANCH  25  26
ENDBRANCH  22  25
ENDBRANCH  21  22
ENDBRANCH  18  21
ENDBRANCH   4  17
BRANCH   7  28
ATOM     28  C   LIG    1       24.304 -27.893  13.640  0.00  0.00    +0.246 C 
ATOM     29  N   LIG    1       24.175 -26.556  13.355  0.00  0.00    -0.309 N 
ATOM     30  H   LIG    1       24.270 -26.267  12.383  0.00  0.00    +0.149 HD
ATOM     31  O   LIG    1       24.586 -28.308  14.773  0.00  0.00    -0.270 OA
BRANCH  29  32
ATOM     32  C   LIG    1       24.453 -25.517  14.335  0.00  0.00    +0.138 C 
BRANCH  32  33
ATOM     33  C   LIG    1       25.905 -25.022  14.283  0.00  0.00    +0.157 C 
BRANCH  33  34
ATOM     34  O   LIG    1       26.300 -24.818  12.918  0.00  0.00    -0.388 OA
ATOM     35  H   LIG    1       25.472 -24.689  12.413  0.00  0.00    +0.210 HD
ENDBRANCH  33  34
BRANCH  33  36
ATOM     36  C   LIG    1       26.132 -23.727  15.069  0.00  0.00    +0.188 C 
BRANCH  36  37
ATOM     37  O   LIG    1       25.467 -22.654  14.394  0.00  0.00    -0.392 OA
ATOM     38  H   LIG    1       25.709 -22.703  13.453  0.00  0.00    +0.209 HD
ENDBRANCH  36  37
ENDBRANCH  33  36
ENDBRANCH  32  33
ENDBRANCH  29  32
ENDBRANCH   7  28
TORSDOF 15
ENDMDL
MODEL 2
REMARK VINA RESULT:      -5.0      1.481      2.069
REMARK  Name = *****
REMARK                            x       y       z     vdW  Elec       q    Type
REMARK                         _______ _______ _______ _____ _____    ______ ____
ROOT
ATOM      1  C   LIG    1       22.503 -30.937  11.168  0.00  0.00    +0.064 A 
ATOM      2  C   LIG    1       23.305 -31.180  10.027  0.00  0.00    +0.049 A 
ATOM      3  I   LIG    1       22.984 -32.962   8.874  0.00  0.00    -0.041 I 
ATOM      4  C   LIG    1       24.454 -30.396   9.799  0.00  0.00    +0.065 A 
ATOM      5  C   LIG    1       24.974 -29.663  10.889  0.00  0.00    +0.040 A 
ATOM      6  I   LIG    1       27.127 -29.494  10.956  0.00  0.00    -0.042 I 
ATOM      7  C   LIG    1       24.171 -29.351  12.013  0.00  0.00    +0.065 A 
ATOM      8  C   LIG    1       22.871 -29.892  12.048  0.00  0.00    +0.049 A 
ATOM      9  I   LIG    1       21.278 -28.978  13.204  0.00  0.00    -0.041 I 
ENDROOT
BRANCH   1  11
ATOM     10  C   LIG    1       21.645 -32.887  12.446  0.00  0.00    +0.138 C 
ATOM     11  N   LIG    1       21.399 -31.788  11.520  0.00  0.00    -0.271 N 
ATOM     12  C   LIG    1       20.155 -31.560  10.908  0.00  0.00    +0.245 C 
ATOM     13  O   LIG    1       19.965 -30.644  10.103  0.00  0.00    -0.273 OA
BRANCH  12  14
ATOM     14  C   LIG    1       18.991 -32.457  11.363  0.00  0.00    +0.252 C 
BRANCH  14  15
ATOM     15  O   LIG    1       17.741 -31.788  11.350  0.00  0.00    -0.386 OA
ATOM     16  H   LIG    1       17.639 -31.325  12.200  0.00  0.00    +0.210 HD
ENDBRANCH  14  15
ENDBRANCH  12  14
ENDBRANCH   1  11
BRANCH   4  17
ATOM     17  C   LIG    1       24.977 -30.159   8.394  0.00  0.00    +0.246 C 
ATOM     18  N   LIG    1       24.277 -29.223   7.638  0.00  0.00    -0.309 N 
ATOM     19  H   LIG    1       23.580 -28.638   8.082  0.00  0.00    +0.149 HD
ATOM     20  O   LIG    1       25.898 -30.798   7.903  0.00  0.00    -0.270 OA
BRANCH  18  21
ATOM     21  C   LIG    1       24.603 -28.933   6.240  0.00  0.00    +0.138 C 
BRANCH  21  22
ATOM     22  C   LIG    1       25.294 -27.572   5.990  0.00  0.00    +0.157 C 
BRANCH  22  23
ATOM     23  O   LIG    1       26.297 -27.285   6.976  0.00  0.00    -0.388 OA
ATOM     24  H   LIG    1       25.837 -27.111   7.820  0.00  0.00    +0.210 HD
ENDBRANCH  22  23
BRANCH  22  25
ATOM     25  C   LIG    1       24.241 -26.452   6.056  0.00  0.00    +0.188 C 
BRANCH  25  26
ATOM     26  O   LIG    1       24.433 -25.501   5.013  0.00  0.00    -0.392 OA
ATOM     27  H   LIG    1       25.387 -25.293   5.012  0.00  0.00    +0.209 HD
ENDBRANCH  25  26
ENDBRANCH  22  25
ENDBRANCH  21  22
ENDBRANCH  18  21
ENDBRANCH   4  17
BRANCH   7  28
ATOM     28  C   LIG    1       24.692 -28.495  13.124  0.00  0.00    +0.246 C 
ATOM     29  N   LIG    1       24.412 -27.152  13.057  0.00  0.00    -0.309 N 
ATOM     30  H   LIG    1       24.180 -26.761  12.145  0.00  0.00    +0.149 HD
ATOM     31  O   LIG    1       25.338 -28.994  14.056  0.00  0.00    -0.270 OA
BRANCH  29  32
ATOM     32  C   LIG    1       24.933 -26.195  14.021  0.00  0.00    +0.138 C 
BRANCH  32  33
ATOM     33  C   LIG    1       25.879 -25.166  13.388  0.00  0.00    +0.157 C 
BRANCH  33  34
ATOM     34  O   LIG    1       25.511 -23.843  13.809  0.00  0.00    -0.388 OA
ATOM     35  H   LIG    1       26.009 -23.228  13.234  0.00  0.00    +0.210 HD
ENDBRANCH  33  34
BRANCH  33  36
ATOM     36  C   LIG    1       27.353 -25.408  13.729  0.00  0.00    +0.188 C 
BRANCH  36  37
ATOM     37  O   LIG    1       27.610 -26.817  13.695  0.00  0.00    -0.392 OA
ATOM     38  H   LIG    1       27.078 -27.231  14.396  0.00  0.00    +0.209 HD
ENDBRANCH  36  37
ENDBRANCH  33  36
ENDBRANCH  32  33
ENDBRANCH  29  32
ENDBRANCH   7  28
TORSDOF 15
ENDMDL
MODEL 3
REMARK VINA RESULT:      -5.0      2.968      7.808
REMARK  Name = *****
REMARK                            x       y       z     vdW  Elec       q    Type
REMARK                         _______ _______ _______ _____ _____    ______ ____
ROOT
ATOM      1  C   LIG    1       25.057 -29.248  12.959  0.00  0.00    +0.064 A 
ATOM      2  C   LIG    1       23.709 -29.276  13.394  0.00  0.00    +0.049 A 
ATOM      3  I   LIG    1       23.281 -29.259  15.497  0.00  0.00    -0.041 I 
ATOM      4  C   LIG    1       22.682 -29.560  12.471  0.00  0.00    +0.065 A 
ATOM      5  C   LIG    1       23.047 -30.175  11.253  0.00  0.00    +0.040 A 
ATOM      6  I   LIG    1       21.627 -31.601  10.467  0.00  0.00    -0.042 I 
ATOM      7  C   LIG    1       24.375 -30.105  10.765  0.00  0.00    +0.065 A 
ATOM      8  C   LIG    1       25.336 -29.494  11.594  0.00  0.00    +0.049 A 
ATOM      9  I   LIG    1       27.152 -28.618  10.792  0.00  0.00    -0.041 I 
ENDROOT
BRANCH   1  11
ATOM     10  C   LIG    1       26.819 -30.297  14.361  0.00  0.00    +0.138 C 
ATOM     11  N   LIG    1       26.152 -29.095  13.878  0.00  0.00    -0.271 N 
ATOM     12  C   LIG    1       26.485 -27.801  14.313  0.00  0.00    +0.245 C 
ATOM     13  O   LIG    1       25.894 -26.792  13.920  0.00  0.00    -0.273 OA
BRANCH  12  14
ATOM     14  C   LIG    1       27.702 -27.683  15.247  0.00  0.00    +0.252 C 
BRANCH  14  15
ATOM     15  O   LIG    1       28.769 -26.948  14.672  0.00  0.00    -0.386 OA
ATOM     16  H   LIG    1       29.169 -27.496  13.974  0.00  0.00    +0.210 HD
ENDBRANCH  14  15
ENDBRANCH  12  14
ENDBRANCH   1  11
BRANCH   4  17
ATOM     17  C   LIG    1       21.277 -29.023  12.670  0.00  0.00    +0.246 C 
ATOM     18  N   LIG    1       21.185 -27.661  12.947  0.00  0.00    -0.309 N 
ATOM     19  H   LIG    1       22.001 -27.071  12.846  0.00  0.00    +0.149 HD
ATOM     20  O   LIG    1       20.280 -29.733  12.680  0.00  0.00    -0.270 OA
BRANCH  18  21
ATOM     21  C   LIG    1       19.911 -27.001  13.240  0.00  0.00    +0.138 C 
BRANCH  21  22
ATOM     22  C   LIG    1       19.472 -27.039  14.723  0.00  0.00    +0.157 C 
BRANCH  22  23
ATOM     23  O   LIG    1       19.637 -28.342  15.302  0.00  0.00    -0.388 OA
ATOM     24  H   LIG    1       20.396 -28.766  14.858  0.00  0.00    +0.210 HD
ENDBRANCH  22  23
BRANCH  22  25
ATOM     25  C   LIG    1       17.980 -26.672  14.817  0.00  0.00    +0.188 C 
BRANCH  25  26
ATOM     26  O   LIG    1       17.685 -25.511  14.045  0.00  0.00    -0.392 OA
ATOM     27  H   LIG    1       17.076 -25.805  13.341  0.00  0.00    +0.209 HD
ENDBRANCH  25  26
ENDBRANCH  22  25
ENDBRANCH  21  22
ENDBRANCH  18  21
ENDBRANCH   4  17
BRANCH   7  28
ATOM     28  C   LIG    1       24.741 -30.673   9.430  0.00  0.00    +0.246 C 
ATOM     29  N   LIG    1       24.449 -29.908   8.328  0.00  0.00    -0.309 N 
ATOM     30  H   LIG    1       23.730 -29.193   8.425  0.00  0.00    +0.149 HD
ATOM     31  O   LIG    1       25.288 -31.782   9.345  0.00  0.00    -0.270 OA
BRANCH  29  32
ATOM     32  C   LIG    1       24.668 -30.378   6.969  0.00  0.00    +0.138 C 
BRANCH  32  33
ATOM     33  C   LIG    1       24.441 -29.285   5.916  0.00  0.00    +0.157 C 
BRANCH  33  34
ATOM     34  O   LIG    1       23.114 -29.395   5.379  0.00  0.00    -0.388 OA
ATOM     35  H   LIG    1       22.657 -28.561   5.614  0.00  0.00    +0.210 HD
ENDBRANCH  33  34
BRANCH  33  36
ATOM     36  C   LIG    1       24.646 -27.868   6.460  0.00  0.00    +0.188 C 
BRANCH  36  37
ATOM     37  O   LIG    1       25.945 -27.785   7.056  0.00  0.00    -0.392 OA
ATOM     38  H   LIG    1       26.539 -28.369   6.553  0.00  0.00    +0.209 HD
ENDBRANCH  36  37
ENDBRANCH  33  36
ENDBRANCH  32  33
ENDBRANCH  29  32
ENDBRANCH   7  28
TORSDOF 15
ENDMDL
MODEL 4
REMARK VINA RESULT:      -4.9      2.522      6.366
REMARK  Name = *****
REMARK                            x       y       z     vdW  Elec       q    Type
REMARK                         _______ _______ _______ _____ _____    ______ ____
ROOT
ATOM      1  C   LIG    1       23.031 -31.948  11.132  0.00  0.00    +0.064 A 
ATOM      2  C   LIG    1       23.690 -31.369  12.245  0.00  0.00    +0.049 A 
ATOM      3  I   LIG    1       22.545 -30.809  13.973  0.00  0.00    -0.041 I 
ATOM      4  C   LIG    1       25.027 -30.940  12.121  0.00  0.00    +0.065 A 
ATOM      5  C   LIG    1       25.536 -30.751  10.817  0.00  0.00    +0.040 A 
ATOM      6  I   LIG    1       26.928 -29.114  10.589  0.00  0.00    -0.042 I 
ATOM      7  C   LIG    1       24.933 -31.373   9.697  0.00  0.00    +0.065 A 
ATOM      8  C   LIG    1       23.746 -32.096   9.921  0.00  0.00    +0.049 A 
ATOM      9  I   LIG    1       23.105 -33.689   8.594  0.00  0.00    -0.041 I 
ENDROOT
BRANCH   1  11
ATOM     10  C   LIG    1       21.248 -33.590  11.672  0.00  0.00    +0.138 C 
ATOM     11  N   LIG    1       21.633 -32.280  11.163  0.00  0.00    -0.271 N 
ATOM     12  C   LIG    1       20.712 -31.355  10.643  0.00  0.00    +0.245 C 
ATOM     13  O   LIG    1       21.052 -30.259  10.188  0.00  0.00    -0.273 OA
BRANCH  12  14
ATOM     14  C   LIG    1       19.224 -31.729  10.754  0.00  0.00    +0.252 C 
BRANCH  14  15
ATOM     15  O   LIG    1       18.387 -30.905   9.960  0.00  0.00    -0.386 OA
ATOM     16  H   LIG    1       18.750 -30.889   9.057  0.00  0.00    +0.210 HD
ENDBRANCH  14  15
ENDBRANCH  12  14
ENDBRANCH   1  11
BRANCH   4  17
ATOM     17  C   LIG    1       25.955 -30.907  13.321  0.00  0.00    +0.246 C 
ATOM     18  N   LIG    1       26.074 -29.675  13.959  0.00  0.00    -0.309 N 
ATOM     19  H   LIG    1       25.443 -28.920  13.717  0.00  0.00    +0.149 HD
ATOM     20  O   LIG    1       26.634 -31.862  13.674  0.00  0.00    -0.270 OA
BRANCH  18  21
ATOM     21  C   LIG    1       26.985 -29.453  15.083  0.00  0.00    +0.138 C 
BRANCH  21  22
ATOM     22  C   LIG    1       28.091 -28.399  14.841  0.00  0.00    +0.157 C 
BRANCH  22  23
ATOM     23  O   LIG    1       27.749 -27.490  13.784  0.00  0.00    -0.388 OA
ATOM     24  H   LIG    1       26.809 -27.251  13.896  0.00  0.00    +0.210 HD
ENDBRANCH  22  23
BRANCH  22  25
ATOM     25  C   LIG    1       29.392 -29.116  14.437  0.00  0.00    +0.188 C 
BRANCH  25  26
ATOM     26  O   LIG    1       29.155 -30.491  14.150  0.00  0.00    -0.392 OA
ATOM     27  H   LIG    1       29.645 -30.681  13.326  0.00  0.00    +0.209 HD
ENDBRANCH  25  26
ENDBRANCH  22  25
ENDBRANCH  21  22
ENDBRANCH  18  21
ENDBRANCH   4  17
BRANCH   7  28
ATOM     28  C   LIG    1       25.528 -31.250   8.329  0.00  0.00    +0.246 C 
ATOM     29  N   LIG    1       24.917 -30.376   7.462  0.00  0.00    -0.309 N 
ATOM     30  H   LIG    1       23.948 -30.125   7.649  0.00  0.00    +0.149 HD
ATOM     31  O   LIG    1       26.528 -31.910   8.013  0.00  0.00    -0.270 OA
BRANCH  29  32
ATOM     32  C   LIG    1       25.335 -30.228   6.077  0.00  0.00    +0.138 C 
BRANCH  32  33
ATOM     33  C   LIG    1       24.558 -29.133   5.333  0.00  0.00    +0.157 C 
BRANCH  33  34
ATOM     34  O   LIG    1       23.151 -29.414   5.388  0.00  0.00    -0.388 OA
ATOM     35  H   LIG    1       22.871 -29.576   4.463  0.00  0.00    +0.210 HD
ENDBRANCH  33  34
BRANCH  33  36
ATOM     36  C   LIG    1       24.811 -27.728   5.888  0.00  0.00    +0.188 C 
BRANCH  36  37
ATOM     37  O   LIG    1       25.897 -27.787   6.819  0.00  0.00    -0.392 OA
ATOM     38  H   LIG    1       25.886 -26.964   7.339  0.00  0.00    +0.209 HD
ENDBRANCH  36  37
ENDBRANCH  33  36
ENDBRANCH  32  33
ENDBRANCH  29  32
ENDBRANCH   7  28
TORSDOF 15
ENDMDL
MODEL 5
REMARK VINA RESULT:      -4.8      2.207      7.439
REMARK  Name = *****
REMARK                            x       y       z     vdW  Elec       q    Type
REMARK                         _______ _______ _______ _____ _____    ______ ____
ROOT
ATOM      1  C   LIG    1       24.985 -29.713  12.814  0.00  0.00    +0.064 A 
ATOM      2  C   LIG    1       23.662 -30.018  13.218  0.00  0.00    +0.049 A 
ATOM      3  I   LIG    1       23.226 -30.256  15.306  0.00  0.00    -0.041 I 
ATOM      4  C   LIG    1       22.707 -30.403  12.254  0.00  0.00    +0.065 A 
ATOM      5  C   LIG    1       23.184 -30.837  10.998  0.00  0.00    +0.040 A 
ATOM      6  I   LIG    1       22.048 -32.422  10.067  0.00  0.00    -0.042 I 
ATOM      7  C   LIG    1       24.479 -30.489  10.544  0.00  0.00    +0.065 A 
ATOM      8  C   LIG    1       25.310 -29.789  11.440  0.00  0.00    +0.049 A 
ATOM      9  I   LIG    1       26.943 -28.537  10.750  0.00  0.00    -0.041 I 
ENDROOT
BRANCH   1  11
ATOM     10  C   LIG    1       26.895 -30.546  14.167  0.00  0.00    +0.138 C 
ATOM     11  N   LIG    1       26.029 -29.444  13.765  0.00  0.00    -0.271 N 
ATOM     12  C   LIG    1       26.125 -28.152  14.307  0.00  0.00    +0.245 C 
ATOM     13  O   LIG    1       25.368 -27.233  13.980  0.00  0.00    -0.273 OA
BRANCH  12  14
ATOM     14  C   LIG    1       27.296 -27.896  15.272  0.00  0.00    +0.252 C 
BRANCH  14  15
ATOM     15  O   LIG    1       28.435 -27.353  14.627  0.00  0.00    -0.386 OA
ATOM     16  H   LIG    1       28.397 -26.385  14.712  0.00  0.00    +0.210 HD
ENDBRANCH  14  15
ENDBRANCH  12  14
ENDBRANCH   1  11
BRANCH   4  17
ATOM     17  C   LIG    1       21.227 -30.145  12.468  0.00  0.00    +0.246 C 
ATOM     18  N   LIG    1       20.490 -31.223  12.951  0.00  0.00    -0.309 N 
ATOM     19  H   LIG    1       20.968 -32.051  13.284  0.00  0.00    +0.149 HD
ATOM     20  O   LIG    1       20.676 -29.096  12.163  0.00  0.00    -0.270 OA
BRANCH  18  21
ATOM     21  C   LIG    1       19.039 -31.165  13.139  0.00  0.00    +0.138 C 
BRANCH  21  22
ATOM     22  C   LIG    1       18.195 -31.637  11.932  0.00  0.00    +0.157 C 
BRANCH  22  23
ATOM     23  O   LIG    1       18.373 -30.793  10.785  0.00  0.00    -0.388 OA
ATOM     24  H   LIG    1       18.613 -31.368  10.033  0.00  0.00    +0.210 HD
ENDBRANCH  22  23
BRANCH  22  25
ATOM     25  C   LIG    1       16.704 -31.600  12.312  0.00  0.00    +0.188 C 
BRANCH  25  26
ATOM     26  O   LIG    1       16.232 -30.259  12.418  0.00  0.00    -0.392 OA
ATOM     27  H   LIG    1       15.262 -30.307  12.316  0.00  0.00    +0.209 HD
ENDBRANCH  25  26
ENDBRANCH  22  25
ENDBRANCH  21  22
ENDBRANCH  18  21
ENDBRANCH   4  17
BRANCH   7  28
ATOM     28  C   LIG    1       24.949 -30.868   9.175  0.00  0.00    +0.246 C 
ATOM     29  N   LIG    1       24.513 -30.089   8.131  0.00  0.00    -0.309 N 
ATOM     30  H   LIG    1       23.669 -29.537   8.273  0.00  0.00    +0.149 HD
ATOM     31  O   LIG    1       25.702 -31.839   9.012  0.00  0.00    -0.270 OA
BRANCH  29  32
ATOM     32  C   LIG    1       24.820 -30.398   6.743  0.00  0.00    +0.138 C 
BRANCH  32  33
ATOM     33  C   LIG    1       24.460 -29.255   5.784  0.00  0.00    +0.157 C 
BRANCH  33  34
ATOM     34  O   LIG    1       23.094 -29.386   5.363  0.00  0.00    -0.388 OA
ATOM     35  H   LIG    1       23.103 -29.315   4.387  0.00  0.00    +0.210 HD
ENDBRANCH  33  34
BRANCH  33  36
ATOM     36  C   LIG    1       24.666 -27.865   6.395  0.00  0.00    +0.188 C 
BRANCH  36  37
ATOM     37  O   LIG    1       25.924 -27.841   7.076  0.00  0.00    -0.392 OA
ATOM     38  H   LIG    1       26.580 -27.451   6.473  0.00  0.00    +0.209 HD
ENDBRANCH  36  37
ENDBRANCH  33  36
ENDBRANCH  32  33
ENDBRANCH  29  32
ENDBRANCH   7  28
TORSDOF 15
ENDMDL
MODEL 6
REMARK VINA RESULT:      -4.7      1.551      6.933
REMARK  Name = *****
REMARK                            x       y       z     vdW  Elec       q    Type
REMARK                         _______ _______ _______ _____ _____    ______ ____
ROOT
ATOM      1  C   LIG    1       22.402 -30.602  11.737  0.00  0.00    +0.064 A 
ATOM      2  C   LIG    1       22.965 -29.490  12.411  0.00  0.00    +0.049 A 
ATOM      3  I   LIG    1       21.667 -28.008  13.263  0.00  0.00    -0.041 I 
ATOM      4  C   LIG    1       24.347 -29.235  12.306  0.00  0.00    +0.065 A 
ATOM      5  C   LIG    1       25.049 -29.853  11.247  0.00  0.00    +0.040 A 
ATOM      6  I   LIG    1       26.639 -28.681  10.373  0.00  0.00    -0.042 I 
ATOM      7  C   LIG    1       24.537 -31.005  10.602  0.00  0.00    +0.065 A 
ATOM      8  C   LIG    1       23.254 -31.443  10.984  0.00  0.00    +0.049 A 
ATOM      9  I   LIG    1       22.620 -33.502  10.725  0.00  0.00    -0.041 I 
ENDROOT
BRANCH   1  11
ATOM     10  C   LIG    1       20.254 -30.452  10.499  0.00  0.00    +0.138 C 
ATOM     11  N   LIG    1       20.983 -30.834  11.702  0.00  0.00    -0.271 N 
ATOM     12  C   LIG    1       20.361 -31.357  12.847  0.00  0.00    +0.245 C 
ATOM     13  O   LIG    1       20.985 -31.650  13.871  0.00  0.00    -0.273 OA
BRANCH  12  14
ATOM     14  C   LIG    1       18.853 -31.645  12.739  0.00  0.00    +0.252 C 
BRANCH  14  15
ATOM     15  O   LIG    1       18.054 -30.499  12.983  0.00  0.00    -0.386 OA
ATOM     16  H   LIG    1       18.157 -30.254  13.919  0.00  0.00    +0.210 HD
ENDBRANCH  14  15
ENDBRANCH  12  14
ENDBRANCH   1  11
BRANCH   4  17
ATOM     17  C   LIG    1       25.099 -28.517  13.411  0.00  0.00    +0.246 C 
ATOM     18  N   LIG    1       25.096 -27.127  13.340  0.00  0.00    -0.309 N 
ATOM     19  H   LIG    1       24.484 -26.658  12.682  0.00  0.00    +0.149 HD
ATOM     20  O   LIG    1       25.748 -29.098  14.270  0.00  0.00    -0.270 OA
BRANCH  18  21
ATOM     21  C   LIG    1       25.837 -26.286  14.283  0.00  0.00    +0.138 C 
BRANCH  21  22
ATOM     22  C   LIG    1       26.073 -24.828  13.825  0.00  0.00    +0.157 C 
BRANCH  22  23
ATOM     23  O   LIG    1       27.464 -24.550  13.605  0.00  0.00    -0.388 OA
ATOM     24  H   LIG    1       27.517 -23.765  13.025  0.00  0.00    +0.210 HD
ENDBRANCH  22  23
BRANCH  22  25
ATOM     25  C   LIG    1       25.573 -23.868  14.919  0.00  0.00    +0.188 C 
BRANCH  25  26
ATOM     26  O   LIG    1       25.498 -22.529  14.435  0.00  0.00    -0.392 OA
ATOM     27  H   LIG    1       24.551 -22.356  14.271  0.00  0.00    +0.209 HD
ENDBRANCH  25  26
ENDBRANCH  22  25
ENDBRANCH  21  22
ENDBRANCH  18  21
ENDBRANCH   4  17
BRANCH   7  28
ATOM     28  C   LIG    1       25.323 -31.716   9.545  0.00  0.00    +0.246 C 
ATOM     29  N   LIG    1       24.954 -31.494   8.241  0.00  0.00    -0.309 N 
ATOM     30  H   LIG    1       24.009 -31.156   8.068  0.00  0.00    +0.149 HD
ATOM     31  O   LIG    1       26.264 -32.462   9.853  0.00  0.00    -0.270 OA
BRANCH  29  32
ATOM     32  C   LIG    1       25.574 -32.190   7.124  0.00  0.00    +0.138 C 
BRANCH  32  33
ATOM     33  C   LIG    1       25.469 -31.412   5.805  0.00  0.00    +0.157 C 
BRANCH  33  34
ATOM     34  O   LIG    1       24.785 -32.207   4.825  0.00  0.00    -0.388 OA
ATOM     35  H   LIG    1       24.747 -33.114   5.190  0.00  0.00    +0.210 HD
ENDBRANCH  33  34
BRANCH  33  36
ATOM     36  C   LIG    1       24.750 -30.067   5.951  0.00  0.00    +0.188 C 
BRANCH  36  37
ATOM     37  O   LIG    1       23.343 -30.275   5.788  0.00  0.00    -0.392 OA
ATOM     38  H   LIG    1       22.887 -29.473   6.099  0.00  0.00    +0.209 HD
ENDBRANCH  36  37
ENDBRANCH  33  36
ENDBRANCH  32  33
ENDBRANCH  29  32
ENDBRANCH   7  28
TORSDOF 15
ENDMDL
MODEL 7
REMARK VINA RESULT:      -4.6      2.720      7.894
REMARK  Name = *****
REMARK                            x       y       z     vdW  Elec       q    Type
REMARK                         _______ _______ _______ _____ _____    ______ ____
ROOT
ATOM      1  C   LIG    1       25.013 -29.338  12.336  0.00  0.00    +0.064 A 
ATOM      2  C   LIG    1       23.760 -29.499  12.977  0.00  0.00    +0.049 A 
ATOM      3  I   LIG    1       23.610 -29.174  15.093  0.00  0.00    -0.041 I 
ATOM      4  C   LIG    1       22.692 -30.104  12.283  0.00  0.00    +0.065 A 
ATOM      5  C   LIG    1       23.004 -30.861  11.132  0.00  0.00    +0.040 A 
ATOM      6  I   LIG    1       21.778 -32.611  10.808  0.00  0.00    -0.042 I 
ATOM      7  C   LIG    1       24.222 -30.671  10.436  0.00  0.00    +0.065 A 
ATOM      8  C   LIG    1       25.154 -29.777  10.999  0.00  0.00    +0.049 A 
ATOM      9  I   LIG    1       26.662 -28.783   9.795  0.00  0.00    -0.041 I 
ENDROOT
BRANCH   1  11
ATOM     10  C   LIG    1       26.337 -27.409  13.170  0.00  0.00    +0.138 C 
ATOM     11  N   LIG    1       26.171 -28.851  13.036  0.00  0.00    -0.271 N 
ATOM     12  C   LIG    1       27.114 -29.782  13.501  0.00  0.00    +0.245 C 
ATOM     13  O   LIG    1       26.977 -31.000  13.357  0.00  0.00    -0.273 OA
BRANCH  12  14
ATOM     14  C   LIG    1       28.303 -29.217  14.297  0.00  0.00    +0.252 C 
BRANCH  14  15
ATOM     15  O   LIG    1       29.506 -29.191  13.548  0.00  0.00    -0.386 OA
ATOM     16  H   LIG    1       30.239 -29.004  14.161  0.00  0.00    +0.210 HD
ENDBRANCH  14  15
ENDBRANCH  12  14
ENDBRANCH   1  11
BRANCH   4  17
ATOM     17  C   LIG    1       21.250 -29.768  12.616  0.00  0.00    +0.246 C 
ATOM     18  N   LIG    1       20.554 -30.739  13.330  0.00  0.00    -0.309 N 
ATOM     19  H   LIG    1       21.053 -31.525  13.730  0.00  0.00    +0.149 HD
ATOM     20  O   LIG    1       20.686 -28.757  12.219  0.00  0.00    -0.270 OA
BRANCH  18  21
ATOM     21  C   LIG    1       19.134 -30.606  13.665  0.00  0.00    +0.138 C 
BRANCH  21  22
ATOM     22  C   LIG    1       18.153 -31.234  12.648  0.00  0.00    +0.157 C 
BRANCH  22  23
ATOM     23  O   LIG    1       18.400 -30.781  11.308  0.00  0.00    -0.388 OA
ATOM     24  H   LIG    1       17.560 -30.851  10.816  0.00  0.00    +0.210 HD
ENDBRANCH  22  23
BRANCH  22  25
ATOM     25  C   LIG    1       16.715 -30.831  13.018  0.00  0.00    +0.188 C 
BRANCH  25  26
ATOM     26  O   LIG    1       16.634 -29.445  13.341  0.00  0.00    -0.392 OA
ATOM     27  H   LIG    1       15.682 -29.241  13.414  0.00  0.00    +0.209 HD
ENDBRANCH  25  26
ENDBRANCH  22  25
ENDBRANCH  21  22
ENDBRANCH  18  21
ENDBRANCH   4  17
BRANCH   7  28
ATOM     28  C   LIG    1       24.512 -31.404   9.164  0.00  0.00    +0.246 C 
ATOM     29  N   LIG    1       23.968 -30.888   8.013  0.00  0.00    -0.309 N 
ATOM     30  H   LIG    1       23.161 -30.274   8.104  0.00  0.00    +0.149 HD
ATOM     31  O   LIG    1       25.216 -32.423   9.169  0.00  0.00    -0.270 OA
BRANCH  29  32
ATOM     32  C   LIG    1       24.095 -31.550   6.723  0.00  0.00    +0.138 C 
BRANCH  32  33
ATOM     33  C   LIG    1       25.073 -30.836   5.780  0.00  0.00    +0.157 C 
BRANCH  33  34
ATOM     34  O   LIG    1       25.172 -31.560   4.544  0.00  0.00    -0.388 OA
ATOM     35  H   LIG    1       25.141 -30.888   3.833  0.00  0.00    +0.210 HD
ENDBRANCH  33  34
BRANCH  33  36
ATOM     36  C   LIG    1       24.676 -29.386   5.481  0.00  0.00    +0.188 C 
BRANCH  36  37
ATOM     37  O   LIG    1       23.249 -29.301   5.419  0.00  0.00    -0.392 OA
ATOM     38  H   LIG    1       23.018 -28.389   5.170  0.00  0.00    +0.209 HD
ENDBRANCH  36  37
ENDBRANCH  33  36
ENDBRANCH  32  33
ENDBRANCH  29  32
ENDBRANCH   7  28
TORSDOF 15
ENDMDL
MODEL 8
REMARK VINA RESULT:      -4.6      2.437      6.712
REMARK  Name = *****
REMARK                            x       y       z     vdW  Elec       q    Type
REMARK                         _______ _______ _______ _____ _____    ______ ____
ROOT
ATOM      1  C   LIG    1       22.947 -30.855  12.052  0.00  0.00    +0.064 A 
ATOM      2  C   LIG    1       23.490 -29.612  12.460  0.00  0.00    +0.049 A 
ATOM      3  I   LIG    1       22.219 -28.171  13.419  0.00  0.00    -0.041 I 
ATOM      4  C   LIG    1       24.774 -29.232  12.021  0.00  0.00    +0.065 A 
ATOM      5  C   LIG    1       25.312 -29.908  10.904  0.00  0.00    +0.040 A 
ATOM      6  I   LIG    1       26.518 -28.704   9.576  0.00  0.00    -0.042 I 
ATOM      7  C   LIG    1       24.829 -31.182  10.516  0.00  0.00    +0.065 A 
ATOM      8  C   LIG    1       23.723 -31.695  11.220  0.00  0.00    +0.049 A 
ATOM      9  I   LIG    1       23.320 -33.825  11.331  0.00  0.00    -0.041 I 
ENDROOT
BRANCH   1  11
ATOM     10  C   LIG    1       21.326 -31.824  13.666  0.00  0.00    +0.138 C 
ATOM     11  N   LIG    1       21.594 -31.234  12.360  0.00  0.00    -0.271 N 
ATOM     12  C   LIG    1       20.612 -31.077  11.369  0.00  0.00    +0.245 C 
ATOM     13  O   LIG    1       20.856 -30.603  10.256  0.00  0.00    -0.273 OA
BRANCH  12  14
ATOM     14  C   LIG    1       19.170 -31.439  11.767  0.00  0.00    +0.252 C 
BRANCH  14  15
ATOM     15  O   LIG    1       18.462 -30.346  12.328  0.00  0.00    -0.386 OA
ATOM     16  H   LIG    1       18.649 -29.558  11.790  0.00  0.00    +0.210 HD
ENDBRANCH  14  15
ENDBRANCH  12  14
ENDBRANCH   1  11
BRANCH   4  17
ATOM     17  C   LIG    1       25.642 -28.301  12.847  0.00  0.00    +0.246 C 
ATOM     18  N   LIG    1       26.501 -28.919  13.752  0.00  0.00    -0.309 N 
ATOM     19  H   LIG    1       26.633 -29.923  13.715  0.00  0.00    +0.149 HD
ATOM     20  O   LIG    1       25.552 -27.081  12.803  0.00  0.00    -0.270 OA
BRANCH  18  21
ATOM     21  C   LIG    1       27.349 -28.165  14.677  0.00  0.00    +0.138 C 
BRANCH  21  22
ATOM     22  C   LIG    1       28.778 -28.724  14.870  0.00  0.00    +0.157 C 
BRANCH  22  23
ATOM     23  O   LIG    1       29.773 -27.690  14.828  0.00  0.00    -0.388 OA
ATOM     24  H   LIG    1       29.772 -27.247  15.698  0.00  0.00    +0.210 HD
ENDBRANCH  22  23
BRANCH  22  25
ATOM     25  C   LIG    1       29.089 -29.717  13.737  0.00  0.00    +0.188 C 
BRANCH  25  26
ATOM     26  O   LIG    1       30.231 -29.306  12.989  0.00  0.00    -0.392 OA
ATOM     27  H   LIG    1       29.896 -28.705  12.297  0.00  0.00    +0.209 HD
ENDBRANCH  25  26
ENDBRANCH  22  25
ENDBRANCH  21  22
ENDBRANCH  18  21
ENDBRANCH   4  17
BRANCH   7  28
ATOM     28  C   LIG    1       25.462 -31.942   9.392  0.00  0.00    +0.246 C 
ATOM     29  N   LIG    1       24.851 -31.858   8.165  0.00  0.00    -0.309 N 
ATOM     30  H   LIG    1       23.869 -31.588   8.142  0.00  0.00    +0.149 HD
ATOM     31  O   LIG    1       26.491 -32.605   9.579  0.00  0.00    -0.270 OA
BRANCH  29  32
ATOM     32  C   LIG    1       25.307 -32.617   7.011  0.00  0.00    +0.138 C 
BRANCH  32  33
ATOM     33  C   LIG    1       25.386 -31.769   5.733  0.00  0.00    +0.157 C 
BRANCH  33  34
ATOM     34  O   LIG    1       24.706 -32.440   4.662  0.00  0.00    -0.388 OA
ATOM     35  H   LIG    1       23.783 -32.115   4.682  0.00  0.00    +0.210 HD
ENDBRANCH  33  34
BRANCH  33  36
ATOM     36  C   LIG    1       24.796 -30.365   5.901  0.00  0.00    +0.188 C 
BRANCH  36  37
ATOM     37  O   LIG    1       23.371 -30.448   5.801  0.00  0.00    -0.392 OA
ATOM     38  H   LIG    1       23.160 -31.084   5.095  0.00  0.00    +0.209 HD
ENDBRANCH  36  37
ENDBRANCH  33  36
ENDBRANCH  32  33
ENDBRANCH  29  32
ENDBRANCH   7  28
TORSDOF 15
ENDMDL
MODEL 9
REMARK VINA RESULT:      -4.4      2.554      5.770
REMARK  Name = *****
REMARK                            x       y       z     vdW  Elec       q    Type
REMARK                         _______ _______ _______ _____ _____    ______ ____
ROOT
ATOM      1  C   LIG    1       25.309 -29.548  12.508  0.00  0.00    +0.064 A 
ATOM      2  C   LIG    1       25.182 -29.903  11.142  0.00  0.00    +0.049 A 
ATOM      3  I   LIG    1       26.402 -28.913   9.679  0.00  0.00    -0.041 I 
ATOM      4  C   LIG    1       24.103 -30.709  10.726  0.00  0.00    +0.065 A 
ATOM      5  C   LIG    1       22.994 -30.817  11.594  0.00  0.00    +0.040 A 
ATOM      6  I   LIG    1       21.066 -30.951  10.628  0.00  0.00    -0.042 I 
ATOM      7  C   LIG    1       23.112 -30.531  12.975  0.00  0.00    +0.065 A 
ATOM      8  C   LIG    1       24.349 -30.030  13.427  0.00  0.00    +0.049 A 
ATOM      9  I   LIG    1       24.989 -30.246  15.489  0.00  0.00    -0.041 I 
ENDROOT
BRANCH   1  11
ATOM     10  C   LIG    1       27.654 -29.132  13.213  0.00  0.00    +0.138 C 
ATOM     11  N   LIG    1       26.311 -28.624  12.965  0.00  0.00    -0.271 N 
ATOM     12  C   LIG    1       25.933 -27.293  13.211  0.00  0.00    +0.245 C 
ATOM     13  O   LIG    1       24.785 -26.880  13.025  0.00  0.00    -0.273 OA
BRANCH  12  14
ATOM     14  C   LIG    1       27.053 -26.329  13.640  0.00  0.00    +0.252 C 
BRANCH  14  15
ATOM     15  O   LIG    1       26.805 -24.988  13.250  0.00  0.00    -0.386 OA
ATOM     16  H   LIG    1       26.376 -25.003  12.377  0.00  0.00    +0.210 HD
ENDBRANCH  14  15
ENDBRANCH  12  14
ENDBRANCH   1  11
BRANCH   4  17
ATOM     17  C   LIG    1       24.219 -31.609   9.510  0.00  0.00    +0.246 C 
ATOM     18  N   LIG    1       24.021 -30.989   8.279  0.00  0.00    -0.309 N 
ATOM     19  H   LIG    1       23.974 -29.979   8.226  0.00  0.00    +0.149 HD
ATOM     20  O   LIG    1       24.387 -32.819   9.582  0.00  0.00    -0.270 OA
BRANCH  18  21
ATOM     21  C   LIG    1       24.022 -31.728   7.014  0.00  0.00    +0.138 C 
BRANCH  21  22
ATOM     22  C   LIG    1       24.998 -31.197   5.939  0.00  0.00    +0.157 C 
BRANCH  22  23
ATOM     23  O   LIG    1       26.365 -31.256   6.372  0.00  0.00    -0.388 OA
ATOM     24  H   LIG    1       26.928 -31.123   5.585  0.00  0.00    +0.210 HD
ENDBRANCH  22  23
BRANCH  22  25
ATOM     25  C   LIG    1       24.667 -29.723   5.639  0.00  0.00    +0.188 C 
BRANCH  25  26
ATOM     26  O   LIG    1       23.264 -29.531   5.483  0.00  0.00    -0.392 OA
ATOM     27  H   LIG    1       23.162 -28.859   4.782  0.00  0.00    +0.209 HD
ENDBRANCH  25  26
ENDBRANCH  22  25
ENDBRANCH  21  22
ENDBRANCH  18  21
ENDBRANCH   4  17
BRANCH   7  28
ATOM     28  C   LIG    1       21.963 -30.736  13.911  0.00  0.00    +0.246 C 
ATOM     29  N   LIG    1       21.247 -29.620  14.271  0.00  0.00    -0.309 N 
ATOM     30  H   LIG    1       21.703 -28.714  14.174  0.00  0.00    +0.149 HD
ATOM     31  O   LIG    1       21.682 -31.869  14.327  0.00  0.00    -0.270 OA
BRANCH  29  32
ATOM     32  C   LIG    1       20.165 -29.664  15.242  0.00  0.00    +0.138 C 
BRANCH  32  33
ATOM     33  C   LIG    1       18.832 -29.159  14.672  0.00  0.00    +0.157 C 
BRANCH  33  34
ATOM     34  O   LIG    1       19.080 -28.204  13.630  0.00  0.00    -0.388 OA
ATOM     35  H   LIG    1       20.034 -27.990  13.680  0.00  0.00    +0.210 HD
ENDBRANCH  33  34
BRANCH  33  36
ATOM     36  C   LIG    1       17.944 -30.281  14.123  0.00  0.00    +0.188 C 
BRANCH  36  37
ATOM     37  O   LIG    1       18.733 -31.467  13.982  0.00  0.00    -0.392 OA
ATOM     38  H   LIG    1       18.687 -31.743  13.050  0.00  0.00    +0.209 HD
ENDBRANCH  36  37
ENDBRANCH  33  36
ENDBRANCH  32  33
ENDBRANCH  29  32
ENDBRANCH   7  28
TORSDOF 15
ENDMDL
