MODEL 1
REMARK VINA RESULT:      -0.3      0.000      0.000
REMARK  Name = *****
REMARK                            x       y       z     vdW  Elec       q    Type
REMARK                         _______ _______ _______ _____ _____    ______ ____
ROOT
ATOM      1  C   LIG    1       28.055 -16.148   4.379  0.00  0.00    +0.053 C 
ENDROOT
BRANCH   1   2
ATOM      2  C   LIG    1       27.571 -17.592   4.354  0.00  0.00    -0.045 A 
ATOM      3  C   LIG    1       28.032 -18.504   5.333  0.00  0.00    +0.018 A 
ATOM      4  C   LIG    1       27.466 -19.783   5.481  0.00  0.00    +0.058 A 
ATOM      5  C   LIG    1       26.359 -20.094   4.687  0.00  0.00    +0.045 A 
ATOM      6  N   LIG    1       25.360 -21.130   4.933  0.00  0.00    -0.329 N 
ATOM      7  C   LIG    1       24.810 -21.261   3.546  0.00  0.00    +0.110 C 
ATOM      8  C   LIG    1       24.939 -19.909   2.814  0.00  0.00    +0.056 C 
ATOM      9  C   LIG    1       26.044 -19.284   3.590  0.00  0.00    -0.024 A 
ATOM     10  C   LIG    1       26.629 -18.036   3.412  0.00  0.00    +0.009 A 
BRANCH   4  11
ATOM     11  C   LIG    1       28.122 -20.768   6.371  0.00  0.00    +0.243 C 
ATOM     12  O   LIG    1       27.454 -21.566   7.062  0.00  0.00    -0.270 OA
ATOM     13  N   LIG    1       29.474 -20.731   6.479  0.00  0.00    -0.325 N 
ATOM     14  H   LIG    1       29.940 -21.343   7.138  0.00  0.00    +0.145 HD
ATOM     15  H   LIG    1       29.999 -20.044   5.948  0.00  0.00    +0.145 HD
ENDBRANCH   4  11
BRANCH   6  16
ATOM     16  C   LIG    1       24.378 -20.560   5.922  0.00  0.00    +0.107 C 
BRANCH  16  17
ATOM     17  C   LIG    1       23.051 -21.328   5.990  0.00  0.00    +0.046 C 
BRANCH  17  18
ATOM     18  C   LIG    1       22.186 -21.185   4.745  0.00  0.00    +0.157 C 
BRANCH  18  19
ATOM     19  O   LIG    1       20.841 -21.552   5.047  0.00  0.00    -0.395 OA
ATOM     20  H   LIG    1       20.714 -21.431   6.003  0.00  0.00    +0.209 HD
ENDBRANCH  18  19
ENDBRANCH  17  18
ENDBRANCH  16  17
ENDBRANCH   6  16
ENDBRANCH   1   2
BRANCH   1  22
ATOM     21  C   LIG    1       27.321 -13.765   4.872  0.00  0.00    +0.024 C 
ATOM     22  C   LIG    1       27.071 -15.009   3.986  0.00  0.00    +0.055 C 
BRANCH  22  23
ATOM     23  N   LIG    1       27.185 -14.568   2.587  0.00  0.00    -0.310 NA
ATOM     24  H   LIG    1       28.084 -14.850   2.194  0.00  0.00    +0.122 HD
BRANCH  23  25
ATOM     25  C   LIG    1       27.052 -13.120   2.409  0.00  0.00    +0.122 C 
BRANCH  25  26
ATOM     26  C   LIG    1       25.643 -12.703   1.985  0.00  0.00    +0.244 C 
BRANCH  26  27
ATOM     27  O   LIG    1       24.633 -13.606   2.448  0.00  0.00    -0.487 OA
BRANCH  27  28
ATOM     28  C   LIG    1       24.055 -13.263   3.655  0.00  0.00    +0.162 A 
ATOM     29  C   LIG    1       23.211 -14.074   4.440  0.00  0.00    +0.162 A 
ATOM     30  C   LIG    1       22.669 -13.573   5.630  0.00  0.00    +0.049 A 
ATOM     31  C   LIG    1       22.914 -12.263   6.026  0.00  0.00    +0.004 A 
ATOM     32  C   LIG    1       23.763 -11.463   5.271  0.00  0.00    +0.004 A 
ATOM     33  C   LIG    1       24.348 -11.967   4.103  0.00  0.00    +0.049 A 
BRANCH  29  34
ATOM     34  O   LIG    1       22.941 -15.351   4.025  0.00  0.00    -0.479 OA
BRANCH  34  35
ATOM     35  C   LIG    1       22.184 -16.182   4.913  0.00  0.00    +0.342 C 
BRANCH  35  36
ATOM     36  C   LIG    1       22.145 -17.687   4.614  0.00  0.00    +0.424 C 
ATOM     37  F   LIG    1       22.331 -18.391   5.760  0.00  0.00    -0.167 F 
ATOM     38  F   LIG    1       23.143 -18.036   3.770  0.00  0.00    -0.167 F 
ATOM     39  F   LIG    1       20.991 -18.113   4.063  0.00  0.00    -0.167 F 
ENDBRANCH  35  36
ENDBRANCH  34  35
ENDBRANCH  29  34
ENDBRANCH  27  28
ENDBRANCH  26  27
ENDBRANCH  25  26
ENDBRANCH  23  25
ENDBRANCH  22  23
ENDBRANCH   1  22
TORSDOF 15
ENDMDL
