MODEL 1
REMARK VINA RESULT:      -8.7      0.000      0.000
REMARK  Name = *****
REMARK                            x       y       z     vdW  Elec       q    Type
REMARK                         _______ _______ _______ _____ _____    ______ ____
ROOT
ATOM      1  C   LIG    1       30.452 -21.872   8.972  0.00  0.00    +0.044 C 
ATOM      2  C   LIG    1       29.558 -21.152   7.992  0.00  0.00    -0.046 A 
ATOM      3  C   LIG    1       29.986 -20.015   7.265  0.00  0.00    -0.030 A 
ATOM      4  C   LIG    1       29.072 -19.395   6.382  0.00  0.00    -0.046 A 
ATOM      5  C   LIG    1       29.435 -18.187   5.556  0.00  0.00    +0.044 C 
ATOM      6  C   LIG    1       27.770 -19.914   6.242  0.00  0.00    +0.007 A 
ATOM      7  C   LIG    1       27.327 -21.044   6.942  0.00  0.00    -0.042 A 
ATOM      8  C   LIG    1       28.251 -21.652   7.806  0.00  0.00    +0.007 A 
ENDROOT
BRANCH   7   9
ATOM      9  C   LIG    1       25.897 -21.598   6.791  0.00  0.00    -0.013 C 
ATOM     10  C   LIG    1       25.901 -23.135   6.925  0.00  0.00    +0.015 C 
ATOM     11  C   LIG    1       25.251 -21.262   5.425  0.00  0.00    +0.015 C 
ATOM     12  C   LIG    1       24.976 -21.011   7.882  0.00  0.00    +0.015 C 
ENDBRANCH   7   9
BRANCH   3  13
ATOM     13  C   LIG    1       31.402 -19.474   7.402  0.00  0.00    +0.163 C 
BRANCH  13  14
ATOM     14  C   LIG    1       31.624 -18.506   8.542  0.00  0.00    +0.285 C 
ATOM     15  N   LIG    1       31.348 -18.792   9.856  0.00  0.00    -0.234 N 
ATOM     16  H   LIG    1       30.677 -19.530  10.062  0.00  0.00    +0.291 HD
ATOM     17  C   LIG    1       31.260 -17.542  10.564  0.00  0.00    +0.272 C 
ATOM     18  C   LIG    1       32.122 -16.661   9.658  0.00  0.00    +0.333 C 
ATOM     19  N   LIG    1       32.079 -17.293   8.308  0.00  0.00    -0.084 NA
ENDBRANCH  13  14
ENDBRANCH   3  13
TORSDOF 3
ENDMDL
MODEL 2
REMARK VINA RESULT:      -8.6      0.480      2.106
REMARK  Name = *****
REMARK                            x       y       z     vdW  Elec       q    Type
REMARK                         _______ _______ _______ _____ _____    ______ ____
ROOT
ATOM      1  C   LIG    1       29.158 -18.227   5.320  0.00  0.00    +0.044 C 
ATOM      2  C   LIG    1       28.846 -19.417   6.194  0.00  0.00    -0.046 A 
ATOM      3  C   LIG    1       29.788 -19.966   7.096  0.00  0.00    -0.030 A 
ATOM      4  C   LIG    1       29.410 -21.093   7.863  0.00  0.00    -0.046 A 
ATOM      5  C   LIG    1       30.338 -21.744   8.858  0.00  0.00    +0.044 C 
ATOM      6  C   LIG    1       28.121 -21.640   7.718  0.00  0.00    +0.007 A 
ATOM      7  C   LIG    1       27.168 -21.108   6.840  0.00  0.00    -0.042 A 
ATOM      8  C   LIG    1       27.556 -19.983   6.095  0.00  0.00    +0.007 A 
ENDROOT
BRANCH   7   9
ATOM      9  C   LIG    1       25.762 -21.720   6.680  0.00  0.00    -0.013 C 
ATOM     10  C   LIG    1       25.821 -23.251   6.868  0.00  0.00    +0.015 C 
ATOM     11  C   LIG    1       25.135 -21.456   5.290  0.00  0.00    +0.015 C 
ATOM     12  C   LIG    1       24.797 -21.131   7.731  0.00  0.00    +0.015 C 
ENDBRANCH   7   9
BRANCH   3  13
ATOM     13  C   LIG    1       31.171 -19.355   7.267  0.00  0.00    +0.163 C 
BRANCH  13  14
ATOM     14  C   LIG    1       31.287 -18.291   8.336  0.00  0.00    +0.285 C 
ATOM     15  N   LIG    1       30.395 -18.139   9.368  0.00  0.00    -0.234 N 
ATOM     16  H   LIG    1       29.454 -18.516   9.255  0.00  0.00    +0.291 HD
ATOM     17  C   LIG    1       30.564 -16.812   9.897  0.00  0.00    +0.272 C 
ATOM     18  C   LIG    1       32.011 -16.541   9.481  0.00  0.00    +0.333 C 
ATOM     19  N   LIG    1       32.269 -17.416   8.300  0.00  0.00    -0.084 NA
ENDBRANCH  13  14
ENDBRANCH   3  13
TORSDOF 3
ENDMDL
MODEL 3
REMARK VINA RESULT:      -8.5      4.850      7.238
REMARK  Name = *****
REMARK                            x       y       z     vdW  Elec       q    Type
REMARK                         _______ _______ _______ _____ _____    ______ ____
ROOT
ATOM      1  C   LIG    1       26.947 -22.146   7.242  0.00  0.00    +0.044 C 
ATOM      2  C   LIG    1       25.801 -23.088   6.968  0.00  0.00    -0.046 A 
ATOM      3  C   LIG    1       24.454 -22.654   6.920  0.00  0.00    -0.030 A 
ATOM      4  C   LIG    1       23.445 -23.614   6.674  0.00  0.00    -0.046 A 
ATOM      5  C   LIG    1       21.983 -23.250   6.594  0.00  0.00    +0.044 C 
ATOM      6  C   LIG    1       23.793 -24.965   6.482  0.00  0.00    +0.007 A 
ATOM      7  C   LIG    1       25.118 -25.416   6.513  0.00  0.00    -0.042 A 
ATOM      8  C   LIG    1       26.108 -24.448   6.748  0.00  0.00    +0.007 A 
ENDROOT
BRANCH   7   9
ATOM      9  C   LIG    1       25.489 -26.898   6.312  0.00  0.00    -0.013 C 
ATOM     10  C   LIG    1       26.470 -27.050   5.130  0.00  0.00    +0.015 C 
ATOM     11  C   LIG    1       24.268 -27.799   6.008  0.00  0.00    +0.015 C 
ATOM     12  C   LIG    1       26.159 -27.461   7.584  0.00  0.00    +0.015 C 
ENDBRANCH   7   9
BRANCH   3  13
ATOM     13  C   LIG    1       24.087 -21.189   7.104  0.00  0.00    +0.163 C 
BRANCH  13  14
ATOM     14  C   LIG    1       23.754 -20.436   5.835  0.00  0.00    +0.285 C 
ATOM     15  N   LIG    1       24.554 -20.419   4.720  0.00  0.00    -0.234 N 
ATOM     16  H   LIG    1       25.545 -20.632   4.830  0.00  0.00    +0.291 HD
ATOM     17  C   LIG    1       24.161 -19.290   3.919  0.00  0.00    +0.272 C 
ATOM     18  C   LIG    1       22.716 -19.118   4.391  0.00  0.00    +0.333 C 
ATOM     19  N   LIG    1       22.657 -19.712   5.759  0.00  0.00    -0.084 NA
ENDBRANCH  13  14
ENDBRANCH   3  13
TORSDOF 3
ENDMDL
MODEL 4
REMARK VINA RESULT:      -8.4      4.844      7.306
REMARK  Name = *****
REMARK                            x       y       z     vdW  Elec       q    Type
REMARK                         _______ _______ _______ _____ _____    ______ ____
ROOT
ATOM      1  C   LIG    1       21.996 -23.264   6.547  0.00  0.00    +0.044 C 
ATOM      2  C   LIG    1       23.462 -23.609   6.646  0.00  0.00    -0.046 A 
ATOM      3  C   LIG    1       24.460 -22.632   6.874  0.00  0.00    -0.030 A 
ATOM      4  C   LIG    1       25.810 -23.048   6.935  0.00  0.00    -0.046 A 
ATOM      5  C   LIG    1       26.945 -22.086   7.184  0.00  0.00    +0.044 C 
ATOM      6  C   LIG    1       26.133 -24.409   6.770  0.00  0.00    +0.007 A 
ATOM      7  C   LIG    1       25.162 -25.396   6.555  0.00  0.00    -0.042 A 
ATOM      8  C   LIG    1       23.827 -24.966   6.508  0.00  0.00    +0.007 A 
ENDROOT
BRANCH   7   9
ATOM      9  C   LIG    1       25.526 -26.881   6.365  0.00  0.00    -0.013 C 
ATOM     10  C   LIG    1       24.262 -27.704   6.038  0.00  0.00    +0.015 C 
ATOM     11  C   LIG    1       26.172 -27.519   7.618  0.00  0.00    +0.015 C 
ATOM     12  C   LIG    1       26.533 -27.044   5.206  0.00  0.00    +0.015 C 
ENDBRANCH   7   9
BRANCH   3  13
ATOM     13  C   LIG    1       24.103 -21.166   7.076  0.00  0.00    +0.163 C 
BRANCH  13  14
ATOM     14  C   LIG    1       23.738 -20.404   5.822  0.00  0.00    +0.285 C 
ATOM     15  N   LIG    1       24.507 -20.383   4.685  0.00  0.00    -0.234 N 
ATOM     16  H   LIG    1       25.500 -20.598   4.767  0.00  0.00    +0.291 HD
ATOM     17  C   LIG    1       24.095 -19.248   3.902  0.00  0.00    +0.272 C 
ATOM     18  C   LIG    1       22.664 -19.076   4.414  0.00  0.00    +0.333 C 
ATOM     19  N   LIG    1       22.640 -19.678   5.779  0.00  0.00    -0.084 NA
ENDBRANCH  13  14
ENDBRANCH   3  13
TORSDOF 3
ENDMDL
MODEL 5
REMARK VINA RESULT:      -8.0      3.544      7.018
REMARK  Name = *****
REMARK                            x       y       z     vdW  Elec       q    Type
REMARK                         _______ _______ _______ _____ _____    ______ ____
ROOT
ATOM      1  C   LIG    1       25.807 -19.928   4.307  0.00  0.00    +0.044 C 
ATOM      2  C   LIG    1       26.396 -20.241   5.661  0.00  0.00    -0.046 A 
ATOM      3  C   LIG    1       25.691 -20.972   6.647  0.00  0.00    -0.030 A 
ATOM      4  C   LIG    1       26.319 -21.203   7.893  0.00  0.00    -0.046 A 
ATOM      5  C   LIG    1       25.656 -21.979   9.003  0.00  0.00    +0.044 C 
ATOM      6  C   LIG    1       27.617 -20.708   8.127  0.00  0.00    +0.007 A 
ATOM      7  C   LIG    1       28.338 -19.992   7.163  0.00  0.00    -0.042 A 
ATOM      8  C   LIG    1       27.704 -19.782   5.929  0.00  0.00    +0.007 A 
ENDROOT
BRANCH   7   9
ATOM      9  C   LIG    1       29.754 -19.445   7.432  0.00  0.00    -0.013 C 
ATOM     10  C   LIG    1       30.669 -20.567   7.965  0.00  0.00    +0.015 C 
ATOM     11  C   LIG    1       29.780 -18.302   8.476  0.00  0.00    +0.015 C 
ATOM     12  C   LIG    1       30.368 -18.883   6.133  0.00  0.00    +0.015 C 
ENDBRANCH   7   9
BRANCH   3  13
ATOM     13  C   LIG    1       24.299 -21.526   6.379  0.00  0.00    +0.163 C 
BRANCH  13  14
ATOM     14  C   LIG    1       24.237 -22.998   6.036  0.00  0.00    +0.285 C 
ATOM     15  N   LIG    1       23.297 -23.863   6.538  0.00  0.00    -0.234 N 
ATOM     16  H   LIG    1       22.827 -23.618   7.409  0.00  0.00    +0.291 HD
ATOM     17  C   LIG    1       23.799 -25.201   6.361  0.00  0.00    +0.272 C 
ATOM     18  C   LIG    1       24.750 -24.975   5.184  0.00  0.00    +0.333 C 
ATOM     19  N   LIG    1       25.135 -23.534   5.237  0.00  0.00    -0.084 NA
ENDBRANCH  13  14
ENDBRANCH   3  13
TORSDOF 3
ENDMDL
MODEL 6
REMARK VINA RESULT:      -7.9      3.559      6.766
REMARK  Name = *****
REMARK                            x       y       z     vdW  Elec       q    Type
REMARK                         _______ _______ _______ _____ _____    ______ ____
ROOT
ATOM      1  C   LIG    1       25.714 -22.049   8.950  0.00  0.00    +0.044 C 
ATOM      2  C   LIG    1       26.344 -21.243   7.840  0.00  0.00    -0.046 A 
ATOM      3  C   LIG    1       25.702 -21.026   6.598  0.00  0.00    -0.030 A 
ATOM      4  C   LIG    1       26.379 -20.271   5.612  0.00  0.00    -0.046 A 
ATOM      5  C   LIG    1       25.774 -19.976   4.261  0.00  0.00    +0.044 C 
ATOM      6  C   LIG    1       27.662 -19.756   5.880  0.00  0.00    +0.007 A 
ATOM      7  C   LIG    1       28.313 -19.948   7.105  0.00  0.00    -0.042 A 
ATOM      8  C   LIG    1       27.622 -20.690   8.076  0.00  0.00    +0.007 A 
ENDROOT
BRANCH   7   9
ATOM      9  C   LIG    1       29.721 -19.389   7.385  0.00  0.00    -0.013 C 
ATOM     10  C   LIG    1       30.635 -20.498   7.950  0.00  0.00    +0.015 C 
ATOM     11  C   LIG    1       29.727 -18.229   8.410  0.00  0.00    +0.015 C 
ATOM     12  C   LIG    1       30.352 -18.846   6.085  0.00  0.00    +0.015 C 
ENDBRANCH   7   9
BRANCH   3  13
ATOM     13  C   LIG    1       24.305 -21.564   6.323  0.00  0.00    +0.163 C 
BRANCH  13  14
ATOM     14  C   LIG    1       24.224 -23.042   6.014  0.00  0.00    +0.285 C 
ATOM     15  N   LIG    1       23.271 -23.883   6.531  0.00  0.00    -0.234 N 
ATOM     16  H   LIG    1       22.800 -23.612   7.393  0.00  0.00    +0.291 HD
ATOM     17  C   LIG    1       23.755 -25.231   6.386  0.00  0.00    +0.272 C 
ATOM     18  C   LIG    1       24.714 -25.045   5.209  0.00  0.00    +0.333 C 
ATOM     19  N   LIG    1       25.119 -23.609   5.232  0.00  0.00    -0.084 NA
ENDBRANCH  13  14
ENDBRANCH   3  13
TORSDOF 3
ENDMDL
MODEL 7
REMARK VINA RESULT:      -7.7      1.625      2.927
REMARK  Name = *****
REMARK                            x       y       z     vdW  Elec       q    Type
REMARK                         _______ _______ _______ _____ _____    ______ ____
ROOT
ATOM      1  C   LIG    1       26.604 -22.384   8.375  0.00  0.00    +0.044 C 
ATOM      2  C   LIG    1       26.723 -21.432   7.211  0.00  0.00    -0.046 A 
ATOM      3  C   LIG    1       27.936 -20.782   6.880  0.00  0.00    -0.030 A 
ATOM      4  C   LIG    1       27.948 -19.893   5.780  0.00  0.00    -0.046 A 
ATOM      5  C   LIG    1       29.192 -19.162   5.342  0.00  0.00    +0.044 C 
ATOM      6  C   LIG    1       26.767 -19.674   5.043  0.00  0.00    +0.007 A 
ATOM      7  C   LIG    1       25.558 -20.313   5.344  0.00  0.00    -0.042 A 
ATOM      8  C   LIG    1       25.568 -21.200   6.432  0.00  0.00    +0.007 A 
ENDROOT
BRANCH   7   9
ATOM      9  C   LIG    1       24.269 -20.058   4.539  0.00  0.00    -0.013 C 
ATOM     10  C   LIG    1       24.403 -18.763   3.709  0.00  0.00    +0.015 C 
ATOM     11  C   LIG    1       23.013 -19.900   5.429  0.00  0.00    +0.015 C 
ATOM     12  C   LIG    1       23.996 -21.233   3.576  0.00  0.00    +0.015 C 
ENDBRANCH   7   9
BRANCH   3  13
ATOM     13  C   LIG    1       29.214 -21.043   7.664  0.00  0.00    +0.163 C 
BRANCH  13  14
ATOM     14  C   LIG    1       29.923 -19.813   8.185  0.00  0.00    +0.285 C 
ATOM     15  N   LIG    1       31.247 -19.535   7.955  0.00  0.00    -0.234 N 
ATOM     16  H   LIG    1       31.871 -20.305   7.717  0.00  0.00    +0.291 HD
ATOM     17  C   LIG    1       31.665 -18.567   8.935  0.00  0.00    +0.272 C 
ATOM     18  C   LIG    1       30.318 -17.920   9.263  0.00  0.00    +0.333 C 
ATOM     19  N   LIG    1       29.281 -18.942   8.936  0.00  0.00    -0.084 NA
ENDBRANCH  13  14
ENDBRANCH   3  13
TORSDOF 3
ENDMDL
MODEL 8
REMARK VINA RESULT:      -7.6      1.634      3.453
REMARK  Name = *****
REMARK                            x       y       z     vdW  Elec       q    Type
REMARK                         _______ _______ _______ _____ _____    ______ ____
ROOT
ATOM      1  C   LIG    1       29.162 -19.160   5.340  0.00  0.00    +0.044 C 
ATOM      2  C   LIG    1       27.919 -19.903   5.767  0.00  0.00    -0.046 A 
ATOM      3  C   LIG    1       27.912 -20.819   6.846  0.00  0.00    -0.030 A 
ATOM      4  C   LIG    1       26.703 -21.481   7.161  0.00  0.00    -0.046 A 
ATOM      5  C   LIG    1       26.591 -22.466   8.299  0.00  0.00    +0.044 C 
ATOM      6  C   LIG    1       25.543 -21.221   6.406  0.00  0.00    +0.007 A 
ATOM      7  C   LIG    1       25.522 -20.311   5.341  0.00  0.00    -0.042 A 
ATOM      8  C   LIG    1       26.729 -19.655   5.049  0.00  0.00    +0.007 A 
ENDROOT
BRANCH   7   9
ATOM      9  C   LIG    1       24.251 -20.041   4.514  0.00  0.00    -0.013 C 
ATOM     10  C   LIG    1       24.402 -18.731   3.712  0.00  0.00    +0.015 C 
ATOM     11  C   LIG    1       22.975 -19.899   5.380  0.00  0.00    +0.015 C 
ATOM     12  C   LIG    1       23.998 -21.198   3.524  0.00  0.00    +0.015 C 
ENDBRANCH   7   9
BRANCH   3  13
ATOM     13  C   LIG    1       29.163 -21.077   7.674  0.00  0.00    +0.163 C 
BRANCH  13  14
ATOM     14  C   LIG    1       29.898 -19.843   8.149  0.00  0.00    +0.285 C 
ATOM     15  N   LIG    1       31.221 -19.589   7.886  0.00  0.00    -0.234 N 
ATOM     16  H   LIG    1       31.829 -20.373   7.655  0.00  0.00    +0.291 HD
ATOM     17  C   LIG    1       31.670 -18.602   8.832  0.00  0.00    +0.272 C 
ATOM     18  C   LIG    1       30.338 -17.929   9.170  0.00  0.00    +0.333 C 
ATOM     19  N   LIG    1       29.282 -18.946   8.890  0.00  0.00    -0.084 NA
ENDBRANCH  13  14
ENDBRANCH   3  13
TORSDOF 3
ENDMDL
MODEL 9
REMARK VINA RESULT:      -6.5      3.554      6.772
REMARK  Name = *****
REMARK                            x       y       z     vdW  Elec       q    Type
REMARK                         _______ _______ _______ _____ _____    ______ ____
ROOT
ATOM      1  C   LIG    1       26.494 -19.459   4.197  0.00  0.00    +0.044 C 
ATOM      2  C   LIG    1       26.948 -20.160   5.454  0.00  0.00    -0.046 A 
ATOM      3  C   LIG    1       26.213 -21.215   6.045  0.00  0.00    -0.030 A 
ATOM      4  C   LIG    1       26.709 -21.800   7.233  0.00  0.00    -0.046 A 
ATOM      5  C   LIG    1       26.005 -22.936   7.932  0.00  0.00    +0.044 C 
ATOM      6  C   LIG    1       27.910 -21.329   7.799  0.00  0.00    +0.007 A 
ATOM      7  C   LIG    1       28.661 -20.295   7.226  0.00  0.00    -0.042 A 
ATOM      8  C   LIG    1       28.159 -19.733   6.041  0.00  0.00    +0.007 A 
ENDROOT
BRANCH   7   9
ATOM      9  C   LIG    1       29.968 -19.779   7.858  0.00  0.00    -0.013 C 
ATOM     10  C   LIG    1       30.665 -20.909   8.646  0.00  0.00    +0.015 C 
ATOM     11  C   LIG    1       29.750 -18.605   8.843  0.00  0.00    +0.015 C 
ATOM     12  C   LIG    1       30.932 -19.276   6.763  0.00  0.00    +0.015 C 
ENDBRANCH   7   9
BRANCH   3  13
ATOM     13  C   LIG    1       24.929 -21.736   5.415  0.00  0.00    +0.163 C 
BRANCH  13  14
ATOM     14  C   LIG    1       23.882 -20.689   5.105  0.00  0.00    +0.285 C 
ATOM     15  N   LIG    1       23.603 -20.235   3.840  0.00  0.00    -0.234 N 
ATOM     16  H   LIG    1       24.316 -20.337   3.119  0.00  0.00    +0.291 HD
ATOM     17  C   LIG    1       22.910 -18.980   3.973  0.00  0.00    +0.272 C 
ATOM     18  C   LIG    1       22.314 -19.151   5.371  0.00  0.00    +0.333 C 
ATOM     19  N   LIG    1       23.193 -20.128   6.076  0.00  0.00    -0.084 NA
ENDBRANCH  13  14
ENDBRANCH   3  13
TORSDOF 3
ENDMDL
