MODEL 1
REMARK VINA RESULT:      -2.7      0.000      0.000
REMARK  Name = *****
REMARK                            x       y       z     vdW  Elec       q    Type
REMARK                         _______ _______ _______ _____ _____    ______ ____
ROOT
ATOM      1  N   LIG    1       22.313 -19.298   3.774  0.00  0.00    -0.299 NA
ATOM      2  C   LIG    1       23.165 -20.125   2.898  0.00  0.00    +0.103 C 
ATOM      3  C   LIG    1       24.496 -20.650   3.497  0.00  0.00    +0.122 C 
ATOM      4  N   LIG    1       24.557 -20.479   4.962  0.00  0.00    -0.312 N 
ATOM      5  C   LIG    1       23.294 -20.741   5.653  0.00  0.00    +0.122 C 
ATOM      6  C   LIG    1       22.058 -20.108   4.980  0.00  0.00    +0.103 C 
ENDROOT
BRANCH   4   7
ATOM      7  C   LIG    1       25.779 -20.586   5.598  0.00  0.00    +0.138 A 
ATOM      8  C   LIG    1       26.936 -19.699   5.355  0.00  0.00    +0.031 A 
ATOM      9  C   LIG    1       28.019 -20.096   6.149  0.00  0.00    +0.041 A 
ATOM     10  C   LIG    1       29.263 -19.430   6.132  0.00  0.00    +0.017 A 
ATOM     11  C   LIG    1       29.435 -18.331   5.288  0.00  0.00    +0.001 A 
ATOM     12  C   LIG    1       28.402 -17.909   4.479  0.00  0.00    +0.001 A 
ATOM     13  S   LIG    1       27.545 -21.463   7.062  0.00  0.00    +0.014 S 
ATOM     14  C   LIG    1       27.185 -18.587   4.500  0.00  0.00    +0.012 A 
ATOM     15  N   LIG    1       26.018 -21.569   6.471  0.00  0.00    -0.194 NA
ENDBRANCH   4   7
BRANCH   1  16
ATOM     16  C   LIG    1       22.916 -17.993   4.133  0.00  0.00    +0.089 C 
BRANCH  16  17
ATOM     17  C   LIG    1       24.181 -17.615   3.337  0.00  0.00    +0.052 C 
BRANCH  17  25
ATOM     18  O   LIG    1       28.759 -11.910   3.768  0.00  0.00    -0.275 OA
ATOM     19  C   LIG    1       27.873 -12.766   3.788  0.00  0.00    +0.222 C 
ATOM     20  N   LIG    1       26.662 -12.658   4.455  0.00  0.00    -0.285 N 
ATOM     21  H   LIG    1       26.403 -11.846   4.994  0.00  0.00    +0.155 HD
ATOM     22  C   LIG    1       25.894 -13.799   4.280  0.00  0.00    +0.038 A 
ATOM     23  C   LIG    1       26.590 -14.710   3.496  0.00  0.00    -0.017 A 
ATOM     24  C   LIG    1       26.046 -15.942   3.202  0.00  0.00    +0.011 A 
ATOM     25  C   LIG    1       24.761 -16.259   3.686  0.00  0.00    -0.028 A 
ATOM     26  C   LIG    1       24.065 -15.301   4.463  0.00  0.00    +0.046 A 
ATOM     27 CL   LIG    1       22.475 -15.610   5.071  0.00  0.00    -0.083 Cl
ATOM     28  C   LIG    1       24.638 -14.061   4.776  0.00  0.00    +0.044 A 
ATOM     29  C   LIG    1       27.905 -14.123   3.085  0.00  0.00    +0.133 C 
ENDBRANCH  17  25
ENDBRANCH  16  17
ENDBRANCH   1  16
TORSDOF 4
ENDMDL
