MODEL 1
REMARK VINA RESULT:      -5.1      0.000      0.000
REMARK  Name = *****
REMARK                            x       y       z     vdW  Elec       q    Type
REMARK                         _______ _______ _______ _____ _____    ______ ____
ROOT
ATOM      1  C   LIG    1       24.948 -18.713   4.093  0.00  0.00    +0.058 C 
ATOM      2  C   LIG    1       25.960 -19.864   4.232  0.00  0.00    +0.024 C 
ENDROOT
BRANCH   1   3
ATOM      3  N   LIG    1       23.593 -19.293   3.833  0.00  0.00    -0.292 NA
ATOM      4  C   LIG    1       22.483 -18.458   4.294  0.00  0.00    +0.106 C 
BRANCH   3   5
ATOM      5  C   LIG    1       23.434 -20.663   4.385  0.00  0.00    +0.173 C 
BRANCH   5   7
ATOM      6  C   LIG    1       23.295 -20.710   7.053  0.00  0.00    +0.005 C 
ATOM      7  C   LIG    1       23.334 -20.673   5.862  0.00  0.00    -0.090 C 
ENDBRANCH   5   7
ENDBRANCH   3   5
ENDBRANCH   1   3
BRANCH   1   8
ATOM      8  C   LIG    1       25.546 -17.618   3.100  0.00  0.00    +0.053 C 
BRANCH   8   9
ATOM      9  C   LIG    1       25.783 -16.176   3.538  0.00  0.00    -0.046 A 
ATOM     10  C   LIG    1       27.080 -15.641   3.582  0.00  0.00    +0.003 A 
ATOM     11  C   LIG    1       27.315 -14.340   4.054  0.00  0.00    +0.000 A 
ATOM     12  C   LIG    1       26.252 -13.534   4.451  0.00  0.00    +0.000 A 
ATOM     13  C   LIG    1       24.953 -14.004   4.301  0.00  0.00    +0.000 A 
ATOM     14  C   LIG    1       24.726 -15.295   3.811  0.00  0.00    +0.003 A 
ENDBRANCH   8   9
ENDBRANCH   1   8
TORSDOF 5
ENDMDL
MODEL 2
REMARK VINA RESULT:      -4.8      0.969      2.099
REMARK  Name = *****
REMARK                            x       y       z     vdW  Elec       q    Type
REMARK                         _______ _______ _______ _____ _____    ______ ____
ROOT
ATOM      1  C   LIG    1       25.482 -19.321   4.545  0.00  0.00    +0.058 C 
ATOM      2  C   LIG    1       26.858 -19.835   5.004  0.00  0.00    +0.024 C 
ENDROOT
BRANCH   1   3
ATOM      3  N   LIG    1       24.551 -20.486   4.423  0.00  0.00    -0.292 NA
ATOM      4  C   LIG    1       24.191 -20.826   3.045  0.00  0.00    +0.106 C 
BRANCH   3   5
ATOM      5  C   LIG    1       23.311 -20.323   5.224  0.00  0.00    +0.173 C 
BRANCH   5   7
ATOM      6  C   LIG    1       21.897 -18.202   4.423  0.00  0.00    +0.005 C 
ATOM      7  C   LIG    1       22.508 -19.154   4.800  0.00  0.00    -0.090 C 
ENDBRANCH   5   7
ENDBRANCH   3   5
ENDBRANCH   1   3
BRANCH   1   8
ATOM      8  C   LIG    1       25.686 -18.334   3.309  0.00  0.00    +0.053 C 
BRANCH   8   9
ATOM      9  C   LIG    1       25.888 -16.835   3.499  0.00  0.00    -0.046 A 
ATOM     10  C   LIG    1       24.790 -15.977   3.678  0.00  0.00    +0.003 A 
ATOM     11  C   LIG    1       24.961 -14.588   3.779  0.00  0.00    +0.000 A 
ATOM     12  C   LIG    1       26.237 -14.032   3.746  0.00  0.00    +0.000 A 
ATOM     13  C   LIG    1       27.340 -14.874   3.691  0.00  0.00    +0.000 A 
ATOM     14  C   LIG    1       27.163 -16.260   3.610  0.00  0.00    +0.003 A 
ENDBRANCH   8   9
ENDBRANCH   1   8
TORSDOF 5
ENDMDL
MODEL 3
REMARK VINA RESULT:      -4.8      3.053      4.461
REMARK  Name = *****
REMARK                            x       y       z     vdW  Elec       q    Type
REMARK                         _______ _______ _______ _____ _____    ______ ____
ROOT
ATOM      1  C   LIG    1       24.762 -20.974   5.252  0.00  0.00    +0.058 C 
ATOM      2  C   LIG    1       25.121 -20.017   4.101  0.00  0.00    +0.024 C 
ENDROOT
BRANCH   1   3
ATOM      3  N   LIG    1       23.537 -20.461   5.940  0.00  0.00    -0.292 NA
ATOM      4  C   LIG    1       23.085 -21.288   7.060  0.00  0.00    +0.106 C 
BRANCH   3   5
ATOM      5  C   LIG    1       22.400 -20.237   5.011  0.00  0.00    +0.173 C 
BRANCH   5   7
ATOM      6  C   LIG    1       22.139 -17.659   4.358  0.00  0.00    +0.005 C 
ATOM      7  C   LIG    1       22.254 -18.816   4.622  0.00  0.00    -0.090 C 
ENDBRANCH   5   7
ENDBRANCH   3   5
ENDBRANCH   1   3
BRANCH   1   8
ATOM      8  C   LIG    1       26.079 -21.280   6.097  0.00  0.00    +0.053 C 
BRANCH   8   9
ATOM      9  C   LIG    1       27.283 -20.344   6.081  0.00  0.00    -0.046 A 
ATOM     10  C   LIG    1       28.316 -20.483   7.022  0.00  0.00    +0.003 A 
ATOM     11  C   LIG    1       29.390 -19.581   7.062  0.00  0.00    +0.000 A 
ATOM     12  C   LIG    1       29.475 -18.546   6.135  0.00  0.00    +0.000 A 
ATOM     13  C   LIG    1       28.526 -18.465   5.124  0.00  0.00    +0.000 A 
ATOM     14  C   LIG    1       27.467 -19.380   5.078  0.00  0.00    +0.003 A 
ENDBRANCH   8   9
ENDBRANCH   1   8
TORSDOF 5
ENDMDL
MODEL 4
REMARK VINA RESULT:      -4.6      1.898      6.182
REMARK  Name = *****
REMARK                            x       y       z     vdW  Elec       q    Type
REMARK                         _______ _______ _______ _____ _____    ______ ____
ROOT
ATOM      1  C   LIG    1       24.989 -15.315   4.030  0.00  0.00    +0.058 C 
ATOM      2  C   LIG    1       23.502 -14.918   4.064  0.00  0.00    +0.024 C 
ENDROOT
BRANCH   1   3
ATOM      3  N   LIG    1       25.792 -14.132   3.590  0.00  0.00    -0.292 NA
ATOM      4  C   LIG    1       25.168 -13.344   2.525  0.00  0.00    +0.106 C 
BRANCH   3   5
ATOM      5  C   LIG    1       27.176 -14.489   3.184  0.00  0.00    +0.173 C 
BRANCH   5   7
ATOM      6  C   LIG    1       28.943 -12.665   4.014  0.00  0.00    +0.005 C 
ATOM      7  C   LIG    1       28.176 -13.495   3.635  0.00  0.00    -0.090 C 
ENDBRANCH   5   7
ENDBRANCH   3   5
ENDBRANCH   1   3
BRANCH   1   8
ATOM      8  C   LIG    1       25.133 -16.704   3.260  0.00  0.00    +0.053 C 
BRANCH   8   9
ATOM      9  C   LIG    1       24.444 -17.973   3.750  0.00  0.00    -0.046 A 
ATOM     10  C   LIG    1       23.093 -17.957   4.134  0.00  0.00    +0.003 A 
ATOM     11  C   LIG    1       22.472 -19.101   4.657  0.00  0.00    +0.000 A 
ATOM     12  C   LIG    1       23.176 -20.297   4.766  0.00  0.00    +0.000 A 
ATOM     13  C   LIG    1       24.476 -20.362   4.280  0.00  0.00    +0.000 A 
ATOM     14  C   LIG    1       25.084 -19.222   3.742  0.00  0.00    +0.003 A 
ENDBRANCH   8   9
ENDBRANCH   1   8
TORSDOF 5
ENDMDL
MODEL 5
REMARK VINA RESULT:      -4.5      1.123      2.143
REMARK  Name = *****
REMARK                            x       y       z     vdW  Elec       q    Type
REMARK                         _______ _______ _______ _____ _____    ______ ____
ROOT
ATOM      1  C   LIG    1       22.748 -17.866   3.860  0.00  0.00    +0.058 C 
ATOM      2  C   LIG    1       21.257 -18.211   3.691  0.00  0.00    +0.024 C 
ENDROOT
BRANCH   1   3
ATOM      3  N   LIG    1       23.431 -19.008   4.542  0.00  0.00    -0.292 NA
ATOM      4  C   LIG    1       24.365 -19.746   3.689  0.00  0.00    +0.106 C 
BRANCH   3   5
ATOM      5  C   LIG    1       22.481 -19.965   5.165  0.00  0.00    +0.173 C 
BRANCH   5   7
ATOM      6  C   LIG    1       23.663 -21.428   7.062  0.00  0.00    +0.005 C 
ATOM      7  C   LIG    1       23.111 -20.787   6.222  0.00  0.00    -0.090 C 
ENDBRANCH   5   7
ENDBRANCH   3   5
ENDBRANCH   1   3
BRANCH   1   8
ATOM      8  C   LIG    1       22.871 -16.393   4.460  0.00  0.00    +0.053 C 
BRANCH   8   9
ATOM      9  C   LIG    1       24.005 -15.454   4.064  0.00  0.00    -0.046 A 
ATOM     10  C   LIG    1       25.233 -15.960   3.607  0.00  0.00    +0.003 A 
ATOM     11  C   LIG    1       26.307 -15.107   3.312  0.00  0.00    +0.000 A 
ATOM     12  C   LIG    1       26.161 -13.727   3.427  0.00  0.00    +0.000 A 
ATOM     13  C   LIG    1       24.919 -13.204   3.762  0.00  0.00    +0.000 A 
ATOM     14  C   LIG    1       23.846 -14.061   4.036  0.00  0.00    +0.003 A 
ENDBRANCH   8   9
ENDBRANCH   1   8
TORSDOF 5
ENDMDL
MODEL 6
REMARK VINA RESULT:      -4.5      1.280      2.188
REMARK  Name = *****
REMARK                            x       y       z     vdW  Elec       q    Type
REMARK                         _______ _______ _______ _____ _____    ______ ____
ROOT
ATOM      1  C   LIG    1       24.963 -18.435   3.274  0.00  0.00    +0.058 C 
ATOM      2  C   LIG    1       23.610 -18.105   3.929  0.00  0.00    +0.024 C 
ENDROOT
BRANCH   1   3
ATOM      3  N   LIG    1       25.307 -19.860   3.574  0.00  0.00    -0.292 NA
ATOM      4  C   LIG    1       24.151 -20.754   3.651  0.00  0.00    +0.106 C 
BRANCH   3   5
ATOM      5  C   LIG    1       26.122 -20.012   4.807  0.00  0.00    +0.173 C 
BRANCH   5   7
ATOM      6  C   LIG    1       24.719 -20.867   6.914  0.00  0.00    +0.005 C 
ATOM      7  C   LIG    1       25.329 -20.501   5.957  0.00  0.00    -0.090 C 
ENDBRANCH   5   7
ENDBRANCH   3   5
ENDBRANCH   1   3
BRANCH   1   8
ATOM      8  C   LIG    1       26.001 -17.276   3.624  0.00  0.00    +0.053 C 
BRANCH   8   9
ATOM      9  C   LIG    1       25.670 -15.804   3.403  0.00  0.00    -0.046 A 
ATOM     10  C   LIG    1       24.505 -15.238   3.948  0.00  0.00    +0.003 A 
ATOM     11  C   LIG    1       24.154 -13.905   3.689  0.00  0.00    +0.000 A 
ATOM     12  C   LIG    1       24.982 -13.097   2.914  0.00  0.00    +0.000 A 
ATOM     13  C   LIG    1       26.196 -13.604   2.467  0.00  0.00    +0.000 A 
ATOM     14  C   LIG    1       26.549 -14.930   2.746  0.00  0.00    +0.003 A 
ENDBRANCH   8   9
ENDBRANCH   1   8
TORSDOF 5
ENDMDL
MODEL 7
REMARK VINA RESULT:      -4.3      1.191      1.752
REMARK  Name = *****
REMARK                            x       y       z     vdW  Elec       q    Type
REMARK                         _______ _______ _______ _____ _____    ______ ____
ROOT
ATOM      1  C   LIG    1       24.943 -18.509   3.282  0.00  0.00    +0.058 C 
ATOM      2  C   LIG    1       23.634 -18.112   3.987  0.00  0.00    +0.024 C 
ENDROOT
BRANCH   1   3
ATOM      3  N   LIG    1       25.266 -19.928   3.632  0.00  0.00    -0.292 NA
ATOM      4  C   LIG    1       24.096 -20.803   3.731  0.00  0.00    +0.106 C 
BRANCH   3   5
ATOM      5  C   LIG    1       26.072 -20.051   4.873  0.00  0.00    +0.173 C 
BRANCH   5   7
ATOM      6  C   LIG    1       24.678 -20.933   6.975  0.00  0.00    +0.005 C 
ATOM      7  C   LIG    1       25.275 -20.534   6.024  0.00  0.00    -0.090 C 
ENDBRANCH   5   7
ENDBRANCH   3   5
ENDBRANCH   1   3
BRANCH   1   8
ATOM      8  C   LIG    1       26.027 -17.365   3.526  0.00  0.00    +0.053 C 
BRANCH   8   9
ATOM      9  C   LIG    1       25.669 -15.885   3.448  0.00  0.00    -0.046 A 
ATOM     10  C   LIG    1       26.534 -14.966   2.832  0.00  0.00    +0.003 A 
ATOM     11  C   LIG    1       26.248 -13.592   2.822  0.00  0.00    +0.000 A 
ATOM     12  C   LIG    1       25.070 -13.114   3.390  0.00  0.00    +0.000 A 
ATOM     13  C   LIG    1       24.147 -14.021   3.896  0.00  0.00    +0.000 A 
ATOM     14  C   LIG    1       24.431 -15.392   3.886  0.00  0.00    +0.003 A 
ENDBRANCH   8   9
ENDBRANCH   1   8
TORSDOF 5
ENDMDL
MODEL 8
REMARK VINA RESULT:      -4.3      1.750      5.854
REMARK  Name = *****
REMARK                            x       y       z     vdW  Elec       q    Type
REMARK                         _______ _______ _______ _____ _____    ______ ____
ROOT
ATOM      1  C   LIG    1       25.549 -15.575   3.190  0.00  0.00    +0.058 C 
ATOM      2  C   LIG    1       26.693 -14.696   2.656  0.00  0.00    +0.024 C 
ENDROOT
BRANCH   1   3
ATOM      3  N   LIG    1       24.907 -14.878   4.349  0.00  0.00    -0.292 NA
ATOM      4  C   LIG    1       23.444 -14.924   4.343  0.00  0.00    +0.106 C 
BRANCH   3   5
ATOM      5  C   LIG    1       25.349 -13.467   4.493  0.00  0.00    +0.173 C 
BRANCH   5   7
ATOM      6  C   LIG    1       23.840 -11.730   3.136  0.00  0.00    +0.005 C 
ATOM      7  C   LIG    1       24.491 -12.522   3.745  0.00  0.00    -0.090 C 
ENDBRANCH   5   7
ENDBRANCH   3   5
ENDBRANCH   1   3
BRANCH   1   8
ATOM      8  C   LIG    1       26.082 -17.068   3.359  0.00  0.00    +0.053 C 
BRANCH   8   9
ATOM      9  C   LIG    1       25.149 -18.223   3.708  0.00  0.00    -0.046 A 
ATOM     10  C   LIG    1       23.758 -18.038   3.746  0.00  0.00    +0.003 A 
ATOM     11  C   LIG    1       22.897 -19.074   4.139  0.00  0.00    +0.000 A 
ATOM     12  C   LIG    1       23.406 -20.329   4.459  0.00  0.00    +0.000 A 
ATOM     13  C   LIG    1       24.767 -20.565   4.310  0.00  0.00    +0.000 A 
ATOM     14  C   LIG    1       25.618 -19.531   3.900  0.00  0.00    +0.003 A 
ENDBRANCH   8   9
ENDBRANCH   1   8
TORSDOF 5
ENDMDL
MODEL 9
REMARK VINA RESULT:      -4.3      1.907      6.310
REMARK  Name = *****
REMARK                            x       y       z     vdW  Elec       q    Type
REMARK                         _______ _______ _______ _____ _____    ______ ____
ROOT
ATOM      1  C   LIG    1       24.751 -15.870   4.050  0.00  0.00    +0.058 C 
ATOM      2  C   LIG    1       23.278 -15.489   4.284  0.00  0.00    +0.024 C 
ENDROOT
BRANCH   1   3
ATOM      3  N   LIG    1       25.458 -14.700   3.440  0.00  0.00    -0.292 NA
ATOM      4  C   LIG    1       26.910 -14.712   3.628  0.00  0.00    +0.106 C 
BRANCH   3   5
ATOM      5  C   LIG    1       24.918 -13.394   3.897  0.00  0.00    +0.173 C 
BRANCH   5   7
ATOM      6  C   LIG    1       24.465 -11.748   1.842  0.00  0.00    +0.005 C 
ATOM      7  C   LIG    1       24.654 -12.464   2.776  0.00  0.00    -0.090 C 
ENDBRANCH   5   7
ENDBRANCH   3   5
ENDBRANCH   1   3
BRANCH   1   8
ATOM      8  C   LIG    1       24.808 -17.294   3.334  0.00  0.00    +0.053 C 
BRANCH   8   9
ATOM      9  C   LIG    1       24.214 -18.543   3.977  0.00  0.00    -0.046 A 
ATOM     10  C   LIG    1       22.832 -18.648   4.204  0.00  0.00    +0.003 A 
ATOM     11  C   LIG    1       22.285 -19.760   4.861  0.00  0.00    +0.000 A 
ATOM     12  C   LIG    1       23.104 -20.810   5.267  0.00  0.00    +0.000 A 
ATOM     13  C   LIG    1       24.455 -20.778   4.944  0.00  0.00    +0.000 A 
ATOM     14  C   LIG    1       24.990 -19.673   4.271  0.00  0.00    +0.003 A 
ENDBRANCH   8   9
ENDBRANCH   1   8
TORSDOF 5
ENDMDL
