MODEL 1
REMARK VINA RESULT:      -8.9      0.000      0.000
REMARK  Name = *****
REMARK                            x       y       z     vdW  Elec       q    Type
REMARK                         _______ _______ _______ _____ _____    ______ ____
ROOT
ATOM      1  C   LIG    1       28.412 -19.802   7.292  0.00  0.00    -0.034 A 
ATOM      2  C   LIG    1       27.836 -19.955   6.023  0.00  0.00    +0.005 A 
ATOM      3  C   LIG    1       26.607 -20.611   5.866  0.00  0.00    +0.004 A 
ATOM      4  C   LIG    1       25.915 -21.120   6.974  0.00  0.00    -0.047 A 
ATOM      5  C   LIG    1       26.481 -20.947   8.242  0.00  0.00    +0.004 A 
ATOM      6  C   LIG    1       27.722 -20.316   8.399  0.00  0.00    +0.005 A 
ENDROOT
BRANCH   1   8
ATOM      7  C   LIG    1       30.382 -18.750   6.135  0.00  0.00    +0.024 C 
ATOM      8  C   LIG    1       29.741 -19.076   7.489  0.00  0.00    +0.124 C 
BRANCH   8   9
ATOM      9  C   LIG    1       30.750 -19.796   8.388  0.00  0.00    +0.312 C 
ATOM     10  O   LIG    1       30.826 -19.632   9.594  0.00  0.00    -0.250 OA
BRANCH   9  11
ATOM     11  O   LIG    1       31.520 -20.716   7.760  0.00  0.00    -0.480 OA
ATOM     12  H   LIG    1       31.197 -20.980   6.879  0.00  0.00    +0.295 HD
ENDBRANCH   9  11
ENDBRANCH   8   9
ENDBRANCH   1   8
BRANCH   4  13
ATOM     13  C   LIG    1       24.586 -21.836   6.809  0.00  0.00    +0.046 C 
BRANCH  13  14
ATOM     14  C   LIG    1       24.633 -23.305   7.241  0.00  0.00    +0.059 C 
ATOM     15  C   LIG    1       23.509 -24.153   6.669  0.00  0.00    +0.137 C 
ATOM     16  O   LIG    1       22.322 -23.851   6.714  0.00  0.00    -0.297 OA
ATOM     17  C   LIG    1       24.018 -25.435   6.054  0.00  0.00    +0.075 C 
ATOM     18  C   LIG    1       25.428 -25.505   6.623  0.00  0.00    +0.008 C 
ATOM     19  C   LIG    1       25.864 -24.050   6.712  0.00  0.00    +0.012 C 
ENDBRANCH  13  14
ENDBRANCH   4  13
TORSDOF 5
ENDMDL
MODEL 2
REMARK VINA RESULT:      -8.8      1.923      7.183
REMARK  Name = *****
REMARK                            x       y       z     vdW  Elec       q    Type
REMARK                         _______ _______ _______ _____ _____    ______ ____
ROOT
ATOM      1  C   LIG    1       25.135 -20.674   7.011  0.00  0.00    -0.034 A 
ATOM      2  C   LIG    1       25.911 -20.462   5.862  0.00  0.00    +0.005 A 
ATOM      3  C   LIG    1       27.295 -20.261   5.957  0.00  0.00    +0.004 A 
ATOM      4  C   LIG    1       27.942 -20.277   7.200  0.00  0.00    -0.047 A 
ATOM      5  C   LIG    1       27.170 -20.510   8.344  0.00  0.00    +0.004 A 
ATOM      6  C   LIG    1       25.783 -20.685   8.255  0.00  0.00    +0.005 A 
ENDROOT
BRANCH   1   8
ATOM      7  C   LIG    1       23.302 -22.385   7.208  0.00  0.00    +0.024 C 
ATOM      8  C   LIG    1       23.630 -20.913   6.931  0.00  0.00    +0.124 C 
BRANCH   8   9
ATOM      9  C   LIG    1       22.965 -20.464   5.626  0.00  0.00    +0.312 C 
ATOM     10  O   LIG    1       22.567 -19.331   5.419  0.00  0.00    -0.250 OA
BRANCH   9  11
ATOM     11  O   LIG    1       22.921 -21.407   4.654  0.00  0.00    -0.480 OA
ATOM     12  H   LIG    1       23.655 -21.361   4.013  0.00  0.00    +0.295 HD
ENDBRANCH   9  11
ENDBRANCH   8   9
ENDBRANCH   1   8
BRANCH   4  13
ATOM     13  C   LIG    1       29.441 -20.054   7.309  0.00  0.00    +0.046 C 
BRANCH  13  14
ATOM     14  C   LIG    1       29.847 -19.282   8.568  0.00  0.00    +0.059 C 
ATOM     15  C   LIG    1       31.320 -19.409   8.922  0.00  0.00    +0.137 C 
ATOM     16  O   LIG    1       31.924 -20.472   8.998  0.00  0.00    -0.297 OA
ATOM     17  C   LIG    1       31.957 -18.068   9.197  0.00  0.00    +0.075 C 
ATOM     18  C   LIG    1       30.734 -17.181   9.378  0.00  0.00    +0.008 C 
ATOM     19  C   LIG    1       29.709 -17.763   8.414  0.00  0.00    +0.012 C 
ENDBRANCH  13  14
ENDBRANCH   4  13
TORSDOF 5
ENDMDL
MODEL 3
REMARK VINA RESULT:      -8.7      1.659      7.152
REMARK  Name = *****
REMARK                            x       y       z     vdW  Elec       q    Type
REMARK                         _______ _______ _______ _____ _____    ______ ____
ROOT
ATOM      1  C   LIG    1       25.883 -20.686   6.406  0.00  0.00    -0.034 A 
ATOM      2  C   LIG    1       26.700 -20.203   5.374  0.00  0.00    +0.005 A 
ATOM      3  C   LIG    1       28.000 -19.748   5.641  0.00  0.00    +0.004 A 
ATOM      4  C   LIG    1       28.520 -19.774   6.943  0.00  0.00    -0.047 A 
ATOM      5  C   LIG    1       27.710 -20.277   7.968  0.00  0.00    +0.004 A 
ATOM      6  C   LIG    1       26.402 -20.708   7.709  0.00  0.00    +0.005 A 
ENDROOT
BRANCH   1   8
ATOM      7  C   LIG    1       23.502 -20.707   7.218  0.00  0.00    +0.024 C 
ATOM      8  C   LIG    1       24.472 -21.203   6.138  0.00  0.00    +0.124 C 
BRANCH   8   9
ATOM      9  C   LIG    1       24.351 -22.722   5.982  0.00  0.00    +0.312 C 
ATOM     10  O   LIG    1       23.834 -23.452   6.810  0.00  0.00    -0.250 OA
BRANCH   9  11
ATOM     11  O   LIG    1       24.789 -23.211   4.798  0.00  0.00    -0.480 OA
ATOM     12  H   LIG    1       24.099 -23.291   4.113  0.00  0.00    +0.295 HD
ENDBRANCH   9  11
ENDBRANCH   8   9
ENDBRANCH   1   8
BRANCH   4  13
ATOM     13  C   LIG    1       29.925 -19.278   7.237  0.00  0.00    +0.046 C 
BRANCH  13  14
ATOM     14  C   LIG    1       30.103 -18.789   8.679  0.00  0.00    +0.059 C 
ATOM     15  C   LIG    1       31.512 -18.964   9.220  0.00  0.00    +0.137 C 
ATOM     16  O   LIG    1       32.150 -20.009   9.163  0.00  0.00    -0.297 OA
ATOM     17  C   LIG    1       32.035 -17.705   9.867  0.00  0.00    +0.075 C 
ATOM     18  C   LIG    1       30.756 -16.898  10.040  0.00  0.00    +0.008 C 
ATOM     19  C   LIG    1       29.914 -17.275   8.828  0.00  0.00    +0.012 C 
ENDBRANCH  13  14
ENDBRANCH   4  13
TORSDOF 5
ENDMDL
MODEL 4
REMARK VINA RESULT:      -8.6      2.682      6.868
REMARK  Name = *****
REMARK                            x       y       z     vdW  Elec       q    Type
REMARK                         _______ _______ _______ _____ _____    ______ ____
ROOT
ATOM      1  C   LIG    1       25.088 -25.761   6.382  0.00  0.00    -0.034 A 
ATOM      2  C   LIG    1       23.760 -25.343   6.211  0.00  0.00    +0.005 A 
ATOM      3  C   LIG    1       23.356 -24.058   6.601  0.00  0.00    +0.004 A 
ATOM      4  C   LIG    1       24.269 -23.154   7.161  0.00  0.00    -0.047 A 
ATOM      5  C   LIG    1       25.598 -23.565   7.311  0.00  0.00    +0.004 A 
ATOM      6  C   LIG    1       25.999 -24.857   6.947  0.00  0.00    +0.005 A 
ENDROOT
BRANCH   1   8
ATOM      7  C   LIG    1       26.021 -27.129   4.489  0.00  0.00    +0.024 C 
ATOM      8  C   LIG    1       25.555 -27.148   5.950  0.00  0.00    +0.124 C 
BRANCH   8   9
ATOM      9  C   LIG    1       24.540 -28.275   6.162  0.00  0.00    +0.312 C 
ATOM     10  O   LIG    1       24.329 -28.808   7.238  0.00  0.00    -0.250 OA
BRANCH   9  11
ATOM     11  O   LIG    1       23.808 -28.597   5.070  0.00  0.00    -0.480 OA
ATOM     12  H   LIG    1       23.216 -29.363   5.191  0.00  0.00    +0.295 HD
ENDBRANCH   9  11
ENDBRANCH   8   9
ENDBRANCH   1   8
BRANCH   4  13
ATOM     13  C   LIG    1       23.834 -21.763   7.589  0.00  0.00    +0.046 C 
BRANCH  13  14
ATOM     14  C   LIG    1       24.841 -20.672   7.209  0.00  0.00    +0.059 C 
ATOM     15  C   LIG    1       26.019 -20.560   8.162  0.00  0.00    +0.137 C 
ATOM     16  O   LIG    1       25.918 -20.481   9.381  0.00  0.00    -0.297 OA
ATOM     17  C   LIG    1       27.341 -20.529   7.433  0.00  0.00    +0.075 C 
ATOM     18  C   LIG    1       26.895 -20.234   6.008  0.00  0.00    +0.008 C 
ATOM     19  C   LIG    1       25.558 -20.950   5.882  0.00  0.00    +0.012 C 
ENDBRANCH  13  14
ENDBRANCH   4  13
TORSDOF 5
ENDMDL
MODEL 5
REMARK VINA RESULT:      -8.5      1.526      2.172
REMARK  Name = *****
REMARK                            x       y       z     vdW  Elec       q    Type
REMARK                         _______ _______ _______ _____ _____    ______ ____
ROOT
ATOM      1  C   LIG    1       29.514 -20.085   7.311  0.00  0.00    -0.034 A 
ATOM      2  C   LIG    1       28.802 -21.087   7.986  0.00  0.00    +0.005 A 
ATOM      3  C   LIG    1       27.524 -21.472   7.558  0.00  0.00    +0.004 A 
ATOM      4  C   LIG    1       26.928 -20.875   6.438  0.00  0.00    -0.047 A 
ATOM      5  C   LIG    1       27.650 -19.891   5.752  0.00  0.00    +0.004 A 
ATOM      6  C   LIG    1       28.916 -19.485   6.193  0.00  0.00    +0.005 A 
ENDROOT
BRANCH   1   8
ATOM      7  C   LIG    1       31.494 -20.668   8.748  0.00  0.00    +0.024 C 
ATOM      8  C   LIG    1       30.913 -19.660   7.748  0.00  0.00    +0.124 C 
BRANCH   8   9
ATOM      9  C   LIG    1       31.019 -18.241   8.313  0.00  0.00    +0.312 C 
ATOM     10  O   LIG    1       30.158 -17.716   8.998  0.00  0.00    -0.250 OA
BRANCH   9  11
ATOM     11  O   LIG    1       32.195 -17.615   8.071  0.00  0.00    -0.480 OA
ATOM     12  H   LIG    1       32.475 -17.628   7.137  0.00  0.00    +0.295 HD
ENDBRANCH   9  11
ENDBRANCH   8   9
ENDBRANCH   1   8
BRANCH   4  13
ATOM     13  C   LIG    1       25.542 -21.286   5.973  0.00  0.00    +0.046 C 
BRANCH  13  14
ATOM     14  C   LIG    1       24.999 -22.519   6.704  0.00  0.00    +0.059 C 
ATOM     15  C   LIG    1       23.562 -22.374   7.175  0.00  0.00    +0.137 C 
ATOM     16  O   LIG    1       23.136 -21.418   7.813  0.00  0.00    -0.297 OA
ATOM     17  C   LIG    1       22.713 -23.561   6.789  0.00  0.00    +0.075 C 
ATOM     18  C   LIG    1       23.776 -24.586   6.418  0.00  0.00    +0.008 C 
ATOM     19  C   LIG    1       24.893 -23.755   5.804  0.00  0.00    +0.012 C 
ENDBRANCH  13  14
ENDBRANCH   4  13
TORSDOF 5
ENDMDL
MODEL 6
REMARK VINA RESULT:      -8.5      3.614      6.831
REMARK  Name = *****
REMARK                            x       y       z     vdW  Elec       q    Type
REMARK                         _______ _______ _______ _____ _____    ______ ____
ROOT
ATOM      1  C   LIG    1       25.074 -25.638   6.355  0.00  0.00    -0.034 A 
ATOM      2  C   LIG    1       25.963 -24.687   6.876  0.00  0.00    +0.005 A 
ATOM      3  C   LIG    1       25.509 -23.423   7.279  0.00  0.00    +0.004 A 
ATOM      4  C   LIG    1       24.153 -23.081   7.183  0.00  0.00    -0.047 A 
ATOM      5  C   LIG    1       23.263 -24.039   6.684  0.00  0.00    +0.004 A 
ATOM      6  C   LIG    1       23.718 -25.292   6.255  0.00  0.00    +0.005 A 
ENDROOT
BRANCH   1   8
ATOM      7  C   LIG    1       25.985 -27.014   4.457  0.00  0.00    +0.024 C 
ATOM      8  C   LIG    1       25.542 -27.026   5.926  0.00  0.00    +0.124 C 
BRANCH   8   9
ATOM      9  C   LIG    1       24.537 -28.156   6.161  0.00  0.00    +0.312 C 
ATOM     10  O   LIG    1       24.338 -28.675   7.246  0.00  0.00    -0.250 OA
BRANCH   9  11
ATOM     11  O   LIG    1       23.798 -28.499   5.079  0.00  0.00    -0.480 OA
ATOM     12  H   LIG    1       22.837 -28.526   5.238  0.00  0.00    +0.295 HD
ENDBRANCH   9  11
ENDBRANCH   8   9
ENDBRANCH   1   8
BRANCH   4  13
ATOM     13  C   LIG    1       23.656 -21.711   7.614  0.00  0.00    +0.046 C 
BRANCH  13  14
ATOM     14  C   LIG    1       23.717 -20.667   6.494  0.00  0.00    +0.059 C 
ATOM     15  C   LIG    1       25.095 -20.506   5.874  0.00  0.00    +0.137 C 
ATOM     16  O   LIG    1       26.126 -20.340   6.514  0.00  0.00    -0.297 OA
ATOM     17  C   LIG    1       25.050 -20.549   4.366  0.00  0.00    +0.075 C 
ATOM     18  C   LIG    1       23.564 -20.349   4.101  0.00  0.00    +0.008 C 
ATOM     19  C   LIG    1       22.882 -21.051   5.267  0.00  0.00    +0.012 C 
ENDBRANCH  13  14
ENDBRANCH   4  13
TORSDOF 5
ENDMDL
MODEL 7
REMARK VINA RESULT:      -8.4      3.741      6.304
REMARK  Name = *****
REMARK                            x       y       z     vdW  Elec       q    Type
REMARK                         _______ _______ _______ _____ _____    ______ ____
ROOT
ATOM      1  C   LIG    1       24.923 -25.319   6.570  0.00  0.00    -0.034 A 
ATOM      2  C   LIG    1       23.596 -24.896   6.401  0.00  0.00    +0.005 A 
ATOM      3  C   LIG    1       23.215 -23.584   6.716  0.00  0.00    +0.004 A 
ATOM      4  C   LIG    1       24.150 -22.657   7.198  0.00  0.00    -0.047 A 
ATOM      5  C   LIG    1       25.478 -23.075   7.345  0.00  0.00    +0.004 A 
ATOM      6  C   LIG    1       25.857 -24.392   7.056  0.00  0.00    +0.005 A 
ENDROOT
BRANCH   1   8
ATOM      7  C   LIG    1       25.972 -27.432   7.442  0.00  0.00    +0.024 C 
ATOM      8  C   LIG    1       25.365 -26.736   6.217  0.00  0.00    +0.124 C 
BRANCH   8   9
ATOM      9  C   LIG    1       26.321 -26.845   5.026  0.00  0.00    +0.312 C 
ATOM     10  O   LIG    1       25.987 -26.670   3.867  0.00  0.00    -0.250 OA
BRANCH   9  11
ATOM     11  O   LIG    1       27.616 -27.071   5.351  0.00  0.00    -0.480 OA
ATOM     12  H   LIG    1       27.926 -27.978   5.171  0.00  0.00    +0.295 HD
ENDBRANCH   9  11
ENDBRANCH   8   9
ENDBRANCH   1   8
BRANCH   4  13
ATOM     13  C   LIG    1       23.741 -21.237   7.546  0.00  0.00    +0.046 C 
BRANCH  13  14
ATOM     14  C   LIG    1       23.709 -20.302   6.331  0.00  0.00    +0.059 C 
ATOM     15  C   LIG    1       24.961 -20.364   5.472  0.00  0.00    +0.137 C 
ATOM     16  O   LIG    1       26.103 -20.273   5.907  0.00  0.00    -0.297 OA
ATOM     17  C   LIG    1       24.640 -20.524   4.006  0.00  0.00    +0.075 C 
ATOM     18  C   LIG    1       23.161 -20.166   3.979  0.00  0.00    +0.008 C 
ATOM     19  C   LIG    1       22.630 -20.680   5.309  0.00  0.00    +0.012 C 
ENDBRANCH  13  14
ENDBRANCH   4  13
TORSDOF 5
ENDMDL
MODEL 8
REMARK VINA RESULT:      -8.3      2.162      7.146
REMARK  Name = *****
REMARK                            x       y       z     vdW  Elec       q    Type
REMARK                         _______ _______ _______ _____ _____    ______ ____
ROOT
ATOM      1  C   LIG    1       25.920 -21.035   6.038  0.00  0.00    -0.034 A 
ATOM      2  C   LIG    1       26.534 -21.664   7.131  0.00  0.00    +0.005 A 
ATOM      3  C   LIG    1       27.853 -21.353   7.489  0.00  0.00    +0.004 A 
ATOM      4  C   LIG    1       28.589 -20.399   6.773  0.00  0.00    -0.047 A 
ATOM      5  C   LIG    1       27.967 -19.757   5.696  0.00  0.00    +0.004 A 
ATOM      6  C   LIG    1       26.659 -20.084   5.319  0.00  0.00    +0.005 A 
ENDROOT
BRANCH   1   8
ATOM      7  C   LIG    1       24.249 -21.020   4.158  0.00  0.00    +0.024 C 
ATOM      8  C   LIG    1       24.479 -21.344   5.639  0.00  0.00    +0.124 C 
BRANCH   8   9
ATOM      9  C   LIG    1       23.405 -20.669   6.496  0.00  0.00    +0.312 C 
ATOM     10  O   LIG    1       23.277 -20.850   7.695  0.00  0.00    -0.250 OA
BRANCH   9  11
ATOM     11  O   LIG    1       22.635 -19.767   5.842  0.00  0.00    -0.480 OA
ATOM     12  H   LIG    1       21.707 -19.735   6.142  0.00  0.00    +0.295 HD
ENDBRANCH   9  11
ENDBRANCH   8   9
ENDBRANCH   1   8
BRANCH   4  13
ATOM     13  C   LIG    1       30.021 -20.063   7.154  0.00  0.00    +0.046 C 
BRANCH  13  14
ATOM     14  C   LIG    1       30.132 -19.322   8.491  0.00  0.00    +0.059 C 
ATOM     15  C   LIG    1       31.527 -19.340   9.093  0.00  0.00    +0.137 C 
ATOM     16  O   LIG    1       32.205 -20.350   9.238  0.00  0.00    -0.297 OA
ATOM     17  C   LIG    1       31.981 -17.965   9.521  0.00  0.00    +0.075 C 
ATOM     18  C   LIG    1       30.667 -17.196   9.514  0.00  0.00    +0.008 C 
ATOM     19  C   LIG    1       29.882 -17.814   8.366  0.00  0.00    +0.012 C 
ENDBRANCH  13  14
ENDBRANCH   4  13
TORSDOF 5
ENDMDL
MODEL 9
REMARK VINA RESULT:      -8.3      1.662      6.982
REMARK  Name = *****
REMARK                            x       y       z     vdW  Elec       q    Type
REMARK                         _______ _______ _______ _____ _____    ______ ____
ROOT
ATOM      1  C   LIG    1       24.387 -21.827   7.147  0.00  0.00    -0.034 A 
ATOM      2  C   LIG    1       25.339 -22.782   6.759  0.00  0.00    +0.005 A 
ATOM      3  C   LIG    1       26.687 -22.640   7.119  0.00  0.00    +0.004 A 
ATOM      4  C   LIG    1       27.117 -21.547   7.883  0.00  0.00    -0.047 A 
ATOM      5  C   LIG    1       26.163 -20.606   8.287  0.00  0.00    +0.004 A 
ATOM      6  C   LIG    1       24.820 -20.731   7.907  0.00  0.00    +0.005 A 
ENDROOT
BRANCH   1   8
ATOM      7  C   LIG    1       22.528 -23.449   6.659  0.00  0.00    +0.024 C 
ATOM      8  C   LIG    1       22.912 -21.969   6.782  0.00  0.00    +0.124 C 
BRANCH   8   9
ATOM      9  C   LIG    1       22.473 -21.208   5.528  0.00  0.00    +0.312 C 
ATOM     10  O   LIG    1       23.039 -20.216   5.101  0.00  0.00    -0.250 OA
BRANCH   9  11
ATOM     11  O   LIG    1       21.440 -21.765   4.853  0.00  0.00    -0.480 OA
ATOM     12  H   LIG    1       21.563 -22.707   4.632  0.00  0.00    +0.295 HD
ENDBRANCH   9  11
ENDBRANCH   8   9
ENDBRANCH   1   8
BRANCH   4  13
ATOM     13  C   LIG    1       28.577 -21.386   8.271  0.00  0.00    +0.046 C 
BRANCH  13  14
ATOM     14  C   LIG    1       29.140 -19.999   7.941  0.00  0.00    +0.059 C 
ATOM     15  C   LIG    1       30.595 -19.813   8.340  0.00  0.00    +0.137 C 
ATOM     16  O   LIG    1       31.048 -20.080   9.447  0.00  0.00    -0.297 OA
ATOM     17  C   LIG    1       31.424 -19.233   7.220  0.00  0.00    +0.075 C 
ATOM     18  C   LIG    1       30.344 -18.718   6.279  0.00  0.00    +0.008 C 
ATOM     19  C   LIG    1       29.208 -19.720   6.435  0.00  0.00    +0.012 C 
ENDBRANCH  13  14
ENDBRANCH   4  13
TORSDOF 5
ENDMDL
