MODEL 1
REMARK VINA RESULT:      -8.5      0.000      0.000
REMARK  Name = *****
REMARK                            x       y       z     vdW  Elec       q    Type
REMARK                         _______ _______ _______ _____ _____    ______ ____
ROOT
ATOM      1  N   LIG    1       24.700 -25.826   6.208  0.00  0.00    -0.297 N 
ATOM      2  C   LIG    1       25.897 -24.975   6.343  0.00  0.00    +0.127 C 
ATOM      3  C   LIG    1       25.676 -23.573   5.749  0.00  0.00    +0.127 C 
ATOM      4  N   LIG    1       24.445 -22.947   6.245  0.00  0.00    -0.295 N 
ATOM      5  C   LIG    1       24.247 -21.562   6.273  0.00  0.00    +0.260 C 
ATOM      6  O   LIG    1       23.100 -21.097   6.257  0.00  0.00    -0.271 OA
ATOM      7  C   LIG    1       23.253 -23.808   6.156  0.00  0.00    +0.127 C 
ATOM      8  C   LIG    1       23.469 -25.220   6.742  0.00  0.00    +0.127 C 
ENDROOT
BRANCH   1  15
ATOM      9  C   LIG    1       26.998 -30.198   9.678  0.00  0.00    +0.164 A 
ATOM     10  C   LIG    1       26.464 -31.288   8.981  0.00  0.00    +0.162 A 
ATOM     11  C   LIG    1       25.645 -31.031   7.881  0.00  0.00    +0.062 A 
ATOM     12  C   LIG    1       25.371 -29.708   7.463  0.00  0.00    +0.044 A 
ATOM     13  C   LIG    1       25.924 -28.619   8.130  0.00  0.00    +0.082 A 
ATOM     14  N   LIG    1       25.708 -27.350   7.735  0.00  0.00    -0.214 NA
ATOM     15  C   LIG    1       24.931 -27.134   6.662  0.00  0.00    +0.220 A 
ATOM     16  N   LIG    1       24.337 -28.132   5.993  0.00  0.00    -0.199 NA
ATOM     17  C   LIG    1       24.553 -29.386   6.389  0.00  0.00    +0.129 A 
ATOM     18  C   LIG    1       26.718 -28.889   9.239  0.00  0.00    +0.078 A 
BRANCH  17  19
ATOM     19  N   LIG    1       23.899 -30.360   5.625  0.00  0.00    -0.343 N 
ATOM     20  H   LIG    1       24.365 -31.256   5.712  0.00  0.00    +0.144 HD
ATOM     21  H   LIG    1       22.948 -30.414   5.987  0.00  0.00    +0.144 HD
ENDBRANCH  17  19
BRANCH   9  23
ATOM     22  C   LIG    1       27.936 -29.009  11.524  0.00  0.00    +0.277 C 
ATOM     23  O   LIG    1       27.754 -30.232  10.822  0.00  0.00    -0.491 OA
ENDBRANCH   9  23
BRANCH  10  24
ATOM     24  O   LIG    1       26.670 -32.558   9.445  0.00  0.00    -0.491 OA
ATOM     25  C   LIG    1       27.350 -33.446   8.561  0.00  0.00    +0.277 C 
ENDBRANCH  10  24
ENDBRANCH   1  15
BRANCH   5  26
ATOM     26  C   LIG    1       25.467 -20.622   6.412  0.00  0.00    +0.296 C 
ATOM     27  O   LIG    1       26.503 -21.253   7.176  0.00  0.00    -0.472 OA
ATOM     28  C   LIG    1       27.730 -20.664   6.989  0.00  0.00    +0.163 A 
ATOM     29  C   LIG    1       28.011 -19.770   5.953  0.00  0.00    +0.162 A 
ATOM     30  C   LIG    1       29.288 -19.214   5.824  0.00  0.00    +0.049 A 
ATOM     31  C   LIG    1       30.289 -19.546   6.738  0.00  0.00    +0.004 A 
ATOM     32  C   LIG    1       30.012 -20.435   7.777  0.00  0.00    +0.004 A 
ATOM     33  O   LIG    1       27.078 -19.369   5.037  0.00  0.00    -0.484 OA
ATOM     34  C   LIG    1       28.737 -21.001   7.895  0.00  0.00    +0.049 A 
ATOM     35  C   LIG    1       25.959 -20.262   5.007  0.00  0.00    +0.283 C 
ENDBRANCH   5  26
TORSDOF 5
ENDMDL
MODEL 2
REMARK VINA RESULT:      -7.8      1.440      2.707
REMARK  Name = *****
REMARK                            x       y       z     vdW  Elec       q    Type
REMARK                         _______ _______ _______ _____ _____    ______ ____
ROOT
ATOM      1  N   LIG    1       24.692 -25.842   6.136  0.00  0.00    -0.297 N 
ATOM      2  C   LIG    1       25.898 -25.005   6.282  0.00  0.00    +0.127 C 
ATOM      3  C   LIG    1       25.689 -23.591   5.712  0.00  0.00    +0.127 C 
ATOM      4  N   LIG    1       24.466 -22.962   6.223  0.00  0.00    -0.295 N 
ATOM      5  C   LIG    1       24.282 -21.576   6.276  0.00  0.00    +0.260 C 
ATOM      6  O   LIG    1       23.139 -21.100   6.272  0.00  0.00    -0.271 OA
ATOM      7  C   LIG    1       23.265 -23.809   6.124  0.00  0.00    +0.127 C 
ATOM      8  C   LIG    1       23.469 -25.233   6.685  0.00  0.00    +0.127 C 
ENDROOT
BRANCH   1  15
ATOM      9  C   LIG    1       24.109 -31.850   6.219  0.00  0.00    +0.164 A 
ATOM     10  C   LIG    1       24.911 -32.098   7.338  0.00  0.00    +0.162 A 
ATOM     11  C   LIG    1       25.535 -31.015   7.958  0.00  0.00    +0.062 A 
ATOM     12  C   LIG    1       25.354 -29.695   7.484  0.00  0.00    +0.044 A 
ATOM     13  C   LIG    1       24.532 -29.434   6.392  0.00  0.00    +0.082 A 
ATOM     14  N   LIG    1       24.313 -28.185   5.940  0.00  0.00    -0.214 NA
ATOM     15  C   LIG    1       24.912 -27.160   6.567  0.00  0.00    +0.220 A 
ATOM     16  N   LIG    1       25.744 -27.340   7.602  0.00  0.00    -0.199 NA
ATOM     17  C   LIG    1       25.958 -28.579   8.045  0.00  0.00    +0.129 A 
ATOM     18  C   LIG    1       23.936 -30.526   5.770  0.00  0.00    +0.078 A 
BRANCH  17  19
ATOM     19  N   LIG    1       26.834 -28.666   9.135  0.00  0.00    -0.343 N 
ATOM     20  H   LIG    1       27.189 -29.610   9.234  0.00  0.00    +0.144 HD
ATOM     21  H   LIG    1       27.593 -28.016   8.941  0.00  0.00    +0.144 HD
ENDBRANCH  17  19
BRANCH   9  23
ATOM     22  C   LIG    1       24.267 -33.461   4.465  0.00  0.00    +0.277 C 
ATOM     23  O   LIG    1       23.478 -32.773   5.426  0.00  0.00    -0.491 OA
ENDBRANCH   9  23
BRANCH  10  24
ATOM     24  O   LIG    1       25.144 -33.387   7.735  0.00  0.00    -0.491 OA
ATOM     25  C   LIG    1       26.500 -33.825   7.682  0.00  0.00    +0.277 C 
ENDBRANCH  10  24
ENDBRANCH   1  15
BRANCH   5  26
ATOM     26  C   LIG    1       25.512 -20.650   6.427  0.00  0.00    +0.296 C 
ATOM     27  O   LIG    1       26.526 -21.287   7.213  0.00  0.00    -0.472 OA
ATOM     28  C   LIG    1       27.764 -20.717   7.041  0.00  0.00    +0.163 A 
ATOM     29  C   LIG    1       28.074 -19.835   6.001  0.00  0.00    +0.162 A 
ATOM     30  C   LIG    1       29.360 -19.298   5.889  0.00  0.00    +0.049 A 
ATOM     31  C   LIG    1       30.341 -19.634   6.822  0.00  0.00    +0.004 A 
ATOM     32  C   LIG    1       30.035 -20.509   7.864  0.00  0.00    +0.004 A 
ATOM     33  O   LIG    1       27.161 -19.431   5.067  0.00  0.00    -0.484 OA
ATOM     34  C   LIG    1       28.752 -21.058   7.966  0.00  0.00    +0.049 A 
ATOM     35  C   LIG    1       26.031 -20.310   5.026  0.00  0.00    +0.283 C 
ENDBRANCH   5  26
TORSDOF 5
ENDMDL
MODEL 3
REMARK VINA RESULT:      -7.2      1.919      2.316
REMARK  Name = *****
REMARK                            x       y       z     vdW  Elec       q    Type
REMARK                         _______ _______ _______ _____ _____    ______ ____
ROOT
ATOM      1  N   LIG    1       24.983 -27.012   6.320  0.00  0.00    -0.297 N 
ATOM      2  C   LIG    1       26.222 -26.420   6.856  0.00  0.00    +0.127 C 
ATOM      3  C   LIG    1       26.530 -25.053   6.218  0.00  0.00    +0.127 C 
ATOM      4  N   LIG    1       25.375 -24.150   6.259  0.00  0.00    -0.295 N 
ATOM      5  C   LIG    1       25.491 -22.756   6.214  0.00  0.00    +0.260 C 
ATOM      6  O   LIG    1       24.549 -22.066   5.803  0.00  0.00    -0.271 OA
ATOM      7  C   LIG    1       24.122 -24.749   5.768  0.00  0.00    +0.127 C 
ATOM      8  C   LIG    1       23.811 -26.124   6.396  0.00  0.00    +0.127 C 
ENDROOT
BRANCH   1  15
ATOM      9  C   LIG    1       24.699 -31.405  10.450  0.00  0.00    +0.164 A 
ATOM     10  C   LIG    1       24.339 -32.447   9.588  0.00  0.00    +0.162 A 
ATOM     11  C   LIG    1       24.148 -32.151   8.239  0.00  0.00    +0.062 A 
ATOM     12  C   LIG    1       24.327 -30.839   7.742  0.00  0.00    +0.044 A 
ATOM     13  C   LIG    1       24.716 -29.803   8.585  0.00  0.00    +0.082 A 
ATOM     14  N   LIG    1       24.927 -28.552   8.136  0.00  0.00    -0.214 NA
ATOM     15  C   LIG    1       24.753 -28.300   6.829  0.00  0.00    +0.220 A 
ATOM     16  N   LIG    1       24.345 -29.240   5.965  0.00  0.00    -0.199 NA
ATOM     17  C   LIG    1       24.136 -30.477   6.416  0.00  0.00    +0.129 A 
ATOM     18  C   LIG    1       24.880 -30.108   9.933  0.00  0.00    +0.078 A 
BRANCH  17  19
ATOM     19  N   LIG    1       23.721 -31.392   5.440  0.00  0.00    -0.343 N 
ATOM     20  H   LIG    1       24.500 -31.960   5.128  0.00  0.00    +0.144 HD
ATOM     21  H   LIG    1       23.008 -31.971   5.879  0.00  0.00    +0.144 HD
ENDBRANCH  17  19
BRANCH   9  23
ATOM     22  C   LIG    1       24.271 -30.432  12.588  0.00  0.00    +0.277 C 
ATOM     23  O   LIG    1       24.856 -31.468  11.811  0.00  0.00    -0.491 OA
ENDBRANCH   9  23
BRANCH  10  24
ATOM     24  O   LIG    1       24.090 -33.693  10.095  0.00  0.00    -0.491 OA
ATOM     25  C   LIG    1       22.915 -33.822  10.893  0.00  0.00    +0.277 C 
ENDBRANCH  10  24
ENDBRANCH   1  15
BRANCH   5  26
ATOM     26  C   LIG    1       26.770 -22.081   6.762  0.00  0.00    +0.296 C 
ATOM     27  O   LIG    1       27.229 -21.067   5.858  0.00  0.00    -0.472 OA
ATOM     28  C   LIG    1       28.084 -20.174   6.457  0.00  0.00    +0.163 A 
ATOM     29  C   LIG    1       28.247 -20.064   7.841  0.00  0.00    +0.162 A 
ATOM     30  C   LIG    1       29.133 -19.125   8.377  0.00  0.00    +0.049 A 
ATOM     31  C   LIG    1       29.869 -18.296   7.530  0.00  0.00    +0.004 A 
ATOM     32  C   LIG    1       29.714 -18.406   6.147  0.00  0.00    +0.004 A 
ATOM     33  O   LIG    1       27.588 -20.861   8.737  0.00  0.00    -0.484 OA
ATOM     34  C   LIG    1       28.815 -19.336   5.613  0.00  0.00    +0.049 A 
ATOM     35  C   LIG    1       26.448 -21.489   8.138  0.00  0.00    +0.283 C 
ENDBRANCH   5  26
TORSDOF 5
ENDMDL
MODEL 4
REMARK VINA RESULT:      -6.9      2.732      9.813
REMARK  Name = *****
REMARK                            x       y       z     vdW  Elec       q    Type
REMARK                         _______ _______ _______ _____ _____    ______ ____
ROOT
ATOM      1  N   LIG    1       25.322 -24.232   6.401  0.00  0.00    -0.297 N 
ATOM      2  C   LIG    1       25.934 -25.281   7.236  0.00  0.00    +0.127 C 
ATOM      3  C   LIG    1       25.076 -26.558   7.277  0.00  0.00    +0.127 C 
ATOM      4  N   LIG    1       24.696 -27.014   5.936  0.00  0.00    -0.295 N 
ATOM      5  C   LIG    1       24.363 -28.342   5.644  0.00  0.00    +0.260 C 
ATOM      6  O   LIG    1       23.639 -28.603   4.674  0.00  0.00    -0.271 OA
ATOM      7  C   LIG    1       24.126 -25.961   5.078  0.00  0.00    +0.127 C 
ATOM      8  C   LIG    1       24.976 -24.673   5.039  0.00  0.00    +0.127 C 
ENDROOT
BRANCH   1  15
ATOM      9  C   LIG    1       29.707 -20.431   8.064  0.00  0.00    +0.164 A 
ATOM     10  C   LIG    1       29.252 -19.307   7.366  0.00  0.00    +0.162 A 
ATOM     11  C   LIG    1       28.106 -19.435   6.582  0.00  0.00    +0.062 A 
ATOM     12  C   LIG    1       27.404 -20.661   6.502  0.00  0.00    +0.044 A 
ATOM     13  C   LIG    1       27.830 -21.775   7.218  0.00  0.00    +0.082 A 
ATOM     14  N   LIG    1       27.164 -22.945   7.189  0.00  0.00    -0.214 NA
ATOM     15  C   LIG    1       26.054 -23.034   6.440  0.00  0.00    +0.220 A 
ATOM     16  N   LIG    1       25.605 -22.013   5.697  0.00  0.00    -0.199 NA
ATOM     17  C   LIG    1       26.269 -20.858   5.729  0.00  0.00    +0.129 A 
ATOM     18  C   LIG    1       28.988 -21.640   7.977  0.00  0.00    +0.078 A 
BRANCH  17  19
ATOM     19  N   LIG    1       25.721 -19.848   4.928  0.00  0.00    -0.343 N 
ATOM     20  H   LIG    1       26.437 -19.418   4.354  0.00  0.00    +0.144 HD
ATOM     21  H   LIG    1       25.017 -20.298   4.347  0.00  0.00    +0.144 HD
ENDBRANCH  17  19
BRANCH   9  23
ATOM     22  C   LIG    1       31.321 -21.844   9.111  0.00  0.00    +0.277 C 
ATOM     23  O   LIG    1       30.847 -20.537   8.819  0.00  0.00    -0.491 OA
ENDBRANCH   9  23
BRANCH  10  24
ATOM     24  O   LIG    1       29.985 -18.152   7.386  0.00  0.00    -0.491 OA
ATOM     25  C   LIG    1       30.195 -17.564   8.668  0.00  0.00    +0.277 C 
ENDBRANCH  10  24
ENDBRANCH   1  15
BRANCH   5  26
ATOM     26  C   LIG    1       24.976 -29.483   6.488  0.00  0.00    +0.296 C 
ATOM     27  O   LIG    1       24.002 -30.015   7.395  0.00  0.00    -0.472 OA
ATOM     28  C   LIG    1       24.340 -31.263   7.861  0.00  0.00    +0.163 A 
ATOM     29  C   LIG    1       25.338 -32.059   7.293  0.00  0.00    +0.162 A 
ATOM     30  C   LIG    1       25.622 -33.322   7.820  0.00  0.00    +0.049 A 
ATOM     31  C   LIG    1       24.913 -33.792   8.926  0.00  0.00    +0.004 A 
ATOM     32  C   LIG    1       23.919 -32.999   9.500  0.00  0.00    +0.004 A 
ATOM     33  O   LIG    1       26.099 -31.658   6.230  0.00  0.00    -0.484 OA
ATOM     34  C   LIG    1       23.626 -31.741   8.961  0.00  0.00    +0.049 A 
ATOM     35  C   LIG    1       25.489 -30.565   5.533  0.00  0.00    +0.283 C 
ENDBRANCH   5  26
TORSDOF 5
ENDMDL
MODEL 5
REMARK VINA RESULT:      -6.6      5.239      7.222
REMARK  Name = *****
REMARK                            x       y       z     vdW  Elec       q    Type
REMARK                         _______ _______ _______ _____ _____    ______ ____
ROOT
ATOM      1  N   LIG    1       24.049 -30.884   8.825  0.00  0.00    -0.297 N 
ATOM      2  C   LIG    1       24.165 -29.415   8.890  0.00  0.00    +0.127 C 
ATOM      3  C   LIG    1       25.094 -28.862   7.795  0.00  0.00    +0.127 C 
ATOM      4  N   LIG    1       24.747 -29.370   6.464  0.00  0.00    -0.295 N 
ATOM      5  C   LIG    1       25.070 -28.700   5.279  0.00  0.00    +0.260 C 
ATOM      6  O   LIG    1       25.178 -29.328   4.218  0.00  0.00    -0.271 OA
ATOM      7  C   LIG    1       24.584 -30.833   6.400  0.00  0.00    +0.127 C 
ATOM      8  C   LIG    1       23.661 -31.398   7.501  0.00  0.00    +0.127 C 
ENDROOT
BRANCH   1  15
ATOM      9  C   LIG    1       19.060 -32.421  11.855  0.00  0.00    +0.164 A 
ATOM     10  C   LIG    1       19.683 -32.862  13.028  0.00  0.00    +0.162 A 
ATOM     11  C   LIG    1       21.077 -32.842  13.082  0.00  0.00    +0.062 A 
ATOM     12  C   LIG    1       21.848 -32.375  11.992  0.00  0.00    +0.044 A 
ATOM     13  C   LIG    1       21.236 -31.904  10.834  0.00  0.00    +0.082 A 
ATOM     14  N   LIG    1       21.941 -31.422   9.794  0.00  0.00    -0.214 NA
ATOM     15  C   LIG    1       23.281 -31.398   9.881  0.00  0.00    +0.220 A 
ATOM     16  N   LIG    1       23.939 -31.868  10.951  0.00  0.00    -0.199 NA
ATOM     17  C   LIG    1       23.235 -32.345  11.977  0.00  0.00    +0.129 A 
ATOM     18  C   LIG    1       19.846 -31.952  10.785  0.00  0.00    +0.078 A 
BRANCH  17  19
ATOM     19  N   LIG    1       24.008 -32.804  13.051  0.00  0.00    -0.343 N 
ATOM     20  H   LIG    1       23.479 -33.456  13.620  0.00  0.00    +0.144 HD
ATOM     21  H   LIG    1       24.819 -33.263  12.640  0.00  0.00    +0.144 HD
ENDBRANCH  17  19
BRANCH   9  23
ATOM     22  C   LIG    1       16.942 -31.330  12.019  0.00  0.00    +0.277 C 
ATOM     23  O   LIG    1       17.718 -32.434  11.571  0.00  0.00    -0.491 OA
ENDBRANCH   9  23
BRANCH  10  24
ATOM     24  O   LIG    1       18.930 -33.388  14.041  0.00  0.00    -0.491 OA
ATOM     25  C   LIG    1       18.728 -32.547  15.175  0.00  0.00    +0.277 C 
ENDBRANCH  10  24
ENDBRANCH   1  15
BRANCH   5  26
ATOM     26  C   LIG    1       25.205 -27.159   5.290  0.00  0.00    +0.296 C 
ATOM     27  O   LIG    1       24.044 -26.557   5.876  0.00  0.00    -0.472 OA
ATOM     28  C   LIG    1       24.269 -25.265   6.287  0.00  0.00    +0.163 A 
ATOM     29  C   LIG    1       25.542 -24.703   6.415  0.00  0.00    +0.162 A 
ATOM     30  C   LIG    1       25.691 -23.380   6.844  0.00  0.00    +0.049 A 
ATOM     31  C   LIG    1       24.566 -22.611   7.140  0.00  0.00    +0.004 A 
ATOM     32  C   LIG    1       23.292 -23.167   7.009  0.00  0.00    +0.004 A 
ATOM     33  O   LIG    1       26.692 -25.379   6.113  0.00  0.00    -0.484 OA
ATOM     34  C   LIG    1       23.146 -24.495   6.594  0.00  0.00    +0.049 A 
ATOM     35  C   LIG    1       26.471 -26.793   6.072  0.00  0.00    +0.283 C 
ENDBRANCH   5  26
TORSDOF 5
ENDMDL
MODEL 6
REMARK VINA RESULT:      -6.4      3.299      4.769
REMARK  Name = *****
REMARK                            x       y       z     vdW  Elec       q    Type
REMARK                         _______ _______ _______ _____ _____    ______ ____
ROOT
ATOM      1  N   LIG    1       25.822 -28.943   7.600  0.00  0.00    -0.297 N 
ATOM      2  C   LIG    1       25.607 -27.610   8.194  0.00  0.00    +0.127 C 
ATOM      3  C   LIG    1       26.022 -26.480   7.236  0.00  0.00    +0.127 C 
ATOM      4  N   LIG    1       25.430 -26.637   5.903  0.00  0.00    -0.295 N 
ATOM      5  C   LIG    1       25.229 -25.568   5.023  0.00  0.00    +0.260 C 
ATOM      6  O   LIG    1       25.167 -25.769   3.803  0.00  0.00    -0.271 OA
ATOM      7  C   LIG    1       25.600 -27.980   5.321  0.00  0.00    +0.127 C 
ATOM      8  C   LIG    1       25.195 -29.120   6.280  0.00  0.00    +0.127 C 
ENDROOT
BRANCH   1  15
ATOM      9  C   LIG    1       23.704 -31.510  12.637  0.00  0.00    +0.164 A 
ATOM     10  C   LIG    1       24.150 -32.812  12.383  0.00  0.00    +0.162 A 
ATOM     11  C   LIG    1       24.814 -33.060  11.181  0.00  0.00    +0.062 A 
ATOM     12  C   LIG    1       25.049 -32.026  10.245  0.00  0.00    +0.044 A 
ATOM     13  C   LIG    1       24.639 -30.721  10.503  0.00  0.00    +0.082 A 
ATOM     14  N   LIG    1       24.879 -29.710   9.648  0.00  0.00    -0.214 NA
ATOM     15  C   LIG    1       25.536 -29.975   8.508  0.00  0.00    +0.220 A 
ATOM     16  N   LIG    1       25.929 -31.213   8.177  0.00  0.00    -0.199 NA
ATOM     17  C   LIG    1       25.687 -32.210   9.027  0.00  0.00    +0.129 A 
ATOM     18  C   LIG    1       23.958 -30.493  11.695  0.00  0.00    +0.078 A 
BRANCH  17  19
ATOM     19  N   LIG    1       26.143 -33.464   8.600  0.00  0.00    -0.343 N 
ATOM     20  H   LIG    1       27.151 -33.526   8.685  0.00  0.00    +0.144 HD
ATOM     21  H   LIG    1       25.690 -34.150   9.201  0.00  0.00    +0.144 HD
ENDBRANCH  17  19
BRANCH   9  23
ATOM     22  C   LIG    1       23.558 -30.096  14.555  0.00  0.00    +0.277 C 
ATOM     23  O   LIG    1       22.970 -31.076  13.711  0.00  0.00    -0.491 OA
ENDBRANCH   9  23
BRANCH  10  24
ATOM     24  O   LIG    1       23.843 -33.818  13.257  0.00  0.00    -0.491 OA
ATOM     25  C   LIG    1       24.568 -33.825  14.485  0.00  0.00    +0.277 C 
ENDBRANCH  10  24
ENDBRANCH   1  15
BRANCH   5  26
ATOM     26  C   LIG    1       24.999 -24.148   5.591  0.00  0.00    +0.296 C 
ATOM     27  O   LIG    1       24.822 -23.204   4.527  0.00  0.00    -0.472 OA
ATOM     28  C   LIG    1       24.217 -22.043   4.945  0.00  0.00    +0.163 A 
ATOM     29  C   LIG    1       23.566 -21.908   6.174  0.00  0.00    +0.162 A 
ATOM     30  C   LIG    1       22.969 -20.694   6.529  0.00  0.00    +0.049 A 
ATOM     31  C   LIG    1       23.027 -19.607   5.657  0.00  0.00    +0.004 A 
ATOM     32  C   LIG    1       23.680 -19.736   4.431  0.00  0.00    +0.004 A 
ATOM     33  O   LIG    1       23.494 -22.915   7.097  0.00  0.00    -0.484 OA
ATOM     34  C   LIG    1       24.265 -20.955   4.072  0.00  0.00    +0.049 A 
ATOM     35  C   LIG    1       23.769 -24.189   6.503  0.00  0.00    +0.283 C 
ENDBRANCH   5  26
TORSDOF 5
ENDMDL
MODEL 7
REMARK VINA RESULT:      -6.0      3.056     10.296
REMARK  Name = *****
REMARK                            x       y       z     vdW  Elec       q    Type
REMARK                         _______ _______ _______ _____ _____    ______ ____
ROOT
ATOM      1  N   LIG    1       25.802 -27.935   7.489  0.00  0.00    -0.297 N 
ATOM      2  C   LIG    1       24.536 -28.682   7.593  0.00  0.00    +0.127 C 
ATOM      3  C   LIG    1       24.746 -30.096   8.162  0.00  0.00    +0.127 C 
ATOM      4  N   LIG    1       25.529 -30.084   9.401  0.00  0.00    -0.295 N 
ATOM      5  C   LIG    1       25.461 -31.100  10.361  0.00  0.00    +0.260 C 
ATOM      6  O   LIG    1       26.412 -31.296  11.129  0.00  0.00    -0.271 OA
ATOM      7  C   LIG    1       26.775 -29.301   9.321  0.00  0.00    +0.127 C 
ATOM      8  C   LIG    1       26.574 -27.884   8.742  0.00  0.00    +0.127 C 
ENDROOT
BRANCH   1  15
ATOM      9  C   LIG    1       25.487 -21.919   7.106  0.00  0.00    +0.164 A 
ATOM     10  C   LIG    1       25.112 -21.838   5.760  0.00  0.00    +0.162 A 
ATOM     11  C   LIG    1       24.994 -23.024   5.036  0.00  0.00    +0.062 A 
ATOM     12  C   LIG    1       25.228 -24.281   5.641  0.00  0.00    +0.044 A 
ATOM     13  C   LIG    1       25.569 -24.373   6.987  0.00  0.00    +0.082 A 
ATOM     14  N   LIG    1       25.765 -25.556   7.598  0.00  0.00    -0.214 NA
ATOM     15  C   LIG    1       25.626 -26.682   6.881  0.00  0.00    +0.220 A 
ATOM     16  N   LIG    1       25.334 -26.668   5.573  0.00  0.00    -0.199 NA
ATOM     17  C   LIG    1       25.143 -25.493   4.972  0.00  0.00    +0.129 A 
ATOM     18  C   LIG    1       25.707 -23.181   7.691  0.00  0.00    +0.078 A 
BRANCH  17  19
ATOM     19  N   LIG    1       24.834 -25.580   3.608  0.00  0.00    -0.343 N 
ATOM     20  H   LIG    1       24.144 -24.882   3.353  0.00  0.00    +0.144 HD
ATOM     21  H   LIG    1       25.707 -25.419   3.109  0.00  0.00    +0.144 HD
ENDBRANCH  17  19
BRANCH   9  23
ATOM     22  C   LIG    1       27.068 -20.395   8.044  0.00  0.00    +0.277 C 
ATOM     23  O   LIG    1       25.733 -20.878   7.965  0.00  0.00    -0.491 OA
ENDBRANCH   9  23
BRANCH  10  24
ATOM     24  O   LIG    1       24.969 -20.614   5.167  0.00  0.00    -0.491 OA
ATOM     25  C   LIG    1       24.321 -20.604   3.897  0.00  0.00    +0.277 C 
ENDBRANCH  10  24
ENDBRANCH   1  15
BRANCH   5  26
ATOM     26  C   LIG    1       24.156 -31.917  10.513  0.00  0.00    +0.296 C 
ATOM     27  O   LIG    1       23.021 -31.044  10.566  0.00  0.00    -0.472 OA
ATOM     28  C   LIG    1       21.842 -31.692  10.287  0.00  0.00    +0.163 A 
ATOM     29  C   LIG    1       21.774 -32.964   9.711  0.00  0.00    +0.162 A 
ATOM     30  C   LIG    1       20.535 -33.558   9.451  0.00  0.00    +0.049 A 
ATOM     31  C   LIG    1       19.357 -32.884   9.773  0.00  0.00    +0.004 A 
ATOM     32  C   LIG    1       19.419 -31.617  10.352  0.00  0.00    +0.004 A 
ATOM     33  O   LIG    1       22.882 -33.703   9.397  0.00  0.00    -0.484 OA
ATOM     34  C   LIG    1       20.660 -31.018  10.598  0.00  0.00    +0.049 A 
ATOM     35  C   LIG    1       24.054 -32.882   9.328  0.00  0.00    +0.283 C 
ENDBRANCH   5  26
TORSDOF 5
ENDMDL
MODEL 8
REMARK VINA RESULT:      -6.0      4.321      6.024
REMARK  Name = *****
REMARK                            x       y       z     vdW  Elec       q    Type
REMARK                         _______ _______ _______ _____ _____    ______ ____
ROOT
ATOM      1  N   LIG    1       24.802 -30.007   7.954  0.00  0.00    -0.297 N 
ATOM      2  C   LIG    1       24.787 -28.587   8.352  0.00  0.00    +0.127 C 
ATOM      3  C   LIG    1       25.605 -27.710   7.388  0.00  0.00    +0.127 C 
ATOM      4  N   LIG    1       25.237 -27.935   5.986  0.00  0.00    -0.295 N 
ATOM      5  C   LIG    1       25.437 -26.985   4.979  0.00  0.00    +0.260 C 
ATOM      6  O   LIG    1       25.547 -27.342   3.799  0.00  0.00    -0.271 OA
ATOM      7  C   LIG    1       25.204 -29.354   5.591  0.00  0.00    +0.127 C 
ATOM      8  C   LIG    1       24.394 -30.243   6.559  0.00  0.00    +0.127 C 
ENDROOT
BRANCH   1  15
ATOM      9  C   LIG    1       20.371 -31.778  11.651  0.00  0.00    +0.164 A 
ATOM     10  C   LIG    1       21.012 -32.903  12.182  0.00  0.00    +0.162 A 
ATOM     11  C   LIG    1       22.283 -33.224  11.708  0.00  0.00    +0.062 A 
ATOM     12  C   LIG    1       22.924 -32.430  10.728  0.00  0.00    +0.044 A 
ATOM     13  C   LIG    1       22.308 -31.291  10.218  0.00  0.00    +0.082 A 
ATOM     14  N   LIG    1       22.906 -30.498   9.310  0.00  0.00    -0.214 NA
ATOM     15  C   LIG    1       24.138 -30.821   8.885  0.00  0.00    +0.220 A 
ATOM     16  N   LIG    1       24.776 -31.922   9.306  0.00  0.00    -0.199 NA
ATOM     17  C   LIG    1       24.178 -32.705  10.204  0.00  0.00    +0.129 A 
ATOM     18  C   LIG    1       21.031 -30.996  10.682  0.00  0.00    +0.078 A 
BRANCH  17  19
ATOM     19  N   LIG    1       24.926 -33.825  10.590  0.00  0.00    -0.343 N 
ATOM     20  H   LIG    1       25.206 -33.750  11.561  0.00  0.00    +0.144 HD
ATOM     21  H   LIG    1       24.319 -34.631  10.453  0.00  0.00    +0.144 HD
ENDBRANCH  17  19
BRANCH   9  23
ATOM     22  C   LIG    1       18.043 -31.864  11.129  0.00  0.00    +0.277 C 
ATOM     23  O   LIG    1       19.100 -31.339  11.921  0.00  0.00    -0.491 OA
ENDBRANCH   9  23
BRANCH  10  24
ATOM     24  O   LIG    1       20.348 -33.707  13.068  0.00  0.00    -0.491 OA
ATOM     25  C   LIG    1       20.759 -33.614  14.430  0.00  0.00    +0.277 C 
ENDBRANCH  10  24
ENDBRANCH   1  15
BRANCH   5  26
ATOM     26  C   LIG    1       25.432 -25.481   5.341  0.00  0.00    +0.296 C 
ATOM     27  O   LIG    1       24.113 -25.056   5.704  0.00  0.00    -0.472 OA
ATOM     28  C   LIG    1       24.113 -23.880   6.415  0.00  0.00    +0.163 A 
ATOM     29  C   LIG    1       25.258 -23.324   6.993  0.00  0.00    +0.162 A 
ATOM     30  C   LIG    1       25.179 -22.125   7.708  0.00  0.00    +0.049 A 
ATOM     31  C   LIG    1       23.953 -21.472   7.842  0.00  0.00    +0.004 A 
ATOM     32  C   LIG    1       22.808 -22.021   7.263  0.00  0.00    +0.004 A 
ATOM     33  O   LIG    1       26.500 -23.884   6.879  0.00  0.00    -0.484 OA
ATOM     34  C   LIG    1       22.887 -23.229   6.561  0.00  0.00    +0.049 A 
ATOM     35  C   LIG    1       26.419 -25.261   6.491  0.00  0.00    +0.283 C 
ENDBRANCH   5  26
TORSDOF 5
ENDMDL
MODEL 9
REMARK VINA RESULT:      -5.9      3.185      4.754
REMARK  Name = *****
REMARK                            x       y       z     vdW  Elec       q    Type
REMARK                         _______ _______ _______ _____ _____    ______ ____
ROOT
ATOM      1  N   LIG    1       26.123 -27.831   7.590  0.00  0.00    -0.297 N 
ATOM      2  C   LIG    1       25.856 -26.471   8.091  0.00  0.00    +0.127 C 
ATOM      3  C   LIG    1       26.091 -25.402   7.009  0.00  0.00    +0.127 C 
ATOM      4  N   LIG    1       25.396 -25.719   5.757  0.00  0.00    -0.295 N 
ATOM      5  C   LIG    1       25.032 -24.750   4.815  0.00  0.00    +0.260 C 
ATOM      6  O   LIG    1       24.877 -25.063   3.628  0.00  0.00    -0.271 OA
ATOM      7  C   LIG    1       25.621 -27.092   5.273  0.00  0.00    +0.127 C 
ATOM      8  C   LIG    1       25.397 -28.170   6.355  0.00  0.00    +0.127 C 
ENDROOT
BRANCH   1  15
ATOM      9  C   LIG    1       23.678 -32.424  10.651  0.00  0.00    +0.164 A 
ATOM     10  C   LIG    1       24.599 -32.455  11.704  0.00  0.00    +0.162 A 
ATOM     11  C   LIG    1       25.665 -31.556  11.677  0.00  0.00    +0.062 A 
ATOM     12  C   LIG    1       25.811 -30.623  10.625  0.00  0.00    +0.044 A 
ATOM     13  C   LIG    1       24.883 -30.562   9.590  0.00  0.00    +0.082 A 
ATOM     14  N   LIG    1       24.977 -29.662   8.593  0.00  0.00    -0.214 NA
ATOM     15  C   LIG    1       26.003 -28.797   8.602  0.00  0.00    +0.220 A 
ATOM     16  N   LIG    1       26.953 -28.821   9.547  0.00  0.00    -0.199 NA
ATOM     17  C   LIG    1       26.856 -29.715  10.531  0.00  0.00    +0.129 A 
ATOM     18  C   LIG    1       23.838 -31.480   9.617  0.00  0.00    +0.078 A 
BRANCH  17  19
ATOM     19  N   LIG    1       27.888 -29.657  11.476  0.00  0.00    -0.343 N 
ATOM     20  H   LIG    1       27.688 -28.959  12.182  0.00  0.00    +0.144 HD
ATOM     21  H   LIG    1       27.943 -30.584  11.893  0.00  0.00    +0.144 HD
ENDBRANCH  17  19
BRANCH   9  23
ATOM     22  C   LIG    1       21.394 -32.688  10.011  0.00  0.00    +0.277 C 
ATOM     23  O   LIG    1       22.615 -33.267  10.449  0.00  0.00    -0.491 OA
ENDBRANCH   9  23
BRANCH  10  24
ATOM     24  O   LIG    1       24.492 -33.417  12.672  0.00  0.00    -0.491 OA
ATOM     25  C   LIG    1       24.745 -32.993  14.009  0.00  0.00    +0.277 C 
ENDBRANCH  10  24
ENDBRANCH   1  15
BRANCH   5  26
ATOM     26  C   LIG    1       24.741 -23.305   5.285  0.00  0.00    +0.296 C 
ATOM     27  O   LIG    1       24.636 -22.423   4.161  0.00  0.00    -0.472 OA
ATOM     28  C   LIG    1       23.986 -21.252   4.467  0.00  0.00    +0.163 A 
ATOM     29  C   LIG    1       23.239 -21.061   5.633  0.00  0.00    +0.162 A 
ATOM     30  C   LIG    1       22.601 -19.841   5.873  0.00  0.00    +0.049 A 
ATOM     31  C   LIG    1       22.714 -18.801   4.950  0.00  0.00    +0.004 A 
ATOM     32  C   LIG    1       23.463 -18.984   3.787  0.00  0.00    +0.004 A 
ATOM     33  O   LIG    1       23.107 -22.019   6.601  0.00  0.00    -0.484 OA
ATOM     34  C   LIG    1       24.088 -20.212   3.542  0.00  0.00    +0.049 A 
ATOM     35  C   LIG    1       23.444 -23.318   6.100  0.00  0.00    +0.283 C 
ENDBRANCH   5  26
TORSDOF 5
ENDMDL
