MODEL 1
REMARK VINA RESULT:      -7.8      0.000      0.000
REMARK  Name = *****
REMARK                            x       y       z     vdW  Elec       q    Type
REMARK                         _______ _______ _______ _____ _____    ______ ____
ROOT
ATOM      1  C   LIG    1       26.950 -21.219   6.648  0.00  0.00    +0.015 C 
ATOM      2  C   LIG    1       26.597 -22.428   7.120  0.00  0.00    +0.092 C 
ENDROOT
BRANCH   1   6
ATOM      3  C   LIG    1       30.735 -19.304   7.266  0.00  0.00    +0.120 A 
ATOM      4  C   LIG    1       29.849 -18.851   6.288  0.00  0.00    +0.046 A 
ATOM      5  C   LIG    1       28.616 -19.481   6.102  0.00  0.00    +0.011 A 
ATOM      6  C   LIG    1       28.250 -20.578   6.891  0.00  0.00    -0.025 A 
ATOM      7  C   LIG    1       29.154 -21.032   7.860  0.00  0.00    +0.011 A 
ATOM      8  C   LIG    1       30.384 -20.400   8.047  0.00  0.00    +0.046 A 
BRANCH   3  10
ATOM      9  C   LIG    1       32.004 -17.919   8.689  0.00  0.00    +0.277 C 
ATOM     10  O   LIG    1       31.958 -18.759   7.543  0.00  0.00    -0.495 OA
ENDBRANCH   3  10
ENDBRANCH   1   6
BRANCH   2  11
ATOM     11  C   LIG    1       25.305 -23.014   6.757  0.00  0.00    +0.332 C 
ATOM     12  O   LIG    1       25.143 -23.883   5.910  0.00  0.00    -0.246 OA
BRANCH  11  13
ATOM     13  O   LIG    1       24.352 -22.442   7.526  0.00  0.00    -0.462 OA
BRANCH  13  14
ATOM     14  C   LIG    1       23.151 -22.058   6.837  0.00  0.00    +0.232 C 
BRANCH  14  15
ATOM     15  C   LIG    1       23.198 -20.571   6.478  0.00  0.00    +0.044 C 
BRANCH  15  16
ATOM     16  C   LIG    1       22.942 -20.300   4.985  0.00  0.00    -0.014 C 
ATOM     17  C   LIG    1       24.225 -20.489   4.170  0.00  0.00    +0.007 C 
ATOM     18  C   LIG    1       22.365 -18.905   4.733  0.00  0.00    +0.007 C 
ENDBRANCH  15  16
ENDBRANCH  14  15
ENDBRANCH  13  14
ENDBRANCH  11  13
ENDBRANCH   2  11
TORSDOF 7
ENDMDL
MODEL 2
REMARK VINA RESULT:      -7.8      1.641      3.092
REMARK  Name = *****
REMARK                            x       y       z     vdW  Elec       q    Type
REMARK                         _______ _______ _______ _____ _____    ______ ____
ROOT
ATOM      1  C   LIG    1       26.448 -20.270   5.471  0.00  0.00    +0.015 C 
ATOM      2  C   LIG    1       25.332 -20.637   6.125  0.00  0.00    +0.092 C 
ENDROOT
BRANCH   1   6
ATOM      3  C   LIG    1       30.280 -19.951   7.366  0.00  0.00    +0.120 A 
ATOM      4  C   LIG    1       29.371 -20.941   7.740  0.00  0.00    +0.046 A 
ATOM      5  C   LIG    1       28.128 -21.037   7.109  0.00  0.00    +0.011 A 
ATOM      6  C   LIG    1       27.772 -20.141   6.094  0.00  0.00    -0.025 A 
ATOM      7  C   LIG    1       28.688 -19.143   5.737  0.00  0.00    +0.011 A 
ATOM      8  C   LIG    1       29.931 -19.049   6.366  0.00  0.00    +0.046 A 
BRANCH   3  10
ATOM      9  C   LIG    1       31.783 -18.471   8.415  0.00  0.00    +0.277 C 
ATOM     10  O   LIG    1       31.525 -19.771   7.903  0.00  0.00    -0.495 OA
ENDBRANCH   3  10
ENDBRANCH   1   6
BRANCH   2  11
ATOM     11  C   LIG    1       24.072 -20.812   5.397  0.00  0.00    +0.332 C 
ATOM     12  O   LIG    1       23.914 -20.576   4.206  0.00  0.00    -0.246 OA
BRANCH  11  13
ATOM     13  O   LIG    1       23.149 -21.290   6.261  0.00  0.00    -0.462 OA
BRANCH  13  14
ATOM     14  C   LIG    1       23.637 -22.241   7.221  0.00  0.00    +0.232 C 
BRANCH  14  15
ATOM     15  C   LIG    1       23.291 -23.665   6.779  0.00  0.00    +0.044 C 
BRANCH  15  16
ATOM     16  C   LIG    1       24.490 -24.421   6.179  0.00  0.00    -0.014 C 
ATOM     17  C   LIG    1       24.184 -25.917   6.061  0.00  0.00    +0.007 C 
ATOM     18  C   LIG    1       25.775 -24.213   6.982  0.00  0.00    +0.007 C 
ENDBRANCH  15  16
ENDBRANCH  14  15
ENDBRANCH  13  14
ENDBRANCH  11  13
ENDBRANCH   2  11
TORSDOF 7
ENDMDL
MODEL 3
REMARK VINA RESULT:      -7.7      1.504      2.752
REMARK  Name = *****
REMARK                            x       y       z     vdW  Elec       q    Type
REMARK                         _______ _______ _______ _____ _____    ______ ____
ROOT
ATOM      1  C   LIG    1       26.577 -20.551   6.060  0.00  0.00    +0.015 C 
ATOM      2  C   LIG    1       25.950 -20.072   4.971  0.00  0.00    +0.092 C 
ENDROOT
BRANCH   1   6
ATOM      3  C   LIG    1       30.583 -19.462   7.128  0.00  0.00    +0.120 A 
ATOM      4  C   LIG    1       29.929 -18.847   6.061  0.00  0.00    +0.046 A 
ATOM      5  C   LIG    1       28.621 -19.207   5.728  0.00  0.00    +0.011 A 
ATOM      6  C   LIG    1       27.945 -20.193   6.457  0.00  0.00    -0.025 A 
ATOM      7  C   LIG    1       28.618 -20.814   7.517  0.00  0.00    +0.011 A 
ATOM      8  C   LIG    1       29.924 -20.452   7.851  0.00  0.00    +0.046 A 
BRANCH   3  10
ATOM      9  C   LIG    1       31.948 -18.246   8.615  0.00  0.00    +0.277 C 
ATOM     10  O   LIG    1       31.853 -19.182   7.549  0.00  0.00    -0.495 OA
ENDBRANCH   3  10
ENDBRANCH   1   6
BRANCH   2  11
ATOM     11  C   LIG    1       24.555 -20.430   4.704  0.00  0.00    +0.332 C 
ATOM     12  O   LIG    1       24.074 -20.591   3.590  0.00  0.00    -0.246 OA
BRANCH  11  13
ATOM     13  O   LIG    1       23.920 -20.564   5.889  0.00  0.00    -0.462 OA
BRANCH  13  14
ATOM     14  C   LIG    1       22.961 -21.631   5.959  0.00  0.00    +0.232 C 
BRANCH  14  15
ATOM     15  C   LIG    1       23.406 -22.678   6.983  0.00  0.00    +0.044 C 
BRANCH  15  16
ATOM     16  C   LIG    1       24.451 -23.663   6.428  0.00  0.00    -0.014 C 
ATOM     17  C   LIG    1       23.872 -25.079   6.346  0.00  0.00    +0.007 C 
ATOM     18  C   LIG    1       25.741 -23.673   7.251  0.00  0.00    +0.007 C 
ENDBRANCH  15  16
ENDBRANCH  14  15
ENDBRANCH  13  14
ENDBRANCH  11  13
ENDBRANCH   2  11
TORSDOF 7
ENDMDL
MODEL 4
REMARK VINA RESULT:      -7.6      1.710      7.364
REMARK  Name = *****
REMARK                            x       y       z     vdW  Elec       q    Type
REMARK                         _______ _______ _______ _____ _____    ______ ____
ROOT
ATOM      1  C   LIG    1       28.861 -20.143   7.539  0.00  0.00    +0.015 C 
ATOM      2  C   LIG    1       29.675 -21.028   8.143  0.00  0.00    +0.092 C 
ENDROOT
BRANCH   1   6
ATOM      3  C   LIG    1       24.677 -20.826   6.908  0.00  0.00    +0.120 A 
ATOM      4  C   LIG    1       25.224 -20.836   8.192  0.00  0.00    +0.046 A 
ATOM      5  C   LIG    1       26.588 -20.605   8.383  0.00  0.00    +0.011 A 
ATOM      6  C   LIG    1       27.430 -20.364   7.291  0.00  0.00    -0.025 A 
ATOM      7  C   LIG    1       26.872 -20.370   6.006  0.00  0.00    +0.011 A 
ATOM      8  C   LIG    1       25.508 -20.598   5.817  0.00  0.00    +0.046 A 
BRANCH   3  10
ATOM      9  C   LIG    1       22.878 -20.306   5.478  0.00  0.00    +0.277 C 
ATOM     10  O   LIG    1       23.359 -21.026   6.605  0.00  0.00    -0.495 OA
ENDBRANCH   3  10
ENDBRANCH   1   6
BRANCH   2  11
ATOM     11  C   LIG    1       31.072 -20.681   8.414  0.00  0.00    +0.332 C 
ATOM     12  O   LIG    1       31.801 -21.273   9.199  0.00  0.00    -0.246 OA
BRANCH  11  13
ATOM     13  O   LIG    1       31.401 -19.623   7.640  0.00  0.00    -0.462 OA
BRANCH  13  14
ATOM     14  C   LIG    1       31.884 -18.468   8.345  0.00  0.00    +0.232 C 
BRANCH  14  15
ATOM     15  C   LIG    1       30.715 -17.563   8.743  0.00  0.00    +0.044 C 
BRANCH  15  16
ATOM     16  C   LIG    1       30.993 -16.736  10.010  0.00  0.00    -0.014 C 
ATOM     17  C   LIG    1       32.408 -16.150   9.976  0.00  0.00    +0.007 C 
ATOM     18  C   LIG    1       30.794 -17.545  11.294  0.00  0.00    +0.007 C 
ENDBRANCH  15  16
ENDBRANCH  14  15
ENDBRANCH  13  14
ENDBRANCH  11  13
ENDBRANCH   2  11
TORSDOF 7
ENDMDL
MODEL 5
REMARK VINA RESULT:      -7.3      1.809      7.335
REMARK  Name = *****
REMARK                            x       y       z     vdW  Elec       q    Type
REMARK                         _______ _______ _______ _____ _____    ______ ____
ROOT
ATOM      1  C   LIG    1       27.477 -20.889   7.835  0.00  0.00    +0.015 C 
ATOM      2  C   LIG    1       28.670 -20.605   7.283  0.00  0.00    +0.092 C 
ENDROOT
BRANCH   1   6
ATOM      3  C   LIG    1       23.762 -20.459   5.738  0.00  0.00    +0.120 A 
ATOM      4  C   LIG    1       24.984 -20.308   5.081  0.00  0.00    +0.046 A 
ATOM      5  C   LIG    1       26.186 -20.458   5.775  0.00  0.00    +0.011 A 
ATOM      6  C   LIG    1       26.187 -20.758   7.143  0.00  0.00    -0.025 A 
ATOM      7  C   LIG    1       24.955 -20.893   7.795  0.00  0.00    +0.011 A 
ATOM      8  C   LIG    1       23.754 -20.746   7.100  0.00  0.00    +0.046 A 
BRANCH   3  10
ATOM      9  C   LIG    1       22.229 -19.072   4.608  0.00  0.00    +0.277 C 
ATOM     10  O   LIG    1       22.529 -20.348   5.159  0.00  0.00    -0.495 OA
ENDBRANCH   3  10
ENDBRANCH   1   6
BRANCH   2  11
ATOM     11  C   LIG    1       29.906 -20.844   8.032  0.00  0.00    +0.332 C 
ATOM     12  O   LIG    1       30.011 -21.605   8.986  0.00  0.00    -0.246 OA
BRANCH  11  13
ATOM     13  O   LIG    1       30.887 -20.100   7.475  0.00  0.00    -0.462 OA
BRANCH  13  14
ATOM     14  C   LIG    1       30.761 -18.680   7.654  0.00  0.00    +0.232 C 
BRANCH  14  15
ATOM     15  C   LIG    1       31.892 -18.156   8.543  0.00  0.00    +0.044 C 
BRANCH  15  16
ATOM     16  C   LIG    1       31.463 -16.981   9.441  0.00  0.00    -0.014 C 
ATOM     17  C   LIG    1       32.649 -16.461  10.258  0.00  0.00    +0.007 C 
ATOM     18  C   LIG    1       30.307 -17.349  10.374  0.00  0.00    +0.007 C 
ENDBRANCH  15  16
ENDBRANCH  14  15
ENDBRANCH  13  14
ENDBRANCH  11  13
ENDBRANCH   2  11
TORSDOF 7
ENDMDL
MODEL 6
REMARK VINA RESULT:      -7.2      1.936      3.466
REMARK  Name = *****
REMARK                            x       y       z     vdW  Elec       q    Type
REMARK                         _______ _______ _______ _____ _____    ______ ____
ROOT
ATOM      1  C   LIG    1       26.685 -21.420   6.797  0.00  0.00    +0.015 C 
ATOM      2  C   LIG    1       25.702 -21.364   7.713  0.00  0.00    +0.092 C 
ENDROOT
BRANCH   1   6
ATOM      3  C   LIG    1       30.505 -19.507   7.144  0.00  0.00    +0.120 A 
ATOM      4  C   LIG    1       29.557 -19.062   6.222  0.00  0.00    +0.046 A 
ATOM      5  C   LIG    1       28.314 -19.691   6.125  0.00  0.00    +0.011 A 
ATOM      6  C   LIG    1       27.999 -20.780   6.947  0.00  0.00    -0.025 A 
ATOM      7  C   LIG    1       28.964 -21.226   7.858  0.00  0.00    +0.011 A 
ATOM      8  C   LIG    1       30.205 -20.596   7.957  0.00  0.00    +0.046 A 
BRANCH   3  10
ATOM      9  C   LIG    1       31.879 -18.146   8.489  0.00  0.00    +0.277 C 
ATOM     10  O   LIG    1       31.745 -18.962   7.334  0.00  0.00    -0.495 OA
ENDBRANCH   3  10
ENDBRANCH   1   6
BRANCH   2  11
ATOM     11  C   LIG    1       24.454 -22.102   7.503  0.00  0.00    +0.332 C 
ATOM     12  O   LIG    1       23.337 -21.680   7.772  0.00  0.00    -0.246 OA
BRANCH  11  13
ATOM     13  O   LIG    1       24.760 -23.299   6.954  0.00  0.00    -0.462 OA
BRANCH  13  14
ATOM     14  C   LIG    1       23.642 -24.165   6.701  0.00  0.00    +0.232 C 
BRANCH  14  15
ATOM     15  C   LIG    1       24.059 -25.312   5.776  0.00  0.00    +0.044 C 
BRANCH  15  16
ATOM     16  C   LIG    1       24.940 -26.363   6.474  0.00  0.00    -0.014 C 
ATOM     17  C   LIG    1       26.402 -26.223   6.037  0.00  0.00    +0.007 C 
ATOM     18  C   LIG    1       24.456 -27.793   6.225  0.00  0.00    +0.007 C 
ENDBRANCH  15  16
ENDBRANCH  14  15
ENDBRANCH  13  14
ENDBRANCH  11  13
ENDBRANCH   2  11
TORSDOF 7
ENDMDL
MODEL 7
REMARK VINA RESULT:      -7.2      1.871      7.748
REMARK  Name = *****
REMARK                            x       y       z     vdW  Elec       q    Type
REMARK                         _______ _______ _______ _____ _____    ______ ____
ROOT
ATOM      1  C   LIG    1       29.094 -20.002   6.815  0.00  0.00    +0.015 C 
ATOM      2  C   LIG    1       29.913 -19.541   7.777  0.00  0.00    +0.092 C 
ENDROOT
BRANCH   1   6
ATOM      3  C   LIG    1       24.919 -20.755   7.433  0.00  0.00    +0.120 A 
ATOM      4  C   LIG    1       25.803 -20.666   8.509  0.00  0.00    +0.046 A 
ATOM      5  C   LIG    1       27.160 -20.413   8.293  0.00  0.00    +0.011 A 
ATOM      6  C   LIG    1       27.657 -20.249   6.994  0.00  0.00    -0.025 A 
ATOM      7  C   LIG    1       26.762 -20.355   5.922  0.00  0.00    +0.011 A 
ATOM      8  C   LIG    1       25.406 -20.605   6.138  0.00  0.00    +0.046 A 
BRANCH   3  10
ATOM      9  C   LIG    1       22.925 -21.296   6.301  0.00  0.00    +0.277 C 
ATOM     10  O   LIG    1       23.575 -20.985   7.527  0.00  0.00    -0.495 OA
ENDBRANCH   3  10
ENDBRANCH   1   6
BRANCH   2  11
ATOM     11  C   LIG    1       31.318 -19.253   7.475  0.00  0.00    +0.332 C 
ATOM     12  O   LIG    1       31.826 -19.331   6.364  0.00  0.00    -0.246 OA
BRANCH  11  13
ATOM     13  O   LIG    1       31.926 -18.877   8.622  0.00  0.00    -0.462 OA
BRANCH  13  14
ATOM     14  C   LIG    1       31.929 -17.465   8.884  0.00  0.00    +0.232 C 
BRANCH  14  15
ATOM     15  C   LIG    1       32.570 -17.179  10.245  0.00  0.00    +0.044 C 
BRANCH  15  16
ATOM     16  C   LIG    1       31.578 -17.284  11.417  0.00  0.00    -0.014 C 
ATOM     17  C   LIG    1       30.138 -17.366  10.903  0.00  0.00    +0.007 C 
ATOM     18  C   LIG    1       31.714 -16.124  12.405  0.00  0.00    +0.007 C 
ENDBRANCH  15  16
ENDBRANCH  14  15
ENDBRANCH  13  14
ENDBRANCH  11  13
ENDBRANCH   2  11
TORSDOF 7
ENDMDL
MODEL 8
REMARK VINA RESULT:      -7.2      3.756      6.656
REMARK  Name = *****
REMARK                            x       y       z     vdW  Elec       q    Type
REMARK                         _______ _______ _______ _____ _____    ______ ____
ROOT
ATOM      1  C   LIG    1       25.914 -23.670   7.298  0.00  0.00    +0.015 C 
ATOM      2  C   LIG    1       25.038 -22.739   7.713  0.00  0.00    +0.092 C 
ENDROOT
BRANCH   1   6
ATOM      3  C   LIG    1       24.724 -27.418   5.590  0.00  0.00    +0.120 A 
ATOM      4  C   LIG    1       24.023 -26.244   5.313  0.00  0.00    +0.046 A 
ATOM      5  C   LIG    1       24.426 -25.028   5.872  0.00  0.00    +0.011 A 
ATOM      6  C   LIG    1       25.537 -24.968   6.721  0.00  0.00    -0.025 A 
ATOM      7  C   LIG    1       26.225 -26.156   7.003  0.00  0.00    +0.011 A 
ATOM      8  C   LIG    1       25.823 -27.369   6.442  0.00  0.00    +0.046 A 
BRANCH   3  10
ATOM      9  C   LIG    1       24.118 -29.645   6.065  0.00  0.00    +0.277 C 
ATOM     10  O   LIG    1       24.428 -28.656   5.092  0.00  0.00    -0.495 OA
ENDBRANCH   3  10
ENDBRANCH   1   6
BRANCH   2  11
ATOM     11  C   LIG    1       25.514 -21.442   8.203  0.00  0.00    +0.332 C 
ATOM     12  O   LIG    1       26.523 -21.276   8.876  0.00  0.00    -0.246 OA
BRANCH  11  13
ATOM     13  O   LIG    1       24.662 -20.488   7.767  0.00  0.00    -0.462 OA
BRANCH  13  14
ATOM     14  C   LIG    1       23.419 -20.970   7.232  0.00  0.00    +0.232 C 
BRANCH  14  15
ATOM     15  C   LIG    1       23.049 -20.190   5.967  0.00  0.00    +0.044 C 
BRANCH  15  16
ATOM     16  C   LIG    1       24.165 -20.190   4.907  0.00  0.00    -0.014 C 
ATOM     17  C   LIG    1       23.852 -19.190   3.789  0.00  0.00    +0.007 C 
ATOM     18  C   LIG    1       24.406 -21.579   4.312  0.00  0.00    +0.007 C 
ENDBRANCH  15  16
ENDBRANCH  14  15
ENDBRANCH  13  14
ENDBRANCH  11  13
ENDBRANCH   2  11
TORSDOF 7
ENDMDL
MODEL 9
REMARK VINA RESULT:      -7.1      1.969      3.576
REMARK  Name = *****
REMARK                            x       y       z     vdW  Elec       q    Type
REMARK                         _______ _______ _______ _____ _____    ______ ____
ROOT
ATOM      1  C   LIG    1       27.278 -21.112   7.425  0.00  0.00    +0.015 C 
ATOM      2  C   LIG    1       26.100 -20.484   7.585  0.00  0.00    +0.092 C 
ENDROOT
BRANCH   1   6
ATOM      3  C   LIG    1       31.080 -19.636   8.746  0.00  0.00    +0.120 A 
ATOM      4  C   LIG    1       30.833 -21.006   8.648  0.00  0.00    +0.046 A 
ATOM      5  C   LIG    1       29.591 -21.472   8.210  0.00  0.00    +0.011 A 
ATOM      6  C   LIG    1       28.573 -20.575   7.865  0.00  0.00    -0.025 A 
ATOM      7  C   LIG    1       28.829 -19.202   7.981  0.00  0.00    +0.011 A 
ATOM      8  C   LIG    1       30.071 -18.737   8.417  0.00  0.00    +0.046 A 
BRANCH   3  10
ATOM      9  C   LIG    1       32.168 -17.707   9.551  0.00  0.00    +0.277 C 
ATOM     10  O   LIG    1       32.257 -19.068   9.150  0.00  0.00    -0.495 OA
ENDBRANCH   3  10
ENDBRANCH   1   6
BRANCH   2  11
ATOM     11  C   LIG    1       24.853 -21.140   7.181  0.00  0.00    +0.332 C 
ATOM     12  O   LIG    1       23.766 -20.967   7.717  0.00  0.00    -0.246 OA
BRANCH  11  13
ATOM     13  O   LIG    1       25.120 -21.936   6.122  0.00  0.00    -0.462 OA
BRANCH  13  14
ATOM     14  C   LIG    1       24.539 -23.249   6.175  0.00  0.00    +0.232 C 
BRANCH  14  15
ATOM     15  C   LIG    1       25.607 -24.288   6.527  0.00  0.00    +0.044 C 
BRANCH  15  16
ATOM     16  C   LIG    1       25.564 -25.531   5.621  0.00  0.00    -0.014 C 
ATOM     17  C   LIG    1       24.163 -26.149   5.614  0.00  0.00    +0.007 C 
ATOM     18  C   LIG    1       26.597 -26.585   6.024  0.00  0.00    +0.007 C 
ENDBRANCH  15  16
ENDBRANCH  14  15
ENDBRANCH  13  14
ENDBRANCH  11  13
ENDBRANCH   2  11
TORSDOF 7
ENDMDL
