MODEL 1
REMARK VINA RESULT:     -11.1      0.000      0.000
REMARK  Name = *****
REMARK                            x       y       z     vdW  Elec       q    Type
REMARK                         _______ _______ _______ _____ _____    ______ ____
ROOT
ATOM      1  N   LIG    1       25.423 -24.002   6.208  0.00  0.00    -0.270 N 
ATOM      2  H   LIG    1       26.247 -23.486   5.968  0.00  0.00    +0.156 HD
ATOM      3  C   LIG    1       24.347 -23.278   6.660  0.00  0.00    +0.229 C 
ATOM      4  O   LIG    1       23.219 -23.707   6.867  0.00  0.00    -0.275 OA
ENDROOT
BRANCH   1   9
ATOM      5  C   LIG    1       25.498 -29.570   5.095  0.00  0.00    +0.046 C 
ATOM      6  C   LIG    1       25.484 -28.117   5.473  0.00  0.00    -0.024 A 
ATOM      7  C   LIG    1       25.497 -27.620   6.787  0.00  0.00    +0.076 A 
ATOM      8  N   LIG    1       25.497 -26.268   7.024  0.00  0.00    -0.232 NA
ATOM      9  C   LIG    1       25.453 -25.392   6.003  0.00  0.00    +0.126 A 
ATOM     10  C   LIG    1       25.435 -25.822   4.684  0.00  0.00    +0.044 A 
ATOM     11  C   LIG    1       25.445 -27.187   4.424  0.00  0.00    +0.009 A 
BRANCH   7  12
ATOM     12  C   LIG    1       25.510 -28.440   8.040  0.00  0.00    +0.001 A 
ATOM     13  C   LIG    1       26.554 -28.284   8.978  0.00  0.00    +0.025 A 
ATOM     14  C   LIG    1       26.588 -29.001  10.185  0.00  0.00    +0.059 A 
ATOM     15  C   LIG    1       25.575 -29.920  10.477  0.00  0.00    +0.015 A 
ATOM     16  C   LIG    1       24.534 -30.102   9.575  0.00  0.00    +0.001 A 
ATOM     17  C   LIG    1       24.503 -29.360   8.388  0.00  0.00    +0.010 A 
BRANCH  14  18
ATOM     18  C   LIG    1       27.693 -28.874  11.187  0.00  0.00    +0.337 C 
ATOM     19  O   LIG    1       28.564 -29.708  11.317  0.00  0.00    -0.245 OA
BRANCH  18  20
ATOM     20  O   LIG    1       27.604 -27.758  11.962  0.00  0.00    -0.477 OA
ATOM     21  H   LIG    1       27.260 -26.955  11.529  0.00  0.00    +0.295 HD
ENDBRANCH  18  20
ENDBRANCH  14  18
ENDBRANCH   7  12
ENDBRANCH   1   9
BRANCH   3  22
ATOM     22  C   LIG    1       24.589 -21.767   6.819  0.00  0.00    +0.072 C 
ATOM     23  C   LIG    1       23.553 -20.863   6.140  0.00  0.00    +0.022 C 
ATOM     24  C   LIG    1       23.572 -20.944   7.630  0.00  0.00    +0.022 C 
BRANCH  22  25
ATOM     25  C   LIG    1       26.042 -21.258   6.824  0.00  0.00    -0.029 A 
ATOM     26  C   LIG    1       26.918 -21.614   7.871  0.00  0.00    +0.054 A 
ATOM     27  C   LIG    1       28.225 -21.174   7.844  0.00  0.00    +0.173 A 
ATOM     28  O   LIG    1       29.172 -21.458   8.776  0.00  0.00    -0.395 OA
ATOM     29  C   LIG    1       30.294 -20.765   8.209  0.00  0.00    +0.589 C 
ATOM     30  O   LIG    1       30.009 -20.056   6.994  0.00  0.00    -0.396 OA
ATOM     31  F   LIG    1       31.279 -21.663   7.967  0.00  0.00    -0.125 F 
ATOM     32  F   LIG    1       30.758 -19.882   9.128  0.00  0.00    -0.125 F 
ATOM     33  C   LIG    1       28.700 -20.380   6.830  0.00  0.00    +0.173 A 
ATOM     34  C   LIG    1       27.891 -19.992   5.785  0.00  0.00    +0.050 A 
ATOM     35  C   LIG    1       26.560 -20.440   5.786  0.00  0.00    +0.008 A 
ENDBRANCH  22  25
ENDBRANCH   3  22
TORSDOF 6
ENDMDL
MODEL 2
REMARK VINA RESULT:     -10.8      2.802      5.192
REMARK  Name = *****
REMARK                            x       y       z     vdW  Elec       q    Type
REMARK                         _______ _______ _______ _____ _____    ______ ____
ROOT
ATOM      1  N   LIG    1       27.067 -20.394   6.236  0.00  0.00    -0.270 N 
ATOM      2  H   LIG    1       27.144 -19.879   5.381  0.00  0.00    +0.156 HD
ATOM      3  C   LIG    1       28.023 -20.157   7.193  0.00  0.00    +0.229 C 
ATOM      4  O   LIG    1       28.019 -20.579   8.344  0.00  0.00    -0.275 OA
ENDROOT
BRANCH   1   9
ATOM      5  C   LIG    1       22.461 -23.650   6.895  0.00  0.00    +0.046 C 
ATOM      6  C   LIG    1       23.721 -22.858   6.693  0.00  0.00    -0.024 A 
ATOM      7  C   LIG    1       24.953 -23.387   6.273  0.00  0.00    +0.076 A 
ATOM      8  N   LIG    1       26.044 -22.573   6.105  0.00  0.00    -0.232 NA
ATOM      9  C   LIG    1       25.964 -21.255   6.370  0.00  0.00    +0.126 A 
ATOM     10  C   LIG    1       24.776 -20.675   6.791  0.00  0.00    +0.044 A 
ATOM     11  C   LIG    1       23.657 -21.483   6.957  0.00  0.00    +0.009 A 
BRANCH   7  12
ATOM     12  C   LIG    1       25.237 -24.827   5.969  0.00  0.00    +0.001 A 
ATOM     13  C   LIG    1       25.508 -25.732   7.019  0.00  0.00    +0.025 A 
ATOM     14  C   LIG    1       25.740 -27.097   6.788  0.00  0.00    +0.059 A 
ATOM     15  C   LIG    1       25.728 -27.593   5.480  0.00  0.00    +0.015 A 
ATOM     16  C   LIG    1       25.470 -26.730   4.423  0.00  0.00    +0.001 A 
ATOM     17  C   LIG    1       25.215 -25.376   4.674  0.00  0.00    +0.010 A 
BRANCH  14  18
ATOM     18  C   LIG    1       26.053 -28.076   7.876  0.00  0.00    +0.337 C 
ATOM     19  O   LIG    1       26.573 -27.753   8.924  0.00  0.00    -0.245 OA
BRANCH  18  20
ATOM     20  O   LIG    1       25.735 -29.362   7.565  0.00  0.00    -0.477 OA
ATOM     21  H   LIG    1       25.939 -29.652   6.656  0.00  0.00    +0.295 HD
ENDBRANCH  18  20
ENDBRANCH  14  18
ENDBRANCH   7  12
ENDBRANCH   1   9
BRANCH   3  22
ATOM     22  C   LIG    1       29.142 -19.185   6.781  0.00  0.00    +0.072 C 
ATOM     23  C   LIG    1       29.748 -19.434   5.394  0.00  0.00    +0.022 C 
ATOM     24  C   LIG    1       28.886 -18.233   5.600  0.00  0.00    +0.022 C 
BRANCH  22  25
ATOM     25  C   LIG    1       30.109 -18.684   7.869  0.00  0.00    -0.029 A 
ATOM     26  C   LIG    1       29.608 -18.160   9.081  0.00  0.00    +0.054 A 
ATOM     27  C   LIG    1       30.489 -17.743  10.056  0.00  0.00    +0.173 A 
ATOM     28  O   LIG    1       30.141 -17.238  11.269  0.00  0.00    -0.395 OA
ATOM     29  C   LIG    1       31.444 -17.017  11.829  0.00  0.00    +0.589 C 
ATOM     30  O   LIG    1       32.536 -17.346  10.957  0.00  0.00    -0.396 OA
ATOM     31  F   LIG    1       31.557 -17.753  12.962  0.00  0.00    -0.125 F 
ATOM     32  F   LIG    1       31.543 -15.710  12.176  0.00  0.00    -0.125 F 
ATOM     33  C   LIG    1       31.849 -17.807   9.879  0.00  0.00    +0.173 A 
ATOM     34  C   LIG    1       32.397 -18.301   8.716  0.00  0.00    +0.050 A 
ATOM     35  C   LIG    1       31.518 -18.743   7.714  0.00  0.00    +0.008 A 
ENDBRANCH  22  25
ENDBRANCH   3  22
TORSDOF 6
ENDMDL
MODEL 3
REMARK VINA RESULT:     -10.8      0.986      1.533
REMARK  Name = *****
REMARK                            x       y       z     vdW  Elec       q    Type
REMARK                         _______ _______ _______ _____ _____    ______ ____
ROOT
ATOM      1  N   LIG    1       25.319 -24.242   6.088  0.00  0.00    -0.270 N 
ATOM      2  H   LIG    1       26.130 -23.728   5.804  0.00  0.00    +0.156 HD
ATOM      3  C   LIG    1       24.245 -23.511   6.534  0.00  0.00    +0.229 C 
ATOM      4  O   LIG    1       23.127 -23.944   6.788  0.00  0.00    -0.275 OA
ENDROOT
BRANCH   1   9
ATOM      5  C   LIG    1       25.446 -29.854   5.226  0.00  0.00    +0.046 C 
ATOM      6  C   LIG    1       25.419 -28.385   5.538  0.00  0.00    -0.024 A 
ATOM      7  C   LIG    1       25.440 -27.829   6.828  0.00  0.00    +0.076 A 
ATOM      8  N   LIG    1       25.427 -26.468   7.005  0.00  0.00    -0.232 NA
ATOM      9  C   LIG    1       25.362 -25.640   5.946  0.00  0.00    +0.126 A 
ATOM     10  C   LIG    1       25.335 -26.128   4.647  0.00  0.00    +0.044 A 
ATOM     11  C   LIG    1       25.358 -27.504   4.449  0.00  0.00    +0.009 A 
BRANCH   7  12
ATOM     12  C   LIG    1       25.475 -28.592   8.117  0.00  0.00    +0.001 A 
ATOM     13  C   LIG    1       26.538 -28.398   9.026  0.00  0.00    +0.025 A 
ATOM     14  C   LIG    1       26.594 -29.059  10.263  0.00  0.00    +0.059 A 
ATOM     15  C   LIG    1       25.584 -29.959  10.617  0.00  0.00    +0.015 A 
ATOM     16  C   LIG    1       24.524 -30.177   9.745  0.00  0.00    +0.001 A 
ATOM     17  C   LIG    1       24.472 -29.491   8.527  0.00  0.00    +0.010 A 
BRANCH  14  18
ATOM     18  C   LIG    1       27.719 -28.892  11.236  0.00  0.00    +0.337 C 
ATOM     19  O   LIG    1       28.620 -29.697  11.347  0.00  0.00    -0.245 OA
BRANCH  18  20
ATOM     20  O   LIG    1       27.615 -27.776  12.008  0.00  0.00    -0.477 OA
ATOM     21  H   LIG    1       27.024 -27.073  11.678  0.00  0.00    +0.295 HD
ENDBRANCH  18  20
ENDBRANCH  14  18
ENDBRANCH   7  12
ENDBRANCH   1   9
BRANCH   3  22
ATOM     22  C   LIG    1       24.470 -21.992   6.618  0.00  0.00    +0.072 C 
ATOM     23  C   LIG    1       23.671 -21.154   5.611  0.00  0.00    +0.022 C 
ATOM     24  C   LIG    1       23.294 -21.100   7.054  0.00  0.00    +0.022 C 
BRANCH  22  25
ATOM     25  C   LIG    1       25.882 -21.482   6.963  0.00  0.00    -0.029 A 
ATOM     26  C   LIG    1       26.537 -20.568   6.109  0.00  0.00    +0.054 A 
ATOM     27  C   LIG    1       27.788 -20.100   6.449  0.00  0.00    +0.173 A 
ATOM     28  O   LIG    1       28.517 -19.208   5.728  0.00  0.00    -0.395 OA
ATOM     29  C   LIG    1       29.675 -19.097   6.569  0.00  0.00    +0.589 C 
ATOM     30  O   LIG    1       29.650 -19.930   7.737  0.00  0.00    -0.396 OA
ATOM     31  F   LIG    1       29.803 -17.805   6.960  0.00  0.00    -0.125 F 
ATOM     32  F   LIG    1       30.769 -19.413   5.833  0.00  0.00    -0.125 F 
ATOM     33  C   LIG    1       28.429 -20.508   7.591  0.00  0.00    +0.173 A 
ATOM     34  C   LIG    1       27.845 -21.404   8.459  0.00  0.00    +0.050 A 
ATOM     35  C   LIG    1       26.565 -21.885   8.140  0.00  0.00    +0.008 A 
ENDBRANCH  22  25
ENDBRANCH   3  22
TORSDOF 6
ENDMDL
MODEL 4
REMARK VINA RESULT:     -10.6      1.508      1.908
REMARK  Name = *****
REMARK                            x       y       z     vdW  Elec       q    Type
REMARK                         _______ _______ _______ _____ _____    ______ ____
ROOT
ATOM      1  N   LIG    1       25.473 -23.898   6.118  0.00  0.00    -0.270 N 
ATOM      2  H   LIG    1       26.301 -23.398   5.861  0.00  0.00    +0.156 HD
ATOM      3  C   LIG    1       24.411 -23.153   6.569  0.00  0.00    +0.229 C 
ATOM      4  O   LIG    1       23.279 -23.562   6.795  0.00  0.00    -0.275 OA
ENDROOT
BRANCH   1   9
ATOM      5  C   LIG    1       25.453 -29.485   5.096  0.00  0.00    +0.046 C 
ATOM      6  C   LIG    1       25.467 -28.025   5.450  0.00  0.00    -0.024 A 
ATOM      7  C   LIG    1       25.529 -27.507   6.754  0.00  0.00    +0.076 A 
ATOM      8  N   LIG    1       25.552 -26.152   6.969  0.00  0.00    -0.232 NA
ATOM      9  C   LIG    1       25.481 -25.292   5.935  0.00  0.00    +0.126 A 
ATOM     10  C   LIG    1       25.413 -25.743   4.625  0.00  0.00    +0.044 A 
ATOM     11  C   LIG    1       25.401 -27.112   4.388  0.00  0.00    +0.009 A 
BRANCH   7  12
ATOM     12  C   LIG    1       25.577 -28.307   8.020  0.00  0.00    +0.001 A 
ATOM     13  C   LIG    1       24.592 -29.286   8.277  0.00  0.00    +0.025 A 
ATOM     14  C   LIG    1       24.617 -30.087   9.429  0.00  0.00    +0.059 A 
ATOM     15  C   LIG    1       25.631 -29.913  10.376  0.00  0.00    +0.015 A 
ATOM     16  C   LIG    1       26.614 -28.956  10.158  0.00  0.00    +0.001 A 
ATOM     17  C   LIG    1       26.588 -28.182   8.992  0.00  0.00    +0.010 A 
BRANCH  14  18
ATOM     18  C   LIG    1       23.574 -31.116   9.739  0.00  0.00    +0.337 C 
ATOM     19  O   LIG    1       23.846 -32.263  10.028  0.00  0.00    -0.245 OA
BRANCH  18  20
ATOM     20  O   LIG    1       22.299 -30.655   9.628  0.00  0.00    -0.477 OA
ATOM     21  H   LIG    1       21.805 -30.929   8.833  0.00  0.00    +0.295 HD
ENDBRANCH  18  20
ENDBRANCH  14  18
ENDBRANCH   7  12
ENDBRANCH   1   9
BRANCH   3  22
ATOM     22  C   LIG    1       24.675 -21.643   6.701  0.00  0.00    +0.072 C 
ATOM     23  C   LIG    1       23.679 -20.737   5.965  0.00  0.00    +0.022 C 
ATOM     24  C   LIG    1       23.647 -20.782   7.457  0.00  0.00    +0.022 C 
BRANCH  22  25
ATOM     25  C   LIG    1       26.137 -21.159   6.743  0.00  0.00    -0.029 A 
ATOM     26  C   LIG    1       26.982 -21.540   7.807  0.00  0.00    +0.054 A 
ATOM     27  C   LIG    1       28.296 -21.122   7.814  0.00  0.00    +0.173 A 
ATOM     28  O   LIG    1       29.216 -21.431   8.765  0.00  0.00    -0.395 OA
ATOM     29  C   LIG    1       30.363 -20.753   8.230  0.00  0.00    +0.589 C 
ATOM     30  O   LIG    1       30.119 -20.028   7.015  0.00  0.00    -0.396 OA
ATOM     31  F   LIG    1       31.337 -21.666   8.003  0.00  0.00    -0.125 F 
ATOM     32  F   LIG    1       30.821 -19.887   9.167  0.00  0.00    -0.125 F 
ATOM     33  C   LIG    1       28.808 -20.328   6.818  0.00  0.00    +0.173 A 
ATOM     34  C   LIG    1       28.030 -19.917   5.759  0.00  0.00    +0.050 A 
ATOM     35  C   LIG    1       26.692 -20.342   5.725  0.00  0.00    +0.008 A 
ENDBRANCH  22  25
ENDBRANCH   3  22
TORSDOF 6
ENDMDL
MODEL 5
REMARK VINA RESULT:     -10.6      2.672      8.137
REMARK  Name = *****
REMARK                            x       y       z     vdW  Elec       q    Type
REMARK                         _______ _______ _______ _____ _____    ______ ____
ROOT
ATOM      1  N   LIG    1       24.175 -25.658   6.548  0.00  0.00    -0.270 N 
ATOM      2  H   LIG    1       23.374 -26.216   6.770  0.00  0.00    +0.156 HD
ATOM      3  C   LIG    1       25.322 -26.328   6.202  0.00  0.00    +0.229 C 
ATOM      4  O   LIG    1       26.352 -25.829   5.765  0.00  0.00    -0.275 OA
ENDROOT
BRANCH   1   9
ATOM      5  C   LIG    1       23.223 -20.059   6.614  0.00  0.00    +0.046 C 
ATOM      6  C   LIG    1       23.559 -21.523   6.592  0.00  0.00    -0.024 A 
ATOM      7  C   LIG    1       24.852 -22.057   6.465  0.00  0.00    +0.076 A 
ATOM      8  N   LIG    1       25.053 -23.414   6.471  0.00  0.00    -0.232 NA
ATOM      9  C   LIG    1       24.011 -24.262   6.566  0.00  0.00    +0.126 A 
ATOM     10  C   LIG    1       22.710 -23.795   6.690  0.00  0.00    +0.044 A 
ATOM     11  C   LIG    1       22.488 -22.423   6.697  0.00  0.00    +0.009 A 
BRANCH   7  12
ATOM     12  C   LIG    1       26.119 -21.273   6.313  0.00  0.00    +0.001 A 
ATOM     13  C   LIG    1       27.220 -21.534   7.158  0.00  0.00    +0.025 A 
ATOM     14  C   LIG    1       28.441 -20.854   7.028  0.00  0.00    +0.059 A 
ATOM     15  C   LIG    1       28.586 -19.867   6.048  0.00  0.00    +0.015 A 
ATOM     16  C   LIG    1       27.522 -19.581   5.202  0.00  0.00    +0.001 A 
ATOM     17  C   LIG    1       26.320 -20.286   5.329  0.00  0.00    +0.010 A 
BRANCH  14  18
ATOM     18  C   LIG    1       29.617 -21.093   7.923  0.00  0.00    +0.337 C 
ATOM     19  O   LIG    1       29.538 -21.712   8.964  0.00  0.00    -0.245 OA
BRANCH  18  20
ATOM     20  O   LIG    1       30.768 -20.519   7.480  0.00  0.00    -0.477 OA
ATOM     21  H   LIG    1       30.735 -19.562   7.299  0.00  0.00    +0.295 HD
ENDBRANCH  18  20
ENDBRANCH  14  18
ENDBRANCH   7  12
ENDBRANCH   1   9
BRANCH   3  22
ATOM     22  C   LIG    1       25.241 -27.862   6.289  0.00  0.00    +0.072 C 
ATOM     23  C   LIG    1       24.196 -28.516   5.376  0.00  0.00    +0.022 C 
ATOM     24  C   LIG    1       25.643 -28.688   5.054  0.00  0.00    +0.022 C 
BRANCH  22  25
ATOM     25  C   LIG    1       25.463 -28.527   7.660  0.00  0.00    -0.029 A 
ATOM     26  C   LIG    1       26.458 -28.040   8.535  0.00  0.00    +0.054 A 
ATOM     27  C   LIG    1       26.623 -28.629   9.771  0.00  0.00    +0.173 A 
ATOM     28  O   LIG    1       27.528 -28.248  10.710  0.00  0.00    -0.395 OA
ATOM     29  C   LIG    1       27.214 -29.186  11.751  0.00  0.00    +0.589 C 
ATOM     30  O   LIG    1       26.178 -30.123  11.422  0.00  0.00    -0.396 OA
ATOM     31  F   LIG    1       26.841 -28.495  12.856  0.00  0.00    -0.125 F 
ATOM     32  F   LIG    1       28.341 -29.875  12.058  0.00  0.00    -0.125 F 
ATOM     33  C   LIG    1       25.854 -29.692  10.175  0.00  0.00    +0.173 A 
ATOM     34  C   LIG    1       24.873 -30.215   9.363  0.00  0.00    +0.050 A 
ATOM     35  C   LIG    1       24.679 -29.623   8.104  0.00  0.00    +0.008 A 
ENDBRANCH  22  25
ENDBRANCH   3  22
TORSDOF 6
ENDMDL
MODEL 6
REMARK VINA RESULT:     -10.5      3.321      4.239
REMARK  Name = *****
REMARK                            x       y       z     vdW  Elec       q    Type
REMARK                         _______ _______ _______ _____ _____    ______ ____
ROOT
ATOM      1  N   LIG    1       25.984 -24.755   6.439  0.00  0.00    -0.270 N 
ATOM      2  H   LIG    1       26.896 -24.391   6.244  0.00  0.00    +0.156 HD
ATOM      3  C   LIG    1       25.016 -23.850   6.798  0.00  0.00    +0.229 C 
ATOM      4  O   LIG    1       23.821 -24.081   6.936  0.00  0.00    -0.275 OA
ENDROOT
BRANCH   1   9
ATOM      5  C   LIG    1       25.184 -30.294   5.472  0.00  0.00    +0.046 C 
ATOM      6  C   LIG    1       25.400 -28.847   5.812  0.00  0.00    -0.024 A 
ATOM      7  C   LIG    1       25.511 -28.326   7.112  0.00  0.00    +0.076 A 
ATOM      8  N   LIG    1       25.723 -26.986   7.314  0.00  0.00    -0.232 NA
ATOM      9  C   LIG    1       25.796 -26.138   6.271  0.00  0.00    +0.126 A 
ATOM     10  C   LIG    1       25.690 -26.591   4.963  0.00  0.00    +0.044 A 
ATOM     11  C   LIG    1       25.486 -27.948   4.739  0.00  0.00    +0.009 A 
BRANCH   7  12
ATOM     12  C   LIG    1       25.420 -29.109   8.386  0.00  0.00    +0.001 A 
ATOM     13  C   LIG    1       26.458 -29.032   9.341  0.00  0.00    +0.025 A 
ATOM     14  C   LIG    1       26.398 -29.714  10.566  0.00  0.00    +0.059 A 
ATOM     15  C   LIG    1       25.293 -30.519  10.862  0.00  0.00    +0.015 A 
ATOM     16  C   LIG    1       24.255 -30.621   9.944  0.00  0.00    +0.001 A 
ATOM     17  C   LIG    1       24.319 -29.913   8.738  0.00  0.00    +0.010 A 
BRANCH  14  18
ATOM     18  C   LIG    1       27.493 -29.671  11.587  0.00  0.00    +0.337 C 
ATOM     19  O   LIG    1       27.408 -30.216  12.667  0.00  0.00    -0.245 OA
BRANCH  18  20
ATOM     20  O   LIG    1       28.569 -28.931  11.205  0.00  0.00    -0.477 OA
ATOM     21  H   LIG    1       28.750 -28.890  10.247  0.00  0.00    +0.295 HD
ENDBRANCH  18  20
ENDBRANCH  14  18
ENDBRANCH   7  12
ENDBRANCH   1   9
BRANCH   3  22
ATOM     22  C   LIG    1       25.493 -22.394   6.936  0.00  0.00    +0.072 C 
ATOM     23  C   LIG    1       25.734 -21.918   8.375  0.00  0.00    +0.022 C 
ATOM     24  C   LIG    1       26.909 -22.136   7.481  0.00  0.00    +0.022 C 
BRANCH  22  25
ATOM     25  C   LIG    1       24.936 -21.347   5.955  0.00  0.00    -0.029 A 
ATOM     26  C   LIG    1       23.717 -20.691   6.230  0.00  0.00    +0.054 A 
ATOM     27  C   LIG    1       23.247 -19.735   5.355  0.00  0.00    +0.173 A 
ATOM     28  O   LIG    1       22.102 -19.020   5.510  0.00  0.00    -0.395 OA
ATOM     29  C   LIG    1       22.162 -18.198   4.334  0.00  0.00    +0.589 C 
ATOM     30  O   LIG    1       23.292 -18.448   3.485  0.00  0.00    -0.396 OA
ATOM     31  F   LIG    1       22.185 -16.898   4.717  0.00  0.00    -0.125 F 
ATOM     32  F   LIG    1       21.028 -18.396   3.618  0.00  0.00    -0.125 F 
ATOM     33  C   LIG    1       23.925 -19.409   4.207  0.00  0.00    +0.173 A 
ATOM     34  C   LIG    1       25.115 -20.020   3.880  0.00  0.00    +0.050 A 
ATOM     35  C   LIG    1       25.619 -20.988   4.764  0.00  0.00    +0.008 A 
ENDBRANCH  22  25
ENDBRANCH   3  22
TORSDOF 6
ENDMDL
MODEL 7
REMARK VINA RESULT:     -10.3      3.549      8.680
REMARK  Name = *****
REMARK                            x       y       z     vdW  Elec       q    Type
REMARK                         _______ _______ _______ _____ _____    ______ ____
ROOT
ATOM      1  N   LIG    1       24.228 -25.677   6.563  0.00  0.00    -0.270 N 
ATOM      2  H   LIG    1       23.424 -26.238   6.766  0.00  0.00    +0.156 HD
ATOM      3  C   LIG    1       25.382 -26.344   6.230  0.00  0.00    +0.229 C 
ATOM      4  O   LIG    1       26.419 -25.839   5.817  0.00  0.00    -0.275 OA
ENDROOT
BRANCH   1   9
ATOM      5  C   LIG    1       23.271 -20.081   6.674  0.00  0.00    +0.046 C 
ATOM      6  C   LIG    1       23.608 -21.544   6.640  0.00  0.00    -0.024 A 
ATOM      7  C   LIG    1       24.902 -22.076   6.512  0.00  0.00    +0.076 A 
ATOM      8  N   LIG    1       25.104 -23.433   6.507  0.00  0.00    -0.232 NA
ATOM      9  C   LIG    1       24.063 -24.282   6.593  0.00  0.00    +0.126 A 
ATOM     10  C   LIG    1       22.761 -23.817   6.718  0.00  0.00    +0.044 A 
ATOM     11  C   LIG    1       22.538 -22.446   6.736  0.00  0.00    +0.009 A 
BRANCH   7  12
ATOM     12  C   LIG    1       26.169 -21.289   6.369  0.00  0.00    +0.001 A 
ATOM     13  C   LIG    1       27.272 -21.564   7.206  0.00  0.00    +0.025 A 
ATOM     14  C   LIG    1       28.492 -20.882   7.083  0.00  0.00    +0.059 A 
ATOM     15  C   LIG    1       28.635 -19.878   6.119  0.00  0.00    +0.015 A 
ATOM     16  C   LIG    1       27.568 -19.578   5.281  0.00  0.00    +0.001 A 
ATOM     17  C   LIG    1       26.367 -20.286   5.401  0.00  0.00    +0.010 A 
BRANCH  14  18
ATOM     18  C   LIG    1       29.671 -21.136   7.971  0.00  0.00    +0.337 C 
ATOM     19  O   LIG    1       29.592 -21.756   9.010  0.00  0.00    -0.245 OA
BRANCH  18  20
ATOM     20  O   LIG    1       30.826 -20.574   7.521  0.00  0.00    -0.477 OA
ATOM     21  H   LIG    1       31.286 -19.974   8.137  0.00  0.00    +0.295 HD
ENDBRANCH  18  20
ENDBRANCH  14  18
ENDBRANCH   7  12
ENDBRANCH   1   9
BRANCH   3  22
ATOM     22  C   LIG    1       25.301 -27.878   6.301  0.00  0.00    +0.072 C 
ATOM     23  C   LIG    1       24.304 -28.527   5.331  0.00  0.00    +0.022 C 
ATOM     24  C   LIG    1       25.766 -28.693   5.081  0.00  0.00    +0.022 C 
BRANCH  22  25
ATOM     25  C   LIG    1       25.455 -28.554   7.676  0.00  0.00    -0.029 A 
ATOM     26  C   LIG    1       24.596 -29.610   8.050  0.00  0.00    +0.054 A 
ATOM     27  C   LIG    1       24.767 -30.223   9.273  0.00  0.00    +0.173 A 
ATOM     28  O   LIG    1       24.024 -31.258   9.746  0.00  0.00    -0.395 OA
ATOM     29  C   LIG    1       24.670 -31.469  11.011  0.00  0.00    +0.589 C 
ATOM     30  O   LIG    1       25.741 -30.558  11.297  0.00  0.00    -0.396 OA
ATOM     31  F   LIG    1       25.155 -32.734  11.042  0.00  0.00    -0.125 F 
ATOM     32  F   LIG    1       23.736 -31.362  11.988  0.00  0.00    -0.125 F 
ATOM     33  C   LIG    1       25.745 -29.827  10.152  0.00  0.00    +0.173 A 
ATOM     34  C   LIG    1       26.607 -28.798   9.846  0.00  0.00    +0.050 A 
ATOM     35  C   LIG    1       26.460 -28.167   8.600  0.00  0.00    +0.008 A 
ENDBRANCH  22  25
ENDBRANCH   3  22
TORSDOF 6
ENDMDL
MODEL 8
REMARK VINA RESULT:     -10.2      3.678      4.702
REMARK  Name = *****
REMARK                            x       y       z     vdW  Elec       q    Type
REMARK                         _______ _______ _______ _____ _____    ______ ____
ROOT
ATOM      1  N   LIG    1       25.972 -24.811   6.468  0.00  0.00    -0.270 N 
ATOM      2  H   LIG    1       26.887 -24.443   6.298  0.00  0.00    +0.156 HD
ATOM      3  C   LIG    1       24.993 -23.910   6.809  0.00  0.00    +0.229 C 
ATOM      4  O   LIG    1       23.796 -24.145   6.917  0.00  0.00    -0.275 OA
ENDROOT
BRANCH   1   9
ATOM      5  C   LIG    1       25.205 -30.344   5.443  0.00  0.00    +0.046 C 
ATOM      6  C   LIG    1       25.411 -28.899   5.798  0.00  0.00    -0.024 A 
ATOM      7  C   LIG    1       25.502 -28.389   7.104  0.00  0.00    +0.076 A 
ATOM      8  N   LIG    1       25.706 -27.050   7.320  0.00  0.00    -0.232 NA
ATOM      9  C   LIG    1       25.791 -26.193   6.285  0.00  0.00    +0.126 A 
ATOM     10  C   LIG    1       25.705 -26.636   4.973  0.00  0.00    +0.044 A 
ATOM     11  C   LIG    1       25.509 -27.991   4.734  0.00  0.00    +0.009 A 
BRANCH   7  12
ATOM     12  C   LIG    1       25.394 -29.183   8.370  0.00  0.00    +0.001 A 
ATOM     13  C   LIG    1       24.162 -29.769   8.736  0.00  0.00    +0.025 A 
ATOM     14  C   LIG    1       24.022 -30.554   9.891  0.00  0.00    +0.059 A 
ATOM     15  C   LIG    1       25.121 -30.757  10.732  0.00  0.00    +0.015 A 
ATOM     16  C   LIG    1       26.347 -30.192  10.405  0.00  0.00    +0.001 A 
ATOM     17  C   LIG    1       26.475 -29.433   9.236  0.00  0.00    +0.010 A 
BRANCH  14  18
ATOM     18  C   LIG    1       22.725 -31.169  10.317  0.00  0.00    +0.337 C 
ATOM     19  O   LIG    1       21.658 -30.863   9.826  0.00  0.00    -0.245 OA
BRANCH  18  20
ATOM     20  O   LIG    1       22.852 -32.069  11.329  0.00  0.00    -0.477 OA
ATOM     21  H   LIG    1       23.564 -32.729  11.237  0.00  0.00    +0.295 HD
ENDBRANCH  18  20
ENDBRANCH  14  18
ENDBRANCH   7  12
ENDBRANCH   1   9
BRANCH   3  22
ATOM     22  C   LIG    1       25.464 -22.455   6.970  0.00  0.00    +0.072 C 
ATOM     23  C   LIG    1       25.673 -21.989   8.417  0.00  0.00    +0.022 C 
ATOM     24  C   LIG    1       26.867 -22.198   7.547  0.00  0.00    +0.022 C 
BRANCH  22  25
ATOM     25  C   LIG    1       24.925 -21.401   5.984  0.00  0.00    -0.029 A 
ATOM     26  C   LIG    1       23.705 -20.741   6.245  0.00  0.00    +0.054 A 
ATOM     27  C   LIG    1       23.253 -19.779   5.367  0.00  0.00    +0.173 A 
ATOM     28  O   LIG    1       22.109 -19.059   5.509  0.00  0.00    -0.395 OA
ATOM     29  C   LIG    1       22.189 -18.233   4.338  0.00  0.00    +0.589 C 
ATOM     30  O   LIG    1       23.329 -18.484   3.503  0.00  0.00    -0.396 OA
ATOM     31  F   LIG    1       22.212 -16.935   4.726  0.00  0.00    -0.125 F 
ATOM     32  F   LIG    1       21.064 -18.423   3.605  0.00  0.00    -0.125 F 
ATOM     33  C   LIG    1       23.948 -19.451   4.230  0.00  0.00    +0.173 A 
ATOM     34  C   LIG    1       25.140 -20.067   3.917  0.00  0.00    +0.050 A 
ATOM     35  C   LIG    1       25.627 -21.041   4.804  0.00  0.00    +0.008 A 
ENDBRANCH  22  25
ENDBRANCH   3  22
TORSDOF 6
ENDMDL
MODEL 9
REMARK VINA RESULT:      -9.3      3.380      5.477
REMARK  Name = *****
REMARK                            x       y       z     vdW  Elec       q    Type
REMARK                         _______ _______ _______ _____ _____    ______ ____
ROOT
ATOM      1  N   LIG    1       25.924 -28.328   7.814  0.00  0.00    -0.270 N 
ATOM      2  H   LIG    1       26.812 -27.868   7.857  0.00  0.00    +0.156 HD
ATOM      3  C   LIG    1       25.046 -27.897   6.850  0.00  0.00    +0.229 C 
ATOM      4  O   LIG    1       23.980 -28.421   6.551  0.00  0.00    -0.275 OA
ENDROOT
BRANCH   1   9
ATOM      5  C   LIG    1       25.112 -32.802  11.216  0.00  0.00    +0.046 C 
ATOM      6  C   LIG    1       25.300 -31.569  10.381  0.00  0.00    -0.024 A 
ATOM      7  C   LIG    1       24.981 -30.260  10.782  0.00  0.00    +0.076 A 
ATOM      8  N   LIG    1       25.205 -29.197   9.945  0.00  0.00    -0.232 NA
ATOM      9  C   LIG    1       25.706 -29.389   8.710  0.00  0.00    +0.126 A 
ATOM     10  C   LIG    1       26.037 -30.658   8.255  0.00  0.00    +0.044 A 
ATOM     11  C   LIG    1       25.826 -31.746   9.093  0.00  0.00    +0.009 A 
BRANCH   7  12
ATOM     12  C   LIG    1       24.385 -29.862  12.097  0.00  0.00    +0.001 A 
ATOM     13  C   LIG    1       23.019 -29.514  12.180  0.00  0.00    +0.025 A 
ATOM     14  C   LIG    1       22.407 -29.173  13.397  0.00  0.00    +0.059 A 
ATOM     15  C   LIG    1       23.162 -29.150  14.574  0.00  0.00    +0.015 A 
ATOM     16  C   LIG    1       24.510 -29.482  14.528  0.00  0.00    +0.001 A 
ATOM     17  C   LIG    1       25.099 -29.844  13.311  0.00  0.00    +0.010 A 
BRANCH  14  18
ATOM     18  C   LIG    1       20.967 -28.779  13.512  0.00  0.00    +0.337 C 
ATOM     19  O   LIG    1       20.441 -28.507  14.571  0.00  0.00    -0.245 OA
BRANCH  18  20
ATOM     20  O   LIG    1       20.299 -28.791  12.326  0.00  0.00    -0.477 OA
ATOM     21  H   LIG    1       20.699 -29.314  11.607  0.00  0.00    +0.295 HD
ENDBRANCH  18  20
ENDBRANCH  14  18
ENDBRANCH   7  12
ENDBRANCH   1   9
BRANCH   3  22
ATOM     22  C   LIG    1       25.522 -26.695   6.015  0.00  0.00    +0.072 C 
ATOM     23  C   LIG    1       26.922 -26.835   5.404  0.00  0.00    +0.022 C 
ATOM     24  C   LIG    1       25.733 -26.890   4.504  0.00  0.00    +0.022 C 
BRANCH  22  25
ATOM     25  C   LIG    1       25.115 -25.282   6.474  0.00  0.00    -0.029 A 
ATOM     26  C   LIG    1       26.091 -24.380   6.949  0.00  0.00    +0.054 A 
ATOM     27  C   LIG    1       25.713 -23.109   7.327  0.00  0.00    +0.173 A 
ATOM     28  O   LIG    1       26.551 -22.141   7.784  0.00  0.00    -0.395 OA
ATOM     29  C   LIG    1       25.612 -21.074   7.982  0.00  0.00    +0.589 C 
ATOM     30  O   LIG    1       24.248 -21.412   7.690  0.00  0.00    -0.396 OA
ATOM     31  F   LIG    1       25.976 -20.027   7.203  0.00  0.00    -0.125 F 
ATOM     32  F   LIG    1       25.691 -20.671   9.275  0.00  0.00    -0.125 F 
ATOM     33  C   LIG    1       24.405 -22.695   7.271  0.00  0.00    +0.173 A 
ATOM     34  C   LIG    1       23.408 -23.533   6.824  0.00  0.00    +0.050 A 
ATOM     35  C   LIG    1       23.772 -24.828   6.421  0.00  0.00    +0.008 A 
ENDBRANCH  22  25
ENDBRANCH   3  22
TORSDOF 6
ENDMDL
