MODEL 1
REMARK VINA RESULT:      -8.7      0.000      0.000
REMARK  Name = *****
REMARK                            x       y       z     vdW  Elec       q    Type
REMARK                         _______ _______ _______ _____ _____    ______ ____
ROOT
ATOM      1  N   LIG    1       29.652 -20.413   6.852  0.00  0.00    -0.298 NA
ATOM      2  C   LIG    1       29.089 -21.776   6.926  0.00  0.00    +0.100 C 
ATOM      3  C   LIG    1       27.697 -21.849   7.593  0.00  0.00    +0.100 C 
ATOM      4  N   LIG    1       26.657 -20.972   7.005  0.00  0.00    -0.289 NA
ATOM      5  C   LIG    1       27.230 -19.620   6.775  0.00  0.00    +0.100 C 
ATOM      6  C   LIG    1       28.653 -19.568   6.159  0.00  0.00    +0.100 C 
ENDROOT
BRANCH   1   7
ATOM      7  C   LIG    1       29.982 -19.838   8.174  0.00  0.00    +0.112 C 
BRANCH   7   8
ATOM      8  C   LIG    1       31.134 -20.520   8.929  0.00  0.00    +0.176 C 
BRANCH   8   9
ATOM      9  O   LIG    1       32.156 -19.543   9.197  0.00  0.00    -0.367 OA
BRANCH   9  10
ATOM     10  C   LIG    1       31.768 -18.255   8.692  0.00  0.00    +0.279 C 
BRANCH  10  12
ATOM     11  O   LIG    1       32.650 -17.282  10.739  0.00  0.00    -0.248 OA
ATOM     12  C   LIG    1       32.386 -17.162   9.547  0.00  0.00    +0.331 C 
BRANCH  12  13
ATOM     13  O   LIG    1       32.615 -16.022   8.852  0.00  0.00    -0.479 OA
ATOM     14  H   LIG    1       31.744 -15.628   8.620  0.00  0.00    +0.295 HD
ENDBRANCH  12  13
ENDBRANCH  10  12
ENDBRANCH   9  10
ENDBRANCH   8   9
ENDBRANCH   7   8
ENDBRANCH   1   7
BRANCH   4  15
ATOM     15  C   LIG    1       26.010 -21.542   5.787  0.00  0.00    +0.117 C 
BRANCH  15  16
ATOM     16  C   LIG    1       25.584 -23.011   5.977  0.00  0.00    -0.026 A 
ATOM     17  C   LIG    1       25.913 -23.727   7.145  0.00  0.00    +0.007 A 
ATOM     18  C   LIG    1       25.549 -25.064   7.300  0.00  0.00    +0.020 A 
ATOM     19  C   LIG    1       24.855 -25.709   6.282  0.00  0.00    +0.041 A 
ATOM     20 CL   LIG    1       24.432 -27.368   6.458  0.00  0.00    -0.084 Cl
ATOM     21  C   LIG    1       24.512 -25.023   5.119  0.00  0.00    +0.020 A 
ATOM     22  C   LIG    1       24.871 -23.679   4.967  0.00  0.00    +0.007 A 
ENDBRANCH  15  16
BRANCH  15  23
ATOM     23  C   LIG    1       24.789 -20.729   5.318  0.00  0.00    -0.026 A 
ATOM     24  C   LIG    1       23.657 -20.623   6.141  0.00  0.00    +0.005 A 
ATOM     25  C   LIG    1       22.555 -19.865   5.737  0.00  0.00    +0.000 A 
ATOM     26  C   LIG    1       22.571 -19.198   4.512  0.00  0.00    +0.000 A 
ATOM     27  C   LIG    1       23.689 -19.281   3.690  0.00  0.00    +0.000 A 
ATOM     28  C   LIG    1       24.790 -20.038   4.090  0.00  0.00    +0.005 A 
ENDBRANCH  15  23
ENDBRANCH   4  15
TORSDOF 9
ENDMDL
MODEL 2
REMARK VINA RESULT:      -8.5      5.298      8.078
REMARK  Name = *****
REMARK                            x       y       z     vdW  Elec       q    Type
REMARK                         _______ _______ _______ _____ _____    ______ ____
ROOT
ATOM      1  N   LIG    1       24.239 -25.170   6.821  0.00  0.00    -0.298 NA
ATOM      2  C   LIG    1       25.430 -24.486   7.361  0.00  0.00    +0.100 C 
ATOM      3  C   LIG    1       26.224 -23.677   6.309  0.00  0.00    +0.100 C 
ATOM      4  N   LIG    1       25.444 -22.672   5.550  0.00  0.00    -0.289 NA
ATOM      5  C   LIG    1       24.160 -23.280   5.110  0.00  0.00    +0.100 C 
ATOM      6  C   LIG    1       23.407 -24.138   6.162  0.00  0.00    +0.100 C 
ENDROOT
BRANCH   1   7
ATOM      7  C   LIG    1       24.561 -26.254   5.867  0.00  0.00    +0.112 C 
BRANCH   7   8
ATOM      8  C   LIG    1       25.479 -27.364   6.405  0.00  0.00    +0.176 C 
BRANCH   8   9
ATOM      9  O   LIG    1       25.585 -28.401   5.413  0.00  0.00    -0.367 OA
BRANCH   9  10
ATOM     10  C   LIG    1       25.426 -29.695   6.016  0.00  0.00    +0.279 C 
BRANCH  10  12
ATOM     11  O   LIG    1       23.599 -30.328   7.493  0.00  0.00    -0.248 OA
ATOM     12  C   LIG    1       23.971 -29.905   6.403  0.00  0.00    +0.331 C 
BRANCH  12  13
ATOM     13  O   LIG    1       23.113 -29.577   5.406  0.00  0.00    -0.479 OA
ATOM     14  H   LIG    1       22.256 -29.324   5.815  0.00  0.00    +0.295 HD
ENDBRANCH  12  13
ENDBRANCH  10  12
ENDBRANCH   9  10
ENDBRANCH   8   9
ENDBRANCH   7   8
ENDBRANCH   1   7
BRANCH   4  15
ATOM     15  C   LIG    1       25.255 -21.383   6.277  0.00  0.00    +0.117 C 
BRANCH  15  16
ATOM     16  C   LIG    1       26.592 -20.684   6.596  0.00  0.00    -0.026 A 
ATOM     17  C   LIG    1       27.419 -20.180   5.574  0.00  0.00    +0.007 A 
ATOM     18  C   LIG    1       28.641 -19.573   5.867  0.00  0.00    +0.020 A 
ATOM     19  C   LIG    1       29.056 -19.468   7.190  0.00  0.00    +0.041 A 
ATOM     20 CL   LIG    1       30.576 -18.748   7.551  0.00  0.00    -0.084 Cl
ATOM     21  C   LIG    1       28.253 -19.953   8.220  0.00  0.00    +0.020 A 
ATOM     22  C   LIG    1       27.025 -20.555   7.927  0.00  0.00    +0.007 A 
ENDBRANCH  15  16
BRANCH  15  23
ATOM     23  C   LIG    1       24.347 -20.394   5.523  0.00  0.00    -0.026 A 
ATOM     24  C   LIG    1       24.773 -19.832   4.310  0.00  0.00    +0.005 A 
ATOM     25  C   LIG    1       23.945 -18.955   3.604  0.00  0.00    +0.000 A 
ATOM     26  C   LIG    1       22.680 -18.635   4.095  0.00  0.00    +0.000 A 
ATOM     27  C   LIG    1       22.235 -19.193   5.289  0.00  0.00    +0.000 A 
ATOM     28  C   LIG    1       23.059 -20.067   5.995  0.00  0.00    +0.005 A 
ENDBRANCH  15  23
ENDBRANCH   4  15
TORSDOF 9
ENDMDL
MODEL 3
REMARK VINA RESULT:      -8.3      2.008      4.219
REMARK  Name = *****
REMARK                            x       y       z     vdW  Elec       q    Type
REMARK                         _______ _______ _______ _____ _____    ______ ____
ROOT
ATOM      1  N   LIG    1       28.923 -20.256   8.529  0.00  0.00    -0.298 NA
ATOM      2  C   LIG    1       27.799 -19.529   7.909  0.00  0.00    +0.100 C 
ATOM      3  C   LIG    1       27.482 -19.971   6.462  0.00  0.00    +0.100 C 
ATOM      4  N   LIG    1       27.228 -21.419   6.276  0.00  0.00    -0.289 NA
ATOM      5  C   LIG    1       28.260 -22.195   7.012  0.00  0.00    +0.100 C 
ATOM      6  C   LIG    1       28.608 -21.699   8.441  0.00  0.00    +0.100 C 
ENDROOT
BRANCH   1   7
ATOM      7  C   LIG    1       30.230 -19.977   7.894  0.00  0.00    +0.112 C 
BRANCH   7   8
ATOM      8  C   LIG    1       31.455 -20.586   8.594  0.00  0.00    +0.176 C 
BRANCH   8   9
ATOM      9  O   LIG    1       32.205 -19.530   9.222  0.00  0.00    -0.367 OA
BRANCH   9  10
ATOM     10  C   LIG    1       31.868 -18.260   8.642  0.00  0.00    +0.279 C 
BRANCH  10  12
ATOM     11  O   LIG    1       32.693 -17.249  10.695  0.00  0.00    -0.248 OA
ATOM     12  C   LIG    1       32.429 -17.139   9.502  0.00  0.00    +0.331 C 
BRANCH  12  13
ATOM     13  O   LIG    1       32.606 -15.988   8.809  0.00  0.00    -0.479 OA
ATOM     14  H   LIG    1       32.981 -15.319   9.424  0.00  0.00    +0.295 HD
ENDBRANCH  12  13
ENDBRANCH  10  12
ENDBRANCH   9  10
ENDBRANCH   8   9
ENDBRANCH   7   8
ENDBRANCH   1   7
BRANCH   4  15
ATOM     15  C   LIG    1       25.836 -21.834   6.619  0.00  0.00    +0.117 C 
BRANCH  15  16
ATOM     16  C   LIG    1       24.772 -20.975   5.908  0.00  0.00    -0.026 A 
ATOM     17  C   LIG    1       25.000 -20.431   4.629  0.00  0.00    +0.007 A 
ATOM     18  C   LIG    1       24.044 -19.631   4.003  0.00  0.00    +0.020 A 
ATOM     19  C   LIG    1       22.846 -19.357   4.653  0.00  0.00    +0.041 A 
ATOM     20 CL   LIG    1       21.678 -18.345   3.896  0.00  0.00    -0.084 Cl
ATOM     21  C   LIG    1       22.592 -19.888   5.916  0.00  0.00    +0.020 A 
ATOM     22  C   LIG    1       23.548 -20.696   6.541  0.00  0.00    +0.007 A 
ENDBRANCH  15  16
BRANCH  15  23
ATOM     23  C   LIG    1       25.559 -23.318   6.313  0.00  0.00    -0.026 A 
ATOM     24  C   LIG    1       25.052 -23.695   5.061  0.00  0.00    +0.005 A 
ATOM     25  C   LIG    1       24.823 -25.042   4.763  0.00  0.00    +0.000 A 
ATOM     26  C   LIG    1       25.104 -26.028   5.709  0.00  0.00    +0.000 A 
ATOM     27  C   LIG    1       25.620 -25.673   6.951  0.00  0.00    +0.000 A 
ATOM     28  C   LIG    1       25.848 -24.331   7.250  0.00  0.00    +0.005 A 
ENDBRANCH  15  23
ENDBRANCH   4  15
TORSDOF 9
ENDMDL
MODEL 4
REMARK VINA RESULT:      -8.1      5.351      8.450
REMARK  Name = *****
REMARK                            x       y       z     vdW  Elec       q    Type
REMARK                         _______ _______ _______ _____ _____    ______ ____
ROOT
ATOM      1  N   LIG    1       25.557 -25.766   5.597  0.00  0.00    -0.298 NA
ATOM      2  C   LIG    1       24.677 -24.836   4.864  0.00  0.00    +0.100 C 
ATOM      3  C   LIG    1       24.021 -23.754   5.752  0.00  0.00    +0.100 C 
ATOM      4  N   LIG    1       24.955 -22.934   6.559  0.00  0.00    -0.289 NA
ATOM      5  C   LIG    1       25.957 -23.825   7.202  0.00  0.00    +0.100 C 
ATOM      6  C   LIG    1       26.560 -24.943   6.310  0.00  0.00    +0.100 C 
ENDROOT
BRANCH   1   7
ATOM      7  C   LIG    1       24.834 -26.635   6.552  0.00  0.00    +0.112 C 
BRANCH   7   8
ATOM      8  C   LIG    1       25.465 -28.013   6.809  0.00  0.00    +0.176 C 
BRANCH   8   9
ATOM      9  O   LIG    1       25.544 -28.728   5.563  0.00  0.00    -0.367 OA
BRANCH   9  10
ATOM     10  C   LIG    1       25.403 -30.140   5.782  0.00  0.00    +0.279 C 
BRANCH  10  12
ATOM     11  O   LIG    1       23.677 -31.235   7.101  0.00  0.00    -0.248 OA
ATOM     12  C   LIG    1       23.977 -30.453   6.204  0.00  0.00    +0.331 C 
BRANCH  12  13
ATOM     13  O   LIG    1       23.056 -29.776   5.477  0.00  0.00    -0.479 OA
ATOM     14  H   LIG    1       22.642 -30.408   4.848  0.00  0.00    +0.295 HD
ENDBRANCH  12  13
ENDBRANCH  10  12
ENDBRANCH   9  10
ENDBRANCH   8   9
ENDBRANCH   7   8
ENDBRANCH   1   7
BRANCH   4  15
ATOM     15  C   LIG    1       25.581 -21.813   5.799  0.00  0.00    +0.117 C 
BRANCH  15  16
ATOM     16  C   LIG    1       24.544 -20.786   5.302  0.00  0.00    -0.026 A 
ATOM     17  C   LIG    1       23.371 -20.513   6.033  0.00  0.00    +0.007 A 
ATOM     18  C   LIG    1       22.424 -19.603   5.564  0.00  0.00    +0.020 A 
ATOM     19  C   LIG    1       22.633 -18.957   4.350  0.00  0.00    +0.041 A 
ATOM     20 CL   LIG    1       21.450 -17.858   3.755  0.00  0.00    -0.084 Cl
ATOM     21  C   LIG    1       23.787 -19.204   3.611  0.00  0.00    +0.020 A 
ATOM     22  C   LIG    1       24.741 -20.112   4.084  0.00  0.00    +0.007 A 
ENDBRANCH  15  16
BRANCH  15  23
ATOM     23  C   LIG    1       26.665 -21.072   6.603  0.00  0.00    -0.026 A 
ATOM     24  C   LIG    1       26.458 -20.780   7.960  0.00  0.00    +0.005 A 
ATOM     25  C   LIG    1       27.447 -20.133   8.706  0.00  0.00    +0.000 A 
ATOM     26  C   LIG    1       28.656 -19.776   8.110  0.00  0.00    +0.000 A 
ATOM     27  C   LIG    1       28.885 -20.070   6.769  0.00  0.00    +0.000 A 
ATOM     28  C   LIG    1       27.899 -20.714   6.023  0.00  0.00    +0.005 A 
ENDBRANCH  15  23
ENDBRANCH   4  15
TORSDOF 9
ENDMDL
MODEL 5
REMARK VINA RESULT:      -7.9      5.411      8.512
REMARK  Name = *****
REMARK                            x       y       z     vdW  Elec       q    Type
REMARK                         _______ _______ _______ _____ _____    ______ ____
ROOT
ATOM      1  N   LIG    1       25.230 -25.938   5.531  0.00  0.00    -0.298 NA
ATOM      2  C   LIG    1       24.337 -24.906   4.968  0.00  0.00    +0.100 C 
ATOM      3  C   LIG    1       23.903 -23.825   5.985  0.00  0.00    +0.100 C 
ATOM      4  N   LIG    1       25.004 -23.123   6.684  0.00  0.00    -0.289 NA
ATOM      5  C   LIG    1       26.008 -24.120   7.141  0.00  0.00    +0.100 C 
ATOM      6  C   LIG    1       26.386 -25.233   6.127  0.00  0.00    +0.100 C 
ENDROOT
BRANCH   1   7
ATOM      7  C   LIG    1       24.576 -26.798   6.541  0.00  0.00    +0.112 C 
BRANCH   7   8
ATOM      8  C   LIG    1       25.438 -27.941   7.102  0.00  0.00    +0.176 C 
BRANCH   8   9
ATOM      9  O   LIG    1       24.571 -28.938   7.674  0.00  0.00    -0.367 OA
BRANCH   9  10
ATOM     10  C   LIG    1       25.018 -30.256   7.321  0.00  0.00    +0.279 C 
BRANCH  10  12
ATOM     11  O   LIG    1       25.501 -30.812   5.002  0.00  0.00    -0.248 OA
ATOM     12  C   LIG    1       24.675 -30.542   5.868  0.00  0.00    +0.331 C 
BRANCH  12  13
ATOM     13  O   LIG    1       23.345 -30.461   5.620  0.00  0.00    -0.479 OA
ATOM     14  H   LIG    1       23.222 -29.962   4.782  0.00  0.00    +0.295 HD
ENDBRANCH  12  13
ENDBRANCH  10  12
ENDBRANCH   9  10
ENDBRANCH   8   9
ENDBRANCH   7   8
ENDBRANCH   1   7
BRANCH   4  15
ATOM     15  C   LIG    1       25.610 -22.014   5.890  0.00  0.00    +0.117 C 
BRANCH  15  16
ATOM     16  C   LIG    1       24.554 -21.024   5.359  0.00  0.00    -0.026 A 
ATOM     17  C   LIG    1       24.643 -20.480   4.062  0.00  0.00    +0.007 A 
ATOM     18  C   LIG    1       23.700 -19.564   3.597  0.00  0.00    +0.020 A 
ATOM     19  C   LIG    1       22.656 -19.171   4.428  0.00  0.00    +0.041 A 
ATOM     20 CL   LIG    1       21.509 -18.017   3.868  0.00  0.00    -0.084 Cl
ATOM     21  C   LIG    1       22.542 -19.698   5.712  0.00  0.00    +0.020 A 
ATOM     22  C   LIG    1       23.483 -20.623   6.176  0.00  0.00    +0.007 A 
ENDBRANCH  15  16
BRANCH  15  23
ATOM     23  C   LIG    1       26.677 -21.227   6.672  0.00  0.00    -0.026 A 
ATOM     24  C   LIG    1       27.802 -20.715   6.007  0.00  0.00    +0.005 A 
ATOM     25  C   LIG    1       28.763 -19.976   6.703  0.00  0.00    +0.000 A 
ATOM     26  C   LIG    1       28.609 -19.732   8.067  0.00  0.00    +0.000 A 
ATOM     27  C   LIG    1       27.494 -20.220   8.740  0.00  0.00    +0.000 A 
ATOM     28  C   LIG    1       26.535 -20.958   8.049  0.00  0.00    +0.005 A 
ENDBRANCH  15  23
ENDBRANCH   4  15
TORSDOF 9
ENDMDL
MODEL 6
REMARK VINA RESULT:      -7.7      1.393      2.396
REMARK  Name = *****
REMARK                            x       y       z     vdW  Elec       q    Type
REMARK                         _______ _______ _______ _____ _____    ______ ____
ROOT
ATOM      1  N   LIG    1       28.768 -19.928   7.101  0.00  0.00    -0.298 NA
ATOM      2  C   LIG    1       28.870 -21.375   6.830  0.00  0.00    +0.100 C 
ATOM      3  C   LIG    1       27.773 -22.224   7.512  0.00  0.00    +0.100 C 
ATOM      4  N   LIG    1       26.378 -21.818   7.227  0.00  0.00    -0.289 NA
ATOM      5  C   LIG    1       26.264 -20.341   7.346  0.00  0.00    +0.100 C 
ATOM      6  C   LIG    1       27.405 -19.507   6.705  0.00  0.00    +0.100 C 
ENDROOT
BRANCH   1   7
ATOM      7  C   LIG    1       29.025 -19.572   8.514  0.00  0.00    +0.112 C 
BRANCH   7   8
ATOM      8  C   LIG    1       30.347 -18.838   8.787  0.00  0.00    +0.176 C 
BRANCH   8   9
ATOM      9  O   LIG    1       31.205 -19.697   9.560  0.00  0.00    -0.367 OA
BRANCH   9  10
ATOM     10  C   LIG    1       31.821 -20.684   8.717  0.00  0.00    +0.279 C 
BRANCH  10  12
ATOM     11  O   LIG    1       30.744 -22.305  10.177  0.00  0.00    -0.248 OA
ATOM     12  C   LIG    1       31.497 -22.075   9.236  0.00  0.00    +0.331 C 
BRANCH  12  13
ATOM     13  O   LIG    1       32.138 -23.051   8.548  0.00  0.00    -0.479 OA
ATOM     14  H   LIG    1       32.365 -23.769   9.181  0.00  0.00    +0.295 HD
ENDBRANCH  12  13
ENDBRANCH  10  12
ENDBRANCH   9  10
ENDBRANCH   8   9
ENDBRANCH   7   8
ENDBRANCH   1   7
BRANCH   4  15
ATOM     15  C   LIG    1       25.854 -22.337   5.929  0.00  0.00    +0.117 C 
BRANCH  15  16
ATOM     16  C   LIG    1       25.477 -23.830   6.000  0.00  0.00    -0.026 A 
ATOM     17  C   LIG    1       25.800 -24.618   7.122  0.00  0.00    +0.007 A 
ATOM     18  C   LIG    1       25.480 -25.975   7.169  0.00  0.00    +0.020 A 
ATOM     19  C   LIG    1       24.837 -26.566   6.087  0.00  0.00    +0.041 A 
ATOM     20 CL   LIG    1       24.470 -28.247   6.129  0.00  0.00    -0.084 Cl
ATOM     21  C   LIG    1       24.501 -25.809   4.968  0.00  0.00    +0.020 A 
ATOM     22  C   LIG    1       24.815 -24.446   4.924  0.00  0.00    +0.007 A 
ENDBRANCH  15  16
BRANCH  15  23
ATOM     23  C   LIG    1       24.641 -21.544   5.410  0.00  0.00    -0.026 A 
ATOM     24  C   LIG    1       24.783 -20.679   4.314  0.00  0.00    +0.005 A 
ATOM     25  C   LIG    1       23.683 -19.975   3.817  0.00  0.00    +0.000 A 
ATOM     26  C   LIG    1       22.426 -20.133   4.402  0.00  0.00    +0.000 A 
ATOM     27  C   LIG    1       22.263 -20.996   5.480  0.00  0.00    +0.000 A 
ATOM     28  C   LIG    1       23.360 -21.698   5.978  0.00  0.00    +0.005 A 
ENDBRANCH  15  23
ENDBRANCH   4  15
TORSDOF 9
ENDMDL
MODEL 7
REMARK VINA RESULT:      -7.6      2.644      4.676
REMARK  Name = *****
REMARK                            x       y       z     vdW  Elec       q    Type
REMARK                         _______ _______ _______ _____ _____    ______ ____
ROOT
ATOM      1  N   LIG    1       27.063 -19.904   7.635  0.00  0.00    -0.298 NA
ATOM      2  C   LIG    1       27.060 -20.865   6.515  0.00  0.00    +0.100 C 
ATOM      3  C   LIG    1       27.234 -22.340   6.948  0.00  0.00    +0.100 C 
ATOM      4  N   LIG    1       26.265 -22.831   7.954  0.00  0.00    -0.289 NA
ATOM      5  C   LIG    1       26.125 -21.819   9.034  0.00  0.00    +0.100 C 
ATOM      6  C   LIG    1       26.012 -20.338   8.582  0.00  0.00    +0.100 C 
ENDROOT
BRANCH   1   7
ATOM      7  C   LIG    1       28.367 -19.806   8.326  0.00  0.00    +0.112 C 
BRANCH   7   8
ATOM      8  C   LIG    1       29.539 -19.296   7.471  0.00  0.00    +0.176 C 
BRANCH   8   9
ATOM      9  O   LIG    1       30.597 -20.270   7.506  0.00  0.00    -0.367 OA
BRANCH   9  10
ATOM     10  C   LIG    1       31.198 -20.316   8.810  0.00  0.00    +0.279 C 
BRANCH  10  12
ATOM     11  O   LIG    1       32.201 -22.527   8.666  0.00  0.00    -0.248 OA
ATOM     12  C   LIG    1       31.420 -21.762   9.222  0.00  0.00    +0.331 C 
BRANCH  12  13
ATOM     13  O   LIG    1       30.653 -22.127  10.278  0.00  0.00    -0.479 OA
ATOM     14  H   LIG    1       29.850 -21.560  10.280  0.00  0.00    +0.295 HD
ENDBRANCH  12  13
ENDBRANCH  10  12
ENDBRANCH   9  10
ENDBRANCH   8   9
ENDBRANCH   7   8
ENDBRANCH   1   7
BRANCH   4  15
ATOM     15  C   LIG    1       24.953 -23.243   7.374  0.00  0.00    +0.117 C 
BRANCH  15  16
ATOM     16  C   LIG    1       24.363 -22.176   6.431  0.00  0.00    -0.026 A 
ATOM     17  C   LIG    1       23.452 -21.207   6.895  0.00  0.00    +0.007 A 
ATOM     18  C   LIG    1       22.901 -20.261   6.030  0.00  0.00    +0.020 A 
ATOM     19  C   LIG    1       23.249 -20.276   4.684  0.00  0.00    +0.041 A 
ATOM     20 CL   LIG    1       22.547 -19.129   3.610  0.00  0.00    -0.084 Cl
ATOM     21  C   LIG    1       24.153 -21.219   4.200  0.00  0.00    +0.020 A 
ATOM     22  C   LIG    1       24.711 -22.164   5.069  0.00  0.00    +0.007 A 
ENDBRANCH  15  16
BRANCH  15  23
ATOM     23  C   LIG    1       25.024 -24.585   6.621  0.00  0.00    -0.026 A 
ATOM     24  C   LIG    1       23.856 -25.159   6.096  0.00  0.00    +0.005 A 
ATOM     25  C   LIG    1       23.913 -26.363   5.387  0.00  0.00    +0.000 A 
ATOM     26  C   LIG    1       25.136 -27.003   5.187  0.00  0.00    +0.000 A 
ATOM     27  C   LIG    1       26.305 -26.441   5.688  0.00  0.00    +0.000 A 
ATOM     28  C   LIG    1       26.251 -25.242   6.397  0.00  0.00    +0.005 A 
ENDBRANCH  15  23
ENDBRANCH   4  15
TORSDOF 9
ENDMDL
MODEL 8
REMARK VINA RESULT:      -7.4      2.354      4.462
REMARK  Name = *****
REMARK                            x       y       z     vdW  Elec       q    Type
REMARK                         _______ _______ _______ _____ _____    ______ ____
ROOT
ATOM      1  N   LIG    1       27.175 -20.008   7.596  0.00  0.00    -0.298 NA
ATOM      2  C   LIG    1       27.190 -21.030   6.531  0.00  0.00    +0.100 C 
ATOM      3  C   LIG    1       27.272 -22.484   7.051  0.00  0.00    +0.100 C 
ATOM      4  N   LIG    1       26.227 -22.876   8.026  0.00  0.00    -0.289 NA
ATOM      5  C   LIG    1       26.075 -21.799   9.040  0.00  0.00    +0.100 C 
ATOM      6  C   LIG    1       26.055 -20.343   8.503  0.00  0.00    +0.100 C 
ENDROOT
BRANCH   1   7
ATOM      7  C   LIG    1       28.443 -19.927   8.354  0.00  0.00    +0.112 C 
BRANCH   7   8
ATOM      8  C   LIG    1       29.449 -18.875   7.861  0.00  0.00    +0.176 C 
BRANCH   8   9
ATOM      9  O   LIG    1       30.734 -19.150   8.449  0.00  0.00    -0.367 OA
BRANCH   9  10
ATOM     10  C   LIG    1       31.300 -17.952   9.005  0.00  0.00    +0.279 C 
BRANCH  10  12
ATOM     11  O   LIG    1       30.107 -16.553  10.597  0.00  0.00    -0.248 OA
ATOM     12  C   LIG    1       30.624 -17.632  10.328  0.00  0.00    +0.331 C 
BRANCH  12  13
ATOM     13  O   LIG    1       30.657 -18.672  11.196  0.00  0.00    -0.479 OA
ATOM     14  H   LIG    1       31.516 -18.643  11.672  0.00  0.00    +0.295 HD
ENDBRANCH  12  13
ENDBRANCH  10  12
ENDBRANCH   9  10
ENDBRANCH   8   9
ENDBRANCH   7   8
ENDBRANCH   1   7
BRANCH   4  15
ATOM     15  C   LIG    1       24.932 -23.263   7.394  0.00  0.00    +0.117 C 
BRANCH  15  16
ATOM     16  C   LIG    1       24.380 -22.169   6.460  0.00  0.00    -0.026 A 
ATOM     17  C   LIG    1       24.770 -22.090   5.108  0.00  0.00    +0.007 A 
ATOM     18  C   LIG    1       24.288 -21.081   4.275  0.00  0.00    +0.020 A 
ATOM     19  C   LIG    1       23.412 -20.129   4.785  0.00  0.00    +0.041 A 
ATOM     20 CL   LIG    1       22.841 -18.864   3.766  0.00  0.00    -0.084 Cl
ATOM     21  C   LIG    1       23.006 -20.187   6.116  0.00  0.00    +0.020 A 
ATOM     22  C   LIG    1       23.483 -21.204   6.950  0.00  0.00    +0.007 A 
ENDBRANCH  15  16
BRANCH  15  23
ATOM     23  C   LIG    1       25.017 -24.586   6.611  0.00  0.00    -0.026 A 
ATOM     24  C   LIG    1       26.258 -25.211   6.419  0.00  0.00    +0.005 A 
ATOM     25  C   LIG    1       26.344 -26.426   5.733  0.00  0.00    +0.000 A 
ATOM     26  C   LIG    1       25.191 -27.036   5.238  0.00  0.00    +0.000 A 
ATOM     27  C   LIG    1       23.950 -26.438   5.431  0.00  0.00    +0.000 A 
ATOM     28  C   LIG    1       23.863 -25.226   6.113  0.00  0.00    +0.005 A 
ENDBRANCH  15  23
ENDBRANCH   4  15
TORSDOF 9
ENDMDL
MODEL 9
REMARK VINA RESULT:      -7.2      5.090      7.742
REMARK  Name = *****
REMARK                            x       y       z     vdW  Elec       q    Type
REMARK                         _______ _______ _______ _____ _____    ______ ____
ROOT
ATOM      1  N   LIG    1       25.185 -24.281   5.753  0.00  0.00    -0.298 NA
ATOM      2  C   LIG    1       24.071 -23.330   5.581  0.00  0.00    +0.100 C 
ATOM      3  C   LIG    1       23.550 -22.720   6.903  0.00  0.00    +0.100 C 
ATOM      4  N   LIG    1       24.571 -22.057   7.749  0.00  0.00    -0.289 NA
ATOM      5  C   LIG    1       25.777 -22.922   7.828  0.00  0.00    +0.100 C 
ATOM      6  C   LIG    1       26.249 -23.573   6.501  0.00  0.00    +0.100 C 
ENDROOT
BRANCH   1   7
ATOM      7  C   LIG    1       24.799 -25.521   6.461  0.00  0.00    +0.112 C 
BRANCH   7   8
ATOM      8  C   LIG    1       25.941 -26.511   6.744  0.00  0.00    +0.176 C 
BRANCH   8   9
ATOM      9  O   LIG    1       25.399 -27.843   6.794  0.00  0.00    -0.367 OA
BRANCH   9  10
ATOM     10  C   LIG    1       25.233 -28.370   5.468  0.00  0.00    +0.279 C 
BRANCH  10  12
ATOM     11  O   LIG    1       25.198 -30.800   5.568  0.00  0.00    -0.248 OA
ATOM     12  C   LIG    1       24.581 -29.741   5.540  0.00  0.00    +0.331 C 
BRANCH  12  13
ATOM     13  O   LIG    1       23.228 -29.674   5.564  0.00  0.00    -0.479 OA
ATOM     14  H   LIG    1       22.939 -29.103   4.818  0.00  0.00    +0.295 HD
ENDBRANCH  12  13
ENDBRANCH  10  12
ENDBRANCH   9  10
ENDBRANCH   8   9
ENDBRANCH   7   8
ENDBRANCH   1   7
BRANCH   4  15
ATOM     15  C   LIG    1       24.886 -20.661   7.326  0.00  0.00    +0.117 C 
BRANCH  15  16
ATOM     16  C   LIG    1       26.402 -20.406   7.216  0.00  0.00    -0.026 A 
ATOM     17  C   LIG    1       27.222 -20.344   8.359  0.00  0.00    +0.007 A 
ATOM     18  C   LIG    1       28.589 -20.086   8.254  0.00  0.00    +0.020 A 
ATOM     19  C   LIG    1       29.155 -19.877   7.001  0.00  0.00    +0.041 A 
ATOM     20 CL   LIG    1       30.835 -19.528   6.872  0.00  0.00    -0.084 Cl
ATOM     21  C   LIG    1       28.367 -19.939   5.854  0.00  0.00    +0.020 A 
ATOM     22  C   LIG    1       26.997 -20.206   5.958  0.00  0.00    +0.007 A 
ENDBRANCH  15  16
BRANCH  15  23
ATOM     23  C   LIG    1       24.219 -20.271   5.994  0.00  0.00    -0.026 A 
ATOM     24  C   LIG    1       24.923 -20.411   4.788  0.00  0.00    +0.005 A 
ATOM     25  C   LIG    1       24.318 -20.086   3.571  0.00  0.00    +0.000 A 
ATOM     26  C   LIG    1       23.002 -19.625   3.541  0.00  0.00    +0.000 A 
ATOM     27  C   LIG    1       22.284 -19.492   4.726  0.00  0.00    +0.000 A 
ATOM     28  C   LIG    1       22.886 -19.815   5.941  0.00  0.00    +0.005 A 
ENDBRANCH  15  23
ENDBRANCH   4  15
TORSDOF 9
ENDMDL
