MODEL 1
REMARK VINA RESULT:      -5.4      0.000      0.000
REMARK  Name = *****
REMARK                            x       y       z     vdW  Elec       q    Type
REMARK                         _______ _______ _______ _____ _____    ______ ____
ROOT
ATOM      1  C   LIG    1       21.883 -19.304   4.471  0.00  0.00    +0.065 C 
ATOM      2  C   LIG    1       23.363 -19.211   4.313  0.00  0.00    +0.038 C 
ATOM      3  N   LIG    1       24.227 -20.138   4.909  0.00  0.00    -0.284 N 
ATOM      4  C   LIG    1       23.988 -21.567   4.644  0.00  0.00    +0.171 C 
ATOM      5  N   LIG    1       25.543 -19.701   4.567  0.00  0.00    -0.217 N 
ATOM      6  C   LIG    1       25.447 -18.578   3.734  0.00  0.00    +0.272 C 
ATOM      7  O   LIG    1       26.307 -17.872   3.234  0.00  0.00    -0.266 OA
ATOM      8  C   LIG    1       24.006 -18.279   3.598  0.00  0.00    +0.094 C 
ENDROOT
BRANCH   5   9
ATOM      9  C   LIG    1       26.676 -20.059   5.342  0.00  0.00    +0.067 A 
ATOM     10  C   LIG    1       26.611 -21.085   6.298  0.00  0.00    +0.028 A 
ATOM     11  C   LIG    1       27.730 -21.434   7.061  0.00  0.00    +0.002 A 
ATOM     12  C   LIG    1       28.933 -20.759   6.882  0.00  0.00    +0.000 A 
ATOM     13  C   LIG    1       29.016 -19.733   5.947  0.00  0.00    +0.002 A 
ATOM     14  C   LIG    1       27.895 -19.385   5.186  0.00  0.00    +0.028 A 
ENDBRANCH   5   9
TORSDOF 1
ENDMDL
MODEL 2
REMARK VINA RESULT:      -3.9      2.831      4.867
REMARK  Name = *****
REMARK                            x       y       z     vdW  Elec       q    Type
REMARK                         _______ _______ _______ _____ _____    ______ ____
ROOT
ATOM      1  C   LIG    1       24.162 -21.572   5.556  0.00  0.00    +0.065 C 
ATOM      2  C   LIG    1       23.650 -20.299   4.970  0.00  0.00    +0.038 C 
ATOM      3  N   LIG    1       24.514 -19.313   4.481  0.00  0.00    -0.284 N 
ATOM      4  C   LIG    1       25.521 -19.716   3.484  0.00  0.00    +0.171 C 
ATOM      5  N   LIG    1       23.665 -18.250   4.045  0.00  0.00    -0.217 N 
ATOM      6  C   LIG    1       22.329 -18.636   4.217  0.00  0.00    +0.272 C 
ATOM      7  O   LIG    1       21.286 -18.039   4.007  0.00  0.00    -0.266 OA
ATOM      8  C   LIG    1       22.356 -19.979   4.834  0.00  0.00    +0.094 C 
ENDROOT
BRANCH   5   9
ATOM      9  C   LIG    1       24.132 -16.914   3.940  0.00  0.00    +0.067 A 
ATOM     10  C   LIG    1       25.411 -16.626   3.441  0.00  0.00    +0.028 A 
ATOM     11  C   LIG    1       25.867 -15.307   3.341  0.00  0.00    +0.002 A 
ATOM     12  C   LIG    1       25.051 -14.255   3.741  0.00  0.00    +0.000 A 
ATOM     13  C   LIG    1       23.782 -14.521   4.247  0.00  0.00    +0.002 A 
ATOM     14  C   LIG    1       23.328 -15.840   4.348  0.00  0.00    +0.028 A 
ENDBRANCH   5   9
TORSDOF 1
ENDMDL
MODEL 3
REMARK VINA RESULT:      -3.9      3.453      5.368
REMARK  Name = *****
REMARK                            x       y       z     vdW  Elec       q    Type
REMARK                         _______ _______ _______ _____ _____    ______ ____
ROOT
ATOM      1  C   LIG    1       26.157 -12.896   2.352  0.00  0.00    +0.065 C 
ATOM      2  C   LIG    1       25.351 -13.916   3.083  0.00  0.00    +0.038 C 
ATOM      3  N   LIG    1       25.770 -15.248   3.190  0.00  0.00    -0.284 N 
ATOM      4  C   LIG    1       27.122 -15.501   3.718  0.00  0.00    +0.171 C 
ATOM      5  N   LIG    1       24.735 -15.911   3.917  0.00  0.00    -0.217 N 
ATOM      6  C   LIG    1       23.761 -14.972   4.281  0.00  0.00    +0.272 C 
ATOM      7  O   LIG    1       22.704 -15.099   4.877  0.00  0.00    -0.266 OA
ATOM      8  C   LIG    1       24.192 -13.678   3.710  0.00  0.00    +0.094 C 
ENDROOT
BRANCH   5   9
ATOM      9  C   LIG    1       24.535 -17.313   3.822  0.00  0.00    +0.067 A 
ATOM     10  C   LIG    1       25.562 -18.169   3.396  0.00  0.00    +0.028 A 
ATOM     11  C   LIG    1       25.361 -19.550   3.304  0.00  0.00    +0.002 A 
ATOM     12  C   LIG    1       24.126 -20.098   3.635  0.00  0.00    +0.000 A 
ATOM     13  C   LIG    1       23.092 -19.265   4.051  0.00  0.00    +0.002 A 
ATOM     14  C   LIG    1       23.295 -17.884   4.141  0.00  0.00    +0.028 A 
ENDBRANCH   5   9
TORSDOF 1
ENDMDL
MODEL 4
REMARK VINA RESULT:      -3.8      3.493      5.312
REMARK  Name = *****
REMARK                            x       y       z     vdW  Elec       q    Type
REMARK                         _______ _______ _______ _____ _____    ______ ____
ROOT
ATOM      1  C   LIG    1       26.101 -12.818   2.350  0.00  0.00    +0.065 C 
ATOM      2  C   LIG    1       25.320 -13.851   3.090  0.00  0.00    +0.038 C 
ATOM      3  N   LIG    1       25.747 -15.182   3.169  0.00  0.00    -0.284 N 
ATOM      4  C   LIG    1       27.114 -15.436   3.656  0.00  0.00    +0.171 C 
ATOM      5  N   LIG    1       24.735 -15.859   3.915  0.00  0.00    -0.217 N 
ATOM      6  C   LIG    1       23.768 -14.929   4.318  0.00  0.00    +0.272 C 
ATOM      7  O   LIG    1       22.728 -15.068   4.942  0.00  0.00    -0.266 OA
ATOM      8  C   LIG    1       24.177 -13.626   3.752  0.00  0.00    +0.094 C 
ENDROOT
BRANCH   5   9
ATOM      9  C   LIG    1       24.538 -17.260   3.808  0.00  0.00    +0.067 A 
ATOM     10  C   LIG    1       23.307 -17.851   4.135  0.00  0.00    +0.028 A 
ATOM     11  C   LIG    1       23.118 -19.233   4.029  0.00  0.00    +0.002 A 
ATOM     12  C   LIG    1       24.160 -20.048   3.596  0.00  0.00    +0.000 A 
ATOM     13  C   LIG    1       25.390 -19.483   3.277  0.00  0.00    +0.002 A 
ATOM     14  C   LIG    1       25.578 -18.101   3.385  0.00  0.00    +0.028 A 
ENDBRANCH   5   9
TORSDOF 1
ENDMDL
MODEL 5
REMARK VINA RESULT:      -3.2      3.078      4.656
REMARK  Name = *****
REMARK                            x       y       z     vdW  Elec       q    Type
REMARK                         _______ _______ _______ _____ _____    ______ ____
ROOT
ATOM      1  C   LIG    1       24.235 -21.570   4.885  0.00  0.00    +0.065 C 
ATOM      2  C   LIG    1       23.827 -20.160   4.618  0.00  0.00    +0.038 C 
ATOM      3  N   LIG    1       24.661 -19.269   3.932  0.00  0.00    -0.284 N 
ATOM      4  C   LIG    1       25.173 -19.685   2.615  0.00  0.00    +0.171 C 
ATOM      5  N   LIG    1       23.951 -18.030   3.908  0.00  0.00    -0.217 N 
ATOM      6  C   LIG    1       22.700 -18.212   4.513  0.00  0.00    +0.272 C 
ATOM      7  O   LIG    1       21.792 -17.427   4.734  0.00  0.00    -0.266 OA
ATOM      8  C   LIG    1       22.657 -19.615   4.975  0.00  0.00    +0.094 C 
ENDROOT
BRANCH   5   9
ATOM      9  C   LIG    1       24.618 -16.788   3.749  0.00  0.00    +0.067 A 
ATOM     10  C   LIG    1       23.960 -15.571   3.983  0.00  0.00    +0.028 A 
ATOM     11  C   LIG    1       24.622 -14.349   3.824  0.00  0.00    +0.002 A 
ATOM     12  C   LIG    1       25.954 -14.324   3.425  0.00  0.00    +0.000 A 
ATOM     13  C   LIG    1       26.621 -15.520   3.179  0.00  0.00    +0.002 A 
ATOM     14  C   LIG    1       25.958 -16.741   3.337  0.00  0.00    +0.028 A 
ENDBRANCH   5   9
TORSDOF 1
ENDMDL
MODEL 6
REMARK VINA RESULT:      -3.1      3.592      5.607
REMARK  Name = *****
REMARK                            x       y       z     vdW  Elec       q    Type
REMARK                         _______ _______ _______ _____ _____    ______ ____
ROOT
ATOM      1  C   LIG    1       25.716 -12.389   4.831  0.00  0.00    +0.065 C 
ATOM      2  C   LIG    1       25.734 -13.793   4.330  0.00  0.00    +0.038 C 
ATOM      3  N   LIG    1       24.557 -14.537   4.178  0.00  0.00    -0.284 N 
ATOM      4  C   LIG    1       23.473 -13.947   3.374  0.00  0.00    +0.171 C 
ATOM      5  N   LIG    1       24.980 -15.822   3.720  0.00  0.00    -0.217 N 
ATOM      6  C   LIG    1       26.370 -15.808   3.547  0.00  0.00    +0.272 C 
ATOM      7  O   LIG    1       27.147 -16.685   3.203  0.00  0.00    -0.266 OA
ATOM      8  C   LIG    1       26.832 -14.468   3.966  0.00  0.00    +0.094 C 
ENDROOT
BRANCH   5   9
ATOM      9  C   LIG    1       24.182 -16.981   3.903  0.00  0.00    +0.067 A 
ATOM     10  C   LIG    1       24.661 -18.257   3.568  0.00  0.00    +0.028 A 
ATOM     11  C   LIG    1       23.870 -19.397   3.749  0.00  0.00    +0.002 A 
ATOM     12  C   LIG    1       22.585 -19.278   4.267  0.00  0.00    +0.000 A 
ATOM     13  C   LIG    1       22.088 -18.021   4.597  0.00  0.00    +0.002 A 
ATOM     14  C   LIG    1       22.880 -16.882   4.414  0.00  0.00    +0.028 A 
ENDBRANCH   5   9
TORSDOF 1
ENDMDL
MODEL 7
REMARK VINA RESULT:      -2.9      3.733      5.563
REMARK  Name = *****
REMARK                            x       y       z     vdW  Elec       q    Type
REMARK                         _______ _______ _______ _____ _____    ______ ____
ROOT
ATOM      1  C   LIG    1       24.515 -11.961   4.970  0.00  0.00    +0.065 C 
ATOM      2  C   LIG    1       25.076 -13.255   4.485  0.00  0.00    +0.038 C 
ATOM      3  N   LIG    1       24.250 -14.311   4.079  0.00  0.00    -0.284 N 
ATOM      4  C   LIG    1       23.228 -14.027   3.056  0.00  0.00    +0.171 C 
ATOM      5  N   LIG    1       25.140 -15.371   3.725  0.00  0.00    -0.217 N 
ATOM      6  C   LIG    1       26.459 -14.921   3.862  0.00  0.00    +0.272 C 
ATOM      7  O   LIG    1       27.525 -15.492   3.697  0.00  0.00    -0.266 OA
ATOM      8  C   LIG    1       26.380 -13.536   4.371  0.00  0.00    +0.094 C 
ENDROOT
BRANCH   5   9
ATOM      9  C   LIG    1       24.725 -16.728   3.729  0.00  0.00    +0.067 A 
ATOM     10  C   LIG    1       25.590 -17.756   3.323  0.00  0.00    +0.028 A 
ATOM     11  C   LIG    1       25.177 -19.092   3.328  0.00  0.00    +0.002 A 
ATOM     12  C   LIG    1       23.889 -19.422   3.737  0.00  0.00    +0.000 A 
ATOM     13  C   LIG    1       23.013 -18.416   4.135  0.00  0.00    +0.002 A 
ATOM     14  C   LIG    1       23.428 -17.081   4.128  0.00  0.00    +0.028 A 
ENDBRANCH   5   9
TORSDOF 1
ENDMDL
MODEL 8
REMARK VINA RESULT:      -2.9      5.094      6.229
REMARK  Name = *****
REMARK                            x       y       z     vdW  Elec       q    Type
REMARK                         _______ _______ _______ _____ _____    ______ ____
ROOT
ATOM      1  C   LIG    1       22.709 -16.792   4.567  0.00  0.00    +0.065 C 
ATOM      2  C   LIG    1       23.462 -15.577   4.142  0.00  0.00    +0.038 C 
ATOM      3  N   LIG    1       24.861 -15.562   4.079  0.00  0.00    -0.284 N 
ATOM      4  C   LIG    1       25.523 -16.615   3.290  0.00  0.00    +0.171 C 
ATOM      5  N   LIG    1       25.205 -14.236   3.674  0.00  0.00    -0.217 N 
ATOM      6  C   LIG    1       24.028 -13.511   3.443  0.00  0.00    +0.272 C 
ATOM      7  O   LIG    1       23.851 -12.350   3.115  0.00  0.00    -0.266 OA
ATOM      8  C   LIG    1       22.907 -14.417   3.770  0.00  0.00    +0.094 C 
ENDROOT
BRANCH   5   9
ATOM      9  C   LIG    1       26.479 -13.676   3.951  0.00  0.00    +0.067 A 
ATOM     10  C   LIG    1       27.424 -13.473   2.933  0.00  0.00    +0.028 A 
ATOM     11  C   LIG    1       28.679 -12.921   3.212  0.00  0.00    +0.002 A 
ATOM     12  C   LIG    1       29.010 -12.566   4.515  0.00  0.00    +0.000 A 
ATOM     13  C   LIG    1       28.090 -12.768   5.540  0.00  0.00    +0.002 A 
ATOM     14  C   LIG    1       26.837 -13.321   5.260  0.00  0.00    +0.028 A 
ENDBRANCH   5   9
TORSDOF 1
ENDMDL
MODEL 9
REMARK VINA RESULT:      -2.9      3.677      5.457
REMARK  Name = *****
REMARK                            x       y       z     vdW  Elec       q    Type
REMARK                         _______ _______ _______ _____ _____    ______ ____
ROOT
ATOM      1  C   LIG    1       24.587 -12.020   4.931  0.00  0.00    +0.065 C 
ATOM      2  C   LIG    1       25.128 -13.328   4.460  0.00  0.00    +0.038 C 
ATOM      3  N   LIG    1       24.286 -14.370   4.054  0.00  0.00    -0.284 N 
ATOM      4  C   LIG    1       23.279 -14.075   3.020  0.00  0.00    +0.171 C 
ATOM      5  N   LIG    1       25.159 -15.449   3.715  0.00  0.00    -0.217 N 
ATOM      6  C   LIG    1       26.486 -15.023   3.861  0.00  0.00    +0.272 C 
ATOM      7  O   LIG    1       27.542 -15.615   3.709  0.00  0.00    -0.266 OA
ATOM      8  C   LIG    1       26.428 -13.633   4.360  0.00  0.00    +0.094 C 
ENDROOT
BRANCH   5   9
ATOM      9  C   LIG    1       24.720 -16.798   3.725  0.00  0.00    +0.067 A 
ATOM     10  C   LIG    1       23.415 -17.137   4.116  0.00  0.00    +0.028 A 
ATOM     11  C   LIG    1       22.986 -18.469   4.124  0.00  0.00    +0.002 A 
ATOM     12  C   LIG    1       23.857 -19.484   3.743  0.00  0.00    +0.000 A 
ATOM     13  C   LIG    1       25.158 -19.169   3.361  0.00  0.00    +0.002 A 
ATOM     14  C   LIG    1       25.585 -17.837   3.355  0.00  0.00    +0.028 A 
ENDBRANCH   5   9
TORSDOF 1
ENDMDL
