MODEL 1
REMARK VINA RESULT:      -5.8      0.000      0.000
REMARK  Name = *****
REMARK                            x       y       z     vdW  Elec       q    Type
REMARK                         _______ _______ _______ _____ _____    ______ ____
ROOT
ATOM      1  C   LIG    1       26.781 -15.301   3.249  0.00  0.00    +0.152 C 
ENDROOT
BRANCH   1   2
ATOM      2  C   LIG    1       26.800 -16.797   3.685  0.00  0.00    +0.034 C 
BRANCH   2   3
ATOM      3  C   LIG    1       25.758 -17.740   3.053  0.00  0.00    +0.006 C 
BRANCH   3   4
ATOM      4  C   LIG    1       25.052 -18.699   4.061  0.00  0.00    -0.011 C 
BRANCH   4   5
ATOM      5  C   LIG    1       25.811 -20.040   4.260  0.00  0.00    -0.000 C 
ATOM      6  C   LIG    1       26.647 -20.159   5.522  0.00  0.00    +0.004 C 
ENDBRANCH   4   5
BRANCH   4   7
ATOM      7  C   LIG    1       23.585 -19.091   3.723  0.00  0.00    +0.003 C 
BRANCH   7   8
ATOM      8  C   LIG    1       22.558 -19.183   4.860  0.00  0.00    -0.000 C 
BRANCH   8  10
ATOM      9  C   LIG    1       23.187 -20.868   6.684  0.00  0.00    +0.004 C 
ATOM     10  C   LIG    1       22.458 -20.637   5.368  0.00  0.00    -0.003 C 
ENDBRANCH   8  10
ENDBRANCH   7   8
ENDBRANCH   4   7
ENDBRANCH   3   4
ENDBRANCH   2   3
ENDBRANCH   1   2
BRANCH   1  11
ATOM     11  O   LIG    1       27.367 -14.489   4.278  0.00  0.00    -0.212 OA
BRANCH  11  12
ATOM     12  S   LIG    1       28.059 -13.050   3.970  0.00  0.00    +0.208 S 
ATOM     13  O   LIG    1       28.414 -12.415   5.210  0.00  0.00    -0.118 OA
ATOM     14  O   LIG    1       27.308 -12.359   2.936  0.00  0.00    -0.118 OA
BRANCH  12  15
ATOM     15  O   LIG    1       29.463 -13.486   3.310  0.00  0.00    -0.231 OA
ATOM     16  H   LIG    1       29.645 -14.404   3.594  0.00  0.00    +0.247 HD
ENDBRANCH  12  15
ENDBRANCH  11  12
ENDBRANCH   1  11
BRANCH   1  17
ATOM     17  C   LIG    1       25.332 -14.759   3.050  0.00  0.00    +0.037 C 
BRANCH  17  18
ATOM     18  C   LIG    1       24.576 -14.340   4.343  0.00  0.00    -0.015 C 
ATOM     19  C   LIG    1       23.288 -15.162   4.541  0.00  0.00    +0.007 C 
ATOM     20  C   LIG    1       24.208 -12.854   4.361  0.00  0.00    +0.007 C 
ENDBRANCH  17  18
ENDBRANCH   1  17
TORSDOF 12
ENDMDL
MODEL 2
REMARK VINA RESULT:      -5.6      1.077      2.308
REMARK  Name = *****
REMARK                            x       y       z     vdW  Elec       q    Type
REMARK                         _______ _______ _______ _____ _____    ______ ____
ROOT
ATOM      1  C   LIG    1       26.173 -15.324   3.240  0.00  0.00    +0.152 C 
ENDROOT
BRANCH   1   2
ATOM      2  C   LIG    1       26.083 -16.878   3.279  0.00  0.00    +0.034 C 
BRANCH   2   3
ATOM      3  C   LIG    1       24.717 -17.508   3.616  0.00  0.00    +0.006 C 
BRANCH   3   4
ATOM      4  C   LIG    1       24.694 -19.067   3.587  0.00  0.00    -0.011 C 
BRANCH   4   5
ATOM      5  C   LIG    1       23.353 -19.666   4.096  0.00  0.00    -0.000 C 
ATOM      6  C   LIG    1       22.303 -18.669   4.554  0.00  0.00    +0.004 C 
ENDBRANCH   4   5
BRANCH   4   7
ATOM      7  C   LIG    1       25.811 -19.785   4.398  0.00  0.00    +0.003 C 
BRANCH   7   8
ATOM      8  C   LIG    1       25.411 -20.743   5.529  0.00  0.00    -0.000 C 
BRANCH   8  10
ATOM      9  C   LIG    1       27.780 -20.383   6.436  0.00  0.00    +0.004 C 
ATOM     10  C   LIG    1       26.299 -20.501   6.767  0.00  0.00    -0.003 C 
ENDBRANCH   8  10
ENDBRANCH   7   8
ENDBRANCH   4   7
ENDBRANCH   3   4
ENDBRANCH   2   3
ENDBRANCH   1   2
BRANCH   1  11
ATOM     11  O   LIG    1       27.487 -14.905   3.638  0.00  0.00    -0.212 OA
BRANCH  11  12
ATOM     12  S   LIG    1       27.886 -13.341   3.838  0.00  0.00    +0.208 S 
ATOM     13  O   LIG    1       27.768 -12.992   5.227  0.00  0.00    -0.118 OA
ATOM     14  O   LIG    1       27.276 -12.544   2.787  0.00  0.00    -0.118 OA
BRANCH  12  15
ATOM     15  O   LIG    1       29.471 -13.358   3.547  0.00  0.00    -0.231 OA
ATOM     16  H   LIG    1       29.787 -12.434   3.606  0.00  0.00    +0.247 HD
ENDBRANCH  12  15
ENDBRANCH  11  12
ENDBRANCH   1  11
BRANCH   1  17
ATOM     17  C   LIG    1       25.187 -14.646   4.242  0.00  0.00    +0.037 C 
BRANCH  17  18
ATOM     18  C   LIG    1       24.120 -13.702   3.617  0.00  0.00    -0.015 C 
ATOM     19  C   LIG    1       24.471 -13.330   2.163  0.00  0.00    +0.007 C 
ATOM     20  C   LIG    1       23.930 -12.409   4.414  0.00  0.00    +0.007 C 
ENDBRANCH  17  18
ENDBRANCH   1  17
TORSDOF 12
ENDMDL
MODEL 3
REMARK VINA RESULT:      -5.4      3.477      6.225
REMARK  Name = *****
REMARK                            x       y       z     vdW  Elec       q    Type
REMARK                         _______ _______ _______ _____ _____    ______ ____
ROOT
ATOM      1  C   LIG    1       25.492 -19.109   4.342  0.00  0.00    +0.152 C 
ENDROOT
BRANCH   1   2
ATOM      2  C   LIG    1       25.843 -17.995   3.312  0.00  0.00    +0.034 C 
BRANCH   2   3
ATOM      3  C   LIG    1       26.974 -17.014   3.676  0.00  0.00    +0.006 C 
BRANCH   3   4
ATOM      4  C   LIG    1       26.675 -15.520   3.339  0.00  0.00    -0.011 C 
BRANCH   4   5
ATOM      5  C   LIG    1       27.430 -14.524   4.263  0.00  0.00    -0.000 C 
ATOM      6  C   LIG    1       28.190 -13.408   3.568  0.00  0.00    +0.004 C 
ENDBRANCH   4   5
BRANCH   4   7
ATOM      7  C   LIG    1       25.180 -15.092   3.390  0.00  0.00    +0.003 C 
BRANCH   7   8
ATOM      8  C   LIG    1       24.729 -14.089   4.460  0.00  0.00    -0.000 C 
BRANCH   8  10
ATOM      9  C   LIG    1       24.441 -12.735   2.305  0.00  0.00    +0.004 C 
ATOM     10  C   LIG    1       24.131 -12.833   3.792  0.00  0.00    -0.003 C 
ENDBRANCH   8  10
ENDBRANCH   7   8
ENDBRANCH   4   7
ENDBRANCH   3   4
ENDBRANCH   2   3
ENDBRANCH   1   2
BRANCH   1  11
ATOM     11  O   LIG    1       26.642 -19.939   4.568  0.00  0.00    -0.212 OA
BRANCH  11  12
ATOM     12  S   LIG    1       27.417 -19.993   5.997  0.00  0.00    +0.208 S 
ATOM     13  O   LIG    1       26.453 -20.050   7.062  0.00  0.00    -0.118 OA
ATOM     14  O   LIG    1       28.511 -19.036   5.995  0.00  0.00    -0.118 OA
BRANCH  12  15
ATOM     15  O   LIG    1       28.084 -21.459   5.962  0.00  0.00    -0.231 OA
ATOM     16  H   LIG    1       28.015 -21.831   6.864  0.00  0.00    +0.247 HD
ENDBRANCH  12  15
ENDBRANCH  11  12
ENDBRANCH   1  11
BRANCH   1  17
ATOM     17  C   LIG    1       24.371 -20.063   3.827  0.00  0.00    +0.037 C 
BRANCH  17  18
ATOM     18  C   LIG    1       23.012 -19.990   4.580  0.00  0.00    -0.015 C 
ATOM     19  C   LIG    1       22.377 -18.590   4.472  0.00  0.00    +0.007 C 
ATOM     20  C   LIG    1       23.134 -20.352   6.063  0.00  0.00    +0.007 C 
ENDBRANCH  17  18
ENDBRANCH   1  17
TORSDOF 12
ENDMDL
MODEL 4
REMARK VINA RESULT:      -5.2      2.391      3.779
REMARK  Name = *****
REMARK                            x       y       z     vdW  Elec       q    Type
REMARK                         _______ _______ _______ _____ _____    ______ ____
ROOT
ATOM      1  C   LIG    1       26.180 -15.627   3.885  0.00  0.00    +0.152 C 
ENDROOT
BRANCH   1   2
ATOM      2  C   LIG    1       26.088 -17.057   3.274  0.00  0.00    +0.034 C 
BRANCH   2   3
ATOM      3  C   LIG    1       24.807 -17.870   3.546  0.00  0.00    +0.006 C 
BRANCH   3   4
ATOM      4  C   LIG    1       25.032 -19.406   3.700  0.00  0.00    -0.011 C 
BRANCH   4   5
ATOM      5  C   LIG    1       23.775 -20.155   4.224  0.00  0.00    -0.000 C 
ATOM      6  C   LIG    1       22.612 -19.287   4.671  0.00  0.00    +0.004 C 
ENDBRANCH   4   5
BRANCH   4   7
ATOM      7  C   LIG    1       26.200 -19.839   4.632  0.00  0.00    +0.003 C 
BRANCH   7   8
ATOM      8  C   LIG    1       25.873 -20.504   5.976  0.00  0.00    -0.000 C 
BRANCH   8  10
ATOM      9  C   LIG    1       28.359 -19.935   6.214  0.00  0.00    +0.004 C 
ATOM     10  C   LIG    1       27.110 -20.473   6.897  0.00  0.00    -0.003 C 
ENDBRANCH   8  10
ENDBRANCH   7   8
ENDBRANCH   4   7
ENDBRANCH   3   4
ENDBRANCH   2   3
ENDBRANCH   1   2
BRANCH   1  11
ATOM     11  O   LIG    1       25.339 -14.729   3.145  0.00  0.00    -0.212 OA
BRANCH  11  12
ATOM     12  S   LIG    1       24.054 -13.985   3.808  0.00  0.00    +0.208 S 
ATOM     13  O   LIG    1       24.500 -12.865   4.590  0.00  0.00    -0.118 OA
ATOM     14  O   LIG    1       23.135 -14.979   4.337  0.00  0.00    -0.118 OA
BRANCH  12  15
ATOM     15  O   LIG    1       23.340 -13.334   2.519  0.00  0.00    -0.231 OA
ATOM     16  H   LIG    1       24.047 -12.970   1.948  0.00  0.00    +0.247 HD
ENDBRANCH  12  15
ENDBRANCH  11  12
ENDBRANCH   1  11
BRANCH   1  17
ATOM     17  C   LIG    1       27.621 -15.035   3.797  0.00  0.00    +0.037 C 
BRANCH  17  18
ATOM     18  C   LIG    1       27.758 -13.519   4.120  0.00  0.00    -0.015 C 
ATOM     19  C   LIG    1       29.130 -12.967   3.688  0.00  0.00    +0.007 C 
ATOM     20  C   LIG    1       27.558 -13.208   5.605  0.00  0.00    +0.007 C 
ENDBRANCH  17  18
ENDBRANCH   1  17
TORSDOF 12
ENDMDL
MODEL 5
REMARK VINA RESULT:      -5.0      4.576      7.006
REMARK  Name = *****
REMARK                            x       y       z     vdW  Elec       q    Type
REMARK                         _______ _______ _______ _____ _____    ______ ____
ROOT
ATOM      1  C   LIG    1       25.279 -19.744   4.096  0.00  0.00    +0.152 C 
ENDROOT
BRANCH   1   2
ATOM      2  C   LIG    1       25.069 -18.267   3.648  0.00  0.00    +0.034 C 
BRANCH   2   3
ATOM      3  C   LIG    1       26.323 -17.434   3.318  0.00  0.00    +0.006 C 
BRANCH   3   4
ATOM      4  C   LIG    1       26.088 -15.893   3.274  0.00  0.00    -0.011 C 
BRANCH   4   5
ATOM      5  C   LIG    1       27.189 -15.088   4.020  0.00  0.00    -0.000 C 
ATOM      6  C   LIG    1       27.816 -13.937   3.253  0.00  0.00    +0.004 C 
ENDBRANCH   4   5
BRANCH   4   7
ATOM      7  C   LIG    1       24.734 -15.388   3.850  0.00  0.00    +0.003 C 
BRANCH   7   8
ATOM      8  C   LIG    1       24.608 -13.921   4.281  0.00  0.00    -0.000 C 
BRANCH   8  10
ATOM      9  C   LIG    1       24.721 -12.585   2.098  0.00  0.00    +0.004 C 
ATOM     10  C   LIG    1       23.834 -13.119   3.215  0.00  0.00    -0.003 C 
ENDBRANCH   8  10
ENDBRANCH   7   8
ENDBRANCH   4   7
ENDBRANCH   3   4
ENDBRANCH   2   3
ENDBRANCH   1   2
BRANCH   1  11
ATOM     11  O   LIG    1       24.023 -20.439   4.074  0.00  0.00    -0.212 OA
BRANCH  11  12
ATOM     12  S   LIG    1       22.833 -20.134   5.140  0.00  0.00    +0.208 S 
ATOM     13  O   LIG    1       22.161 -18.918   4.773  0.00  0.00    -0.118 OA
ATOM     14  O   LIG    1       23.316 -20.372   6.491  0.00  0.00    -0.118 OA
BRANCH  12  15
ATOM     15  O   LIG    1       21.778 -21.307   4.812  0.00  0.00    -0.231 OA
ATOM     16  H   LIG    1       21.763 -21.421   3.841  0.00  0.00    +0.247 HD
ENDBRANCH  12  15
ENDBRANCH  11  12
ENDBRANCH   1  11
BRANCH   1  17
ATOM     17  C   LIG    1       25.801 -19.851   5.563  0.00  0.00    +0.037 C 
BRANCH  17  18
ATOM     18  C   LIG    1       27.242 -20.412   5.735  0.00  0.00    -0.015 C 
ATOM     19  C   LIG    1       27.397 -21.181   7.061  0.00  0.00    +0.007 C 
ATOM     20  C   LIG    1       28.314 -19.322   5.680  0.00  0.00    +0.007 C 
ENDBRANCH  17  18
ENDBRANCH   1  17
TORSDOF 12
ENDMDL
MODEL 6
REMARK VINA RESULT:      -4.9      2.188      3.052
REMARK  Name = *****
REMARK                            x       y       z     vdW  Elec       q    Type
REMARK                         _______ _______ _______ _____ _____    ______ ____
ROOT
ATOM      1  C   LIG    1       25.836 -15.100   3.665  0.00  0.00    +0.152 C 
ENDROOT
BRANCH   1   2
ATOM      2  C   LIG    1       25.184 -16.463   3.288  0.00  0.00    +0.034 C 
BRANCH   2   3
ATOM      3  C   LIG    1       26.072 -17.722   3.346  0.00  0.00    +0.006 C 
BRANCH   3   4
ATOM      4  C   LIG    1       25.471 -18.905   4.165  0.00  0.00    -0.011 C 
BRANCH   4   5
ATOM      5  C   LIG    1       26.547 -19.913   4.657  0.00  0.00    -0.000 C 
ATOM      6  C   LIG    1       26.448 -20.346   6.110  0.00  0.00    +0.004 C 
ENDBRANCH   4   5
BRANCH   4   7
ATOM      7  C   LIG    1       24.391 -19.761   3.443  0.00  0.00    +0.003 C 
BRANCH   7   8
ATOM      8  C   LIG    1       23.368 -20.535   4.286  0.00  0.00    -0.000 C 
BRANCH   8  10
ATOM      9  C   LIG    1       22.047 -18.347   4.455  0.00  0.00    +0.004 C 
ATOM     10  C   LIG    1       22.585 -19.564   5.194  0.00  0.00    -0.003 C 
ENDBRANCH   8  10
ENDBRANCH   7   8
ENDBRANCH   4   7
ENDBRANCH   3   4
ENDBRANCH   2   3
ENDBRANCH   1   2
BRANCH   1  11
ATOM     11  O   LIG    1       25.529 -14.122   2.660  0.00  0.00    -0.212 OA
BRANCH  11  12
ATOM     12  S   LIG    1       24.485 -12.901   2.914  0.00  0.00    +0.208 S 
ATOM     13  O   LIG    1       24.591 -11.949   1.843  0.00  0.00    -0.118 OA
ATOM     14  O   LIG    1       24.534 -12.501   4.311  0.00  0.00    -0.118 OA
BRANCH  12  15
ATOM     15  O   LIG    1       23.062 -13.623   2.689  0.00  0.00    -0.231 OA
ATOM     16  H   LIG    1       22.696 -13.286   1.847  0.00  0.00    +0.247 HD
ENDBRANCH  12  15
ENDBRANCH  11  12
ENDBRANCH   1  11
BRANCH   1  17
ATOM     17  C   LIG    1       27.394 -15.181   3.721  0.00  0.00    +0.037 C 
BRANCH  17  18
ATOM     18  C   LIG    1       28.104 -14.092   4.576  0.00  0.00    -0.015 C 
ATOM     19  C   LIG    1       27.170 -13.523   5.661  0.00  0.00    +0.007 C 
ATOM     20  C   LIG    1       28.634 -12.929   3.735  0.00  0.00    +0.007 C 
ENDBRANCH  17  18
ENDBRANCH   1  17
TORSDOF 12
ENDMDL
MODEL 7
REMARK VINA RESULT:      -4.2      3.348      6.393
REMARK  Name = *****
REMARK                            x       y       z     vdW  Elec       q    Type
REMARK                         _______ _______ _______ _____ _____    ______ ____
ROOT
ATOM      1  C   LIG    1       25.861 -19.211   4.463  0.00  0.00    +0.152 C 
ENDROOT
BRANCH   1   2
ATOM      2  C   LIG    1       26.101 -18.006   3.505  0.00  0.00    +0.034 C 
BRANCH   2   3
ATOM      3  C   LIG    1       24.957 -16.988   3.335  0.00  0.00    +0.006 C 
BRANCH   3   4
ATOM      4  C   LIG    1       25.276 -15.555   3.862  0.00  0.00    -0.011 C 
BRANCH   4   5
ATOM      5  C   LIG    1       24.002 -14.701   4.116  0.00  0.00    -0.000 C 
ATOM      6  C   LIG    1       24.065 -13.252   3.667  0.00  0.00    +0.004 C 
ENDBRANCH   4   5
BRANCH   4   7
ATOM      7  C   LIG    1       26.197 -14.681   2.963  0.00  0.00    +0.003 C 
BRANCH   7   8
ATOM      8  C   LIG    1       27.651 -14.445   3.393  0.00  0.00    -0.000 C 
BRANCH   8  10
ATOM      9  C   LIG    1       27.241 -13.365   5.680  0.00  0.00    +0.004 C 
ATOM     10  C   LIG    1       27.748 -13.170   4.257  0.00  0.00    -0.003 C 
ENDBRANCH   8  10
ENDBRANCH   7   8
ENDBRANCH   4   7
ENDBRANCH   3   4
ENDBRANCH   2   3
ENDBRANCH   1   2
BRANCH   1  11
ATOM     11  O   LIG    1       27.070 -19.974   4.594  0.00  0.00    -0.212 OA
BRANCH  11  12
ATOM     12  S   LIG    1       28.128 -19.737   5.806  0.00  0.00    +0.208 S 
ATOM     13  O   LIG    1       27.431 -19.761   7.062  0.00  0.00    -0.118 OA
ATOM     14  O   LIG    1       29.045 -18.666   5.451  0.00  0.00    -0.118 OA
BRANCH  12  15
ATOM     15  O   LIG    1       28.982 -21.104   5.778  0.00  0.00    -0.231 OA
ATOM     16  H   LIG    1       28.502 -21.735   5.205  0.00  0.00    +0.247 HD
ENDBRANCH  12  15
ENDBRANCH  11  12
ENDBRANCH   1  11
BRANCH   1  17
ATOM     17  C   LIG    1       24.787 -20.201   3.914  0.00  0.00    +0.037 C 
BRANCH  17  18
ATOM     18  C   LIG    1       23.926 -20.935   4.981  0.00  0.00    -0.015 C 
ATOM     19  C   LIG    1       22.426 -20.625   4.813  0.00  0.00    +0.007 C 
ATOM     20  C   LIG    1       24.334 -20.588   6.415  0.00  0.00    +0.007 C 
ENDBRANCH  17  18
ENDBRANCH   1  17
TORSDOF 12
ENDMDL
MODEL 8
REMARK VINA RESULT:      -3.9      4.664      7.232
REMARK  Name = *****
REMARK                            x       y       z     vdW  Elec       q    Type
REMARK                         _______ _______ _______ _____ _____    ______ ____
ROOT
ATOM      1  C   LIG    1       24.949 -19.950   3.587  0.00  0.00    +0.152 C 
ENDROOT
BRANCH   1   2
ATOM      2  C   LIG    1       24.816 -18.442   3.954  0.00  0.00    +0.034 C 
BRANCH   2   3
ATOM      3  C   LIG    1       25.786 -17.453   3.278  0.00  0.00    +0.006 C 
BRANCH   3   4
ATOM      4  C   LIG    1       25.671 -15.981   3.781  0.00  0.00    -0.011 C 
BRANCH   4   5
ATOM      5  C   LIG    1       24.281 -15.347   3.495  0.00  0.00    -0.000 C 
ATOM      6  C   LIG    1       23.409 -15.065   4.706  0.00  0.00    +0.004 C 
ENDBRANCH   4   5
BRANCH   4   7
ATOM      7  C   LIG    1       26.717 -14.978   3.214  0.00  0.00    +0.003 C 
BRANCH   7   8
ATOM      8  C   LIG    1       26.596 -13.492   3.577  0.00  0.00    -0.000 C 
BRANCH   8  10
ATOM      9  C   LIG    1       29.097 -12.956   3.711  0.00  0.00    +0.004 C 
ATOM     10  C   LIG    1       27.781 -13.065   4.468  0.00  0.00    -0.003 C 
ENDBRANCH   8  10
ENDBRANCH   7   8
ENDBRANCH   4   7
ENDBRANCH   3   4
ENDBRANCH   2   3
ENDBRANCH   1   2
BRANCH   1  11
ATOM     11  O   LIG    1       23.680 -20.602   3.755  0.00  0.00    -0.212 OA
BRANCH  11  12
ATOM     12  S   LIG    1       22.587 -20.121   4.859  0.00  0.00    +0.208 S 
ATOM     13  O   LIG    1       21.937 -18.925   4.399  0.00  0.00    -0.118 OA
ATOM     14  O   LIG    1       23.161 -20.225   6.191  0.00  0.00    -0.118 OA
BRANCH  12  15
ATOM     15  O   LIG    1       21.466 -21.273   4.747  0.00  0.00    -0.231 OA
ATOM     16  H   LIG    1       21.800 -21.943   4.117  0.00  0.00    +0.247 HD
ENDBRANCH  12  15
ENDBRANCH  11  12
ENDBRANCH   1  11
BRANCH   1  17
ATOM     17  C   LIG    1       25.944 -20.704   4.522  0.00  0.00    +0.037 C 
BRANCH  17  18
ATOM     18  C   LIG    1       26.548 -19.871   5.690  0.00  0.00    -0.015 C 
ATOM     19  C   LIG    1       28.066 -19.671   5.519  0.00  0.00    +0.007 C 
ATOM     20  C   LIG    1       26.295 -20.501   7.062  0.00  0.00    +0.007 C 
ENDBRANCH  17  18
ENDBRANCH   1  17
TORSDOF 12
ENDMDL
MODEL 9
REMARK VINA RESULT:      -3.9      3.183      6.590
REMARK  Name = *****
REMARK                            x       y       z     vdW  Elec       q    Type
REMARK                         _______ _______ _______ _____ _____    ______ ____
ROOT
ATOM      1  C   LIG    1       23.369 -17.602   4.582  0.00  0.00    +0.152 C 
ENDROOT
BRANCH   1   2
ATOM      2  C   LIG    1       22.988 -16.100   4.418  0.00  0.00    +0.034 C 
BRANCH   2   3
ATOM      3  C   LIG    1       23.987 -15.185   3.684  0.00  0.00    +0.006 C 
BRANCH   3   4
ATOM      4  C   LIG    1       24.252 -13.817   4.384  0.00  0.00    -0.011 C 
BRANCH   4   5
ATOM      5  C   LIG    1       23.935 -12.596   3.476  0.00  0.00    -0.000 C 
ATOM      6  C   LIG    1       24.421 -12.683   2.040  0.00  0.00    +0.004 C 
ENDBRANCH   4   5
BRANCH   4   7
ATOM      7  C   LIG    1       25.697 -13.585   4.912  0.00  0.00    +0.003 C 
BRANCH   7   8
ATOM      8  C   LIG    1       26.833 -14.474   4.388  0.00  0.00    -0.000 C 
BRANCH   8  10
ATOM      9  C   LIG    1       28.764 -12.874   3.860  0.00  0.00    +0.004 C 
ATOM     10  C   LIG    1       27.633 -13.726   3.301  0.00  0.00    -0.003 C 
ENDBRANCH   8  10
ENDBRANCH   7   8
ENDBRANCH   4   7
ENDBRANCH   3   4
ENDBRANCH   2   3
ENDBRANCH   1   2
BRANCH   1  11
ATOM     11  O   LIG    1       24.086 -18.049   3.421  0.00  0.00    -0.212 OA
BRANCH  11  12
ATOM     12  S   LIG    1       25.602 -18.632   3.497  0.00  0.00    +0.208 S 
ATOM     13  O   LIG    1       25.744 -19.443   4.675  0.00  0.00    -0.118 OA
ATOM     14  O   LIG    1       26.547 -17.578   3.167  0.00  0.00    -0.118 OA
BRANCH  12  15
ATOM     15  O   LIG    1       25.624 -19.674   2.269  0.00  0.00    -0.231 OA
ATOM     16  H   LIG    1       25.418 -20.558   2.634  0.00  0.00    +0.247 HD
ENDBRANCH  12  15
ENDBRANCH  11  12
ENDBRANCH   1  11
BRANCH   1  17
ATOM     17  C   LIG    1       22.116 -18.525   4.692  0.00  0.00    +0.037 C 
BRANCH  17  18
ATOM     18  C   LIG    1       22.399 -20.048   4.828  0.00  0.00    -0.015 C 
ATOM     19  C   LIG    1       21.144 -20.889   4.523  0.00  0.00    +0.007 C 
ATOM     20  C   LIG    1       22.915 -20.435   6.216  0.00  0.00    +0.007 C 
ENDBRANCH  17  18
ENDBRANCH   1  17
TORSDOF 12
ENDMDL
