MODEL 1
REMARK VINA RESULT:      -0.8      0.000      0.000
REMARK  Name = *****
REMARK                            x       y       z     vdW  Elec       q    Type
REMARK                         _______ _______ _______ _____ _____    ______ ____
ROOT
ATOM      1  O   LIG    1       28.595 -20.384   7.062  0.00  0.00    -0.490 OA
ENDROOT
BRANCH   1   5
ATOM      2  C   LIG    1       25.025 -20.388   4.847  0.00  0.00    -0.042 A 
ATOM      3  C   LIG    1       25.021 -20.797   6.177  0.00  0.00    +0.008 A 
ATOM      4  C   LIG    1       26.193 -20.816   6.928  0.00  0.00    +0.046 A 
ATOM      5  C   LIG    1       27.408 -20.379   6.377  0.00  0.00    +0.121 A 
ATOM      6  C   LIG    1       27.425 -19.914   5.078  0.00  0.00    +0.046 A 
ATOM      7  C   LIG    1       26.248 -19.905   4.321  0.00  0.00    +0.008 A 
BRANCH   2   8
ATOM      8  C   LIG    1       23.784 -20.565   3.961  0.00  0.00    -0.009 C 
ATOM      9  C   LIG    1       23.976 -21.571   2.811  0.00  0.00    +0.016 C 
ATOM     10  C   LIG    1       22.697 -21.244   4.875  0.00  0.00    +0.016 C 
BRANCH   8  11
ATOM     11  C   LIG    1       23.194 -19.202   3.451  0.00  0.00    +0.017 C 
BRANCH  11  13
ATOM     12  C   LIG    1       21.017 -18.037   3.870  0.00  0.00    +0.011 C 
ATOM     13  C   LIG    1       22.473 -18.166   4.388  0.00  0.00    -0.037 C 
ATOM     14  C   LIG    1       22.394 -18.623   5.853  0.00  0.00    +0.011 C 
ATOM     15  C   LIG    1       23.073 -16.752   4.355  0.00  0.00    +0.011 C 
ENDBRANCH  11  13
ENDBRANCH   8  11
ENDBRANCH   2   8
ENDBRANCH   1   5
BRANCH   1  16
ATOM     16  C   LIG    1       29.452 -19.278   6.774  0.00  0.00    +0.257 C 
BRANCH  16  17
ATOM     17  C   LIG    1       29.111 -18.678   5.417  0.00  0.00    +0.201 C 
BRANCH  17  18
ATOM     18  O   LIG    1       29.413 -17.274   5.419  0.00  0.00    -0.371 OA
BRANCH  18  19
ATOM     19  C   LIG    1       28.232 -16.483   5.341  0.00  0.00    +0.210 C 
BRANCH  19  20
ATOM     20  C   LIG    1       28.074 -15.890   3.929  0.00  0.00    +0.161 C 
BRANCH  20  21
ATOM     21  N   LIG    1       27.722 -14.376   3.893  0.00  0.00    +0.244 N 
ATOM     22  C   LIG    1       29.003 -13.543   3.771  0.00  0.00    +0.192 C 
ATOM     23  C   LIG    1       27.073 -14.004   5.227  0.00  0.00    +0.192 C 
BRANCH  21  24
ATOM     24  C   LIG    1       26.776 -14.008   2.730  0.00  0.00    +0.169 C 
BRANCH  24  25
ATOM     25  C   LIG    1       25.605 -13.106   3.052  0.00  0.00    -0.003 A 
ATOM     26  C   LIG    1       24.881 -12.480   2.024  0.00  0.00    +0.009 A 
ATOM     27  C   LIG    1       23.788 -11.659   2.316  0.00  0.00    +0.001 A 
ATOM     28  C   LIG    1       23.404 -11.447   3.637  0.00  0.00    +0.000 A 
ATOM     29  C   LIG    1       24.104 -12.065   4.668  0.00  0.00    +0.001 A 
ATOM     30  C   LIG    1       25.187 -12.898   4.378  0.00  0.00    +0.009 A 
ENDBRANCH  24  25
ENDBRANCH  21  24
ENDBRANCH  20  21
ENDBRANCH  19  20
ENDBRANCH  18  19
ENDBRANCH  17  18
ENDBRANCH  16  17
ENDBRANCH   1  16
TORSDOF 12
ENDMDL
MODEL 2
REMARK VINA RESULT:      -0.1      2.597      7.898
REMARK  Name = *****
REMARK                            x       y       z     vdW  Elec       q    Type
REMARK                         _______ _______ _______ _____ _____    ______ ____
ROOT
ATOM      1  O   LIG    1       22.962 -18.003   3.556  0.00  0.00    -0.490 OA
ENDROOT
BRANCH   1   5
ATOM      2  C   LIG    1       24.715 -14.208   3.979  0.00  0.00    -0.042 A 
ATOM      3  C   LIG    1       23.477 -14.473   4.557  0.00  0.00    +0.008 A 
ATOM      4  C   LIG    1       22.870 -15.719   4.420  0.00  0.00    +0.046 A 
ATOM      5  C   LIG    1       23.513 -16.761   3.732  0.00  0.00    +0.121 A 
ATOM      6  C   LIG    1       24.766 -16.539   3.201  0.00  0.00    +0.046 A 
ATOM      7  C   LIG    1       25.371 -15.283   3.329  0.00  0.00    +0.008 A 
BRANCH   2   8
ATOM      8  C   LIG    1       25.285 -12.783   3.948  0.00  0.00    -0.009 C 
ATOM      9  C   LIG    1       25.670 -12.295   2.538  0.00  0.00    +0.016 C 
ATOM     10  C   LIG    1       24.097 -11.836   4.361  0.00  0.00    +0.016 C 
BRANCH   8  11
ATOM     11  C   LIG    1       26.449 -12.566   4.978  0.00  0.00    +0.017 C 
BRANCH  11  13
ATOM     12  C   LIG    1       28.821 -12.137   5.662  0.00  0.00    +0.011 C 
ATOM     13  C   LIG    1       27.941 -12.976   4.699  0.00  0.00    -0.037 C 
ATOM     14  C   LIG    1       28.230 -14.456   4.993  0.00  0.00    +0.011 C 
ATOM     15  C   LIG    1       28.431 -12.661   3.277  0.00  0.00    +0.011 C 
ENDBRANCH  11  13
ENDBRANCH   8  11
ENDBRANCH   2   8
ENDBRANCH   1   5
BRANCH   1  16
ATOM     16  C   LIG    1       21.701 -18.192   4.201  0.00  0.00    +0.257 C 
BRANCH  16  17
ATOM     17  C   LIG    1       21.608 -19.591   4.793  0.00  0.00    +0.201 C 
BRANCH  17  18
ATOM     18  O   LIG    1       21.889 -20.566   3.778  0.00  0.00    -0.371 OA
BRANCH  18  19
ATOM     19  C   LIG    1       22.839 -21.529   4.222  0.00  0.00    +0.210 C 
BRANCH  19  20
ATOM     20  C   LIG    1       24.199 -20.858   4.491  0.00  0.00    +0.161 C 
BRANCH  20  21
ATOM     21  N   LIG    1       24.630 -20.833   5.984  0.00  0.00    +0.244 N 
ATOM     22  C   LIG    1       23.592 -21.568   6.841  0.00  0.00    +0.192 C 
ATOM     23  C   LIG    1       24.647 -19.378   6.455  0.00  0.00    +0.192 C 
BRANCH  21  24
ATOM     24  C   LIG    1       26.013 -21.476   6.220  0.00  0.00    +0.169 C 
BRANCH  24  25
ATOM     25  C   LIG    1       27.216 -20.559   6.173  0.00  0.00    -0.003 A 
ATOM     26  C   LIG    1       28.291 -20.745   7.058  0.00  0.00    +0.009 A 
ATOM     27  C   LIG    1       29.412 -19.912   7.008  0.00  0.00    +0.001 A 
ATOM     28  C   LIG    1       29.475 -18.878   6.077  0.00  0.00    +0.000 A 
ATOM     29  C   LIG    1       28.424 -18.683   5.187  0.00  0.00    +0.001 A 
ATOM     30  C   LIG    1       27.310 -19.525   5.226  0.00  0.00    +0.009 A 
ENDBRANCH  24  25
ENDBRANCH  21  24
ENDBRANCH  20  21
ENDBRANCH  19  20
ENDBRANCH  18  19
ENDBRANCH  17  18
ENDBRANCH  16  17
ENDBRANCH   1  16
TORSDOF 12
ENDMDL
MODEL 3
REMARK VINA RESULT:       2.0      1.990      6.648
REMARK  Name = *****
REMARK                            x       y       z     vdW  Elec       q    Type
REMARK                         _______ _______ _______ _____ _____    ______ ____
ROOT
ATOM      1  O   LIG    1       26.966 -19.192   4.238  0.00  0.00    -0.490 OA
ENDROOT
BRANCH   1   5
ATOM      2  C   LIG    1       26.948 -15.042   3.582  0.00  0.00    -0.042 A 
ATOM      3  C   LIG    1       28.027 -15.642   4.225  0.00  0.00    +0.008 A 
ATOM      4  C   LIG    1       28.050 -17.013   4.465  0.00  0.00    +0.046 A 
ATOM      5  C   LIG    1       27.004 -17.840   4.023  0.00  0.00    +0.121 A 
ATOM      6  C   LIG    1       25.952 -17.275   3.333  0.00  0.00    +0.046 A 
ATOM      7  C   LIG    1       25.924 -15.895   3.101  0.00  0.00    +0.008 A 
BRANCH   2   8
ATOM      8  C   LIG    1       26.822 -13.514   3.506  0.00  0.00    -0.009 C 
ATOM      9  C   LIG    1       28.174 -12.777   3.477  0.00  0.00    +0.016 C 
ATOM     10  C   LIG    1       26.196 -13.204   2.096  0.00  0.00    +0.016 C 
BRANCH   8  11
ATOM     11  C   LIG    1       25.858 -12.923   4.596  0.00  0.00    +0.017 C 
BRANCH  11  13
ATOM     12  C   LIG    1       23.880 -11.609   5.390  0.00  0.00    +0.011 C 
ATOM     13  C   LIG    1       24.326 -12.670   4.351  0.00  0.00    -0.037 C 
ATOM     14  C   LIG    1       24.019 -12.098   2.958  0.00  0.00    +0.011 C 
ATOM     15  C   LIG    1       23.434 -13.901   4.575  0.00  0.00    +0.011 C 
ENDBRANCH  11  13
ENDBRANCH   8  11
ENDBRANCH   2   8
ENDBRANCH   1   5
BRANCH   1  16
ATOM     16  C   LIG    1       27.991 -19.685   5.105  0.00  0.00    +0.257 C 
BRANCH  16  17
ATOM     17  C   LIG    1       27.498 -19.723   6.545  0.00  0.00    +0.201 C 
BRANCH  17  18
ATOM     18  O   LIG    1       27.426 -21.084   6.996  0.00  0.00    -0.371 OA
BRANCH  18  19
ATOM     19  C   LIG    1       26.088 -21.572   6.981  0.00  0.00    +0.210 C 
BRANCH  19  20
ATOM     20  C   LIG    1       25.094 -20.408   6.808  0.00  0.00    +0.161 C 
BRANCH  20  21
ATOM     21  N   LIG    1       24.066 -20.595   5.657  0.00  0.00    +0.244 N 
ATOM     22  C   LIG    1       22.832 -21.345   6.173  0.00  0.00    +0.192 C 
ATOM     23  C   LIG    1       24.705 -21.476   4.582  0.00  0.00    +0.192 C 
BRANCH  21  24
ATOM     24  C   LIG    1       23.611 -19.258   5.035  0.00  0.00    +0.169 C 
BRANCH  24  25
ATOM     25  C   LIG    1       22.210 -19.202   4.468  0.00  0.00    -0.003 A 
ATOM     26  C   LIG    1       21.722 -18.021   3.883  0.00  0.00    +0.009 A 
ATOM     27  C   LIG    1       20.435 -17.970   3.342  0.00  0.00    +0.001 A 
ATOM     28  C   LIG    1       19.613 -19.093   3.381  0.00  0.00    +0.000 A 
ATOM     29  C   LIG    1       20.081 -20.273   3.948  0.00  0.00    +0.001 A 
ATOM     30  C   LIG    1       21.373 -20.331   4.476  0.00  0.00    +0.009 A 
ENDBRANCH  24  25
ENDBRANCH  21  24
ENDBRANCH  20  21
ENDBRANCH  19  20
ENDBRANCH  18  19
ENDBRANCH  17  18
ENDBRANCH  16  17
ENDBRANCH   1  16
TORSDOF 12
ENDMDL
MODEL 4
REMARK VINA RESULT:       2.1      1.911      4.098
REMARK  Name = *****
REMARK                            x       y       z     vdW  Elec       q    Type
REMARK                         _______ _______ _______ _____ _____    ______ ____
ROOT
ATOM      1  O   LIG    1       27.575 -15.726   3.263  0.00  0.00    -0.490 OA
ENDROOT
BRANCH   1   5
ATOM      2  C   LIG    1       26.496 -19.438   4.908  0.00  0.00    -0.042 A 
ATOM      3  C   LIG    1       25.702 -18.853   3.925  0.00  0.00    +0.008 A 
ATOM      4  C   LIG    1       26.032 -17.619   3.374  0.00  0.00    +0.046 A 
ATOM      5  C   LIG    1       27.203 -16.947   3.761  0.00  0.00    +0.121 A 
ATOM      6  C   LIG    1       28.035 -17.535   4.691  0.00  0.00    +0.046 A 
ATOM      7  C   LIG    1       27.697 -18.772   5.253  0.00  0.00    +0.008 A 
BRANCH   2   8
ATOM      8  C   LIG    1       26.025 -20.689   5.664  0.00  0.00    -0.009 C 
ATOM      9  C   LIG    1       27.175 -21.572   6.186  0.00  0.00    +0.016 C 
ATOM     10  C   LIG    1       25.331 -20.163   6.975  0.00  0.00    +0.016 C 
BRANCH   8  11
ATOM     11  C   LIG    1       24.964 -21.526   4.864  0.00  0.00    +0.017 C 
BRANCH  11  13
ATOM     12  C   LIG    1       23.163 -21.510   3.124  0.00  0.00    +0.011 C 
ATOM     13  C   LIG    1       23.513 -21.009   4.549  0.00  0.00    -0.037 C 
ATOM     14  C   LIG    1       22.447 -21.571   5.503  0.00  0.00    +0.011 C 
ATOM     15  C   LIG    1       23.375 -19.479   4.519  0.00  0.00    +0.011 C 
ENDBRANCH  11  13
ENDBRANCH   8  11
ENDBRANCH   2   8
ENDBRANCH   1   5
BRANCH   1  16
ATOM     16  C   LIG    1       27.897 -14.751   4.257  0.00  0.00    +0.257 C 
BRANCH  16  17
ATOM     17  C   LIG    1       28.828 -13.692   3.683  0.00  0.00    +0.201 C 
BRANCH  17  18
ATOM     18  O   LIG    1       28.118 -12.891   2.726  0.00  0.00    -0.371 OA
BRANCH  18  19
ATOM     19  C   LIG    1       27.038 -12.187   3.329  0.00  0.00    +0.210 C 
BRANCH  19  20
ATOM     20  C   LIG    1       25.845 -12.098   2.358  0.00  0.00    +0.161 C 
BRANCH  20  21
ATOM     21  N   LIG    1       24.526 -12.728   2.887  0.00  0.00    +0.244 N 
ATOM     22  C   LIG    1       23.433 -12.629   1.816  0.00  0.00    +0.192 C 
ATOM     23  C   LIG    1       24.051 -11.908   4.087  0.00  0.00    +0.192 C 
BRANCH  21  24
ATOM     24  C   LIG    1       24.689 -14.207   3.295  0.00  0.00    +0.169 C 
BRANCH  24  25
ATOM     25  C   LIG    1       23.658 -14.780   4.242  0.00  0.00    -0.003 A 
ATOM     26  C   LIG    1       22.960 -15.954   3.915  0.00  0.00    +0.009 A 
ATOM     27  C   LIG    1       22.018 -16.495   4.794  0.00  0.00    +0.001 A 
ATOM     28  C   LIG    1       21.755 -15.871   6.010  0.00  0.00    +0.000 A 
ATOM     29  C   LIG    1       22.443 -14.713   6.356  0.00  0.00    +0.001 A 
ATOM     30  C   LIG    1       23.395 -14.178   5.485  0.00  0.00    +0.009 A 
ENDBRANCH  24  25
ENDBRANCH  21  24
ENDBRANCH  20  21
ENDBRANCH  19  20
ENDBRANCH  18  19
ENDBRANCH  17  18
ENDBRANCH  16  17
ENDBRANCH   1  16
TORSDOF 12
ENDMDL
