MODEL 1
REMARK VINA RESULT:      -7.0      0.000      0.000
REMARK  Name = *****
REMARK                            x       y       z     vdW  Elec       q    Type
REMARK                         _______ _______ _______ _____ _____    ______ ____
ROOT
ATOM      1  N   LIG    1       26.221 -21.423   6.838  0.00  0.00    -0.298 N 
ATOM      2  C   LIG    1       25.367 -20.855   5.848  0.00  0.00    +0.049 A 
ATOM      3  C   LIG    1       25.848 -19.963   4.870  0.00  0.00    +0.034 A 
ATOM      4  C   LIG    1       24.992 -19.441   3.877  0.00  0.00    +0.018 A 
ATOM      5  C   LIG    1       23.641 -19.772   3.846  0.00  0.00    +0.021 A 
ATOM      6  C   LIG    1       23.139 -20.609   4.821  0.00  0.00    +0.043 A 
ATOM      7 CL   LIG    1       21.466 -21.016   4.825  0.00  0.00    -0.084 Cl
ATOM      8  S   LIG    1       27.542 -19.438   4.761  0.00  0.00    -0.086 S 
ATOM      9  C   LIG    1       28.243 -20.124   6.245  0.00  0.00    +0.034 A 
ATOM     10  C   LIG    1       29.568 -19.726   6.521  0.00  0.00    +0.017 A 
ATOM     11  C   LIG    1       30.249 -20.215   7.629  0.00  0.00    +0.001 A 
ATOM     12  C   LIG    1       29.616 -21.113   8.466  0.00  0.00    +0.002 A 
ATOM     13  C   LIG    1       28.301 -21.516   8.194  0.00  0.00    +0.024 A 
ATOM     14  C   LIG    1       23.984 -21.133   5.808  0.00  0.00    +0.044 A 
ATOM     15  C   LIG    1       27.572 -21.035   7.082  0.00  0.00    +0.048 A 
ENDROOT
BRANCH   1  16
ATOM     16  C   LIG    1       25.771 -22.691   7.462  0.00  0.00    +0.112 C 
BRANCH  16  17
ATOM     17  C   LIG    1       25.970 -23.894   6.527  0.00  0.00    +0.035 C 
BRANCH  17  18
ATOM     18  C   LIG    1       24.716 -24.778   6.472  0.00  0.00    +0.085 C 
BRANCH  18  20
ATOM     19  C   LIG    1       25.472 -26.251   4.723  0.00  0.00    +0.104 C 
ATOM     20  N   LIG    1       24.981 -26.179   6.101  0.00  0.00    -0.308 NA
ATOM     21  C   LIG    1       25.950 -26.816   6.994  0.00  0.00    +0.104 C 
ENDBRANCH  18  20
ENDBRANCH  17  18
ENDBRANCH  16  17
ENDBRANCH   1  16
TORSDOF 4
ENDMDL
MODEL 2
REMARK VINA RESULT:      -7.0      2.397      4.782
REMARK  Name = *****
REMARK                            x       y       z     vdW  Elec       q    Type
REMARK                         _______ _______ _______ _____ _____    ______ ____
ROOT
ATOM      1  N   LIG    1       26.606 -21.268   6.583  0.00  0.00    -0.298 N 
ATOM      2  C   LIG    1       27.940 -20.858   6.871  0.00  0.00    +0.049 A 
ATOM      3  C   LIG    1       28.542 -19.764   6.221  0.00  0.00    +0.034 A 
ATOM      4  C   LIG    1       29.852 -19.352   6.547  0.00  0.00    +0.018 A 
ATOM      5  C   LIG    1       30.599 -20.029   7.506  0.00  0.00    +0.021 A 
ATOM      6  C   LIG    1       30.046 -21.130   8.124  0.00  0.00    +0.043 A 
ATOM      7 CL   LIG    1       30.956 -22.004   9.297  0.00  0.00    -0.084 Cl
ATOM      8  S   LIG    1       27.730 -18.789   4.976  0.00  0.00    -0.086 S 
ATOM      9  C   LIG    1       26.228 -19.702   4.704  0.00  0.00    +0.034 A 
ATOM     10  C   LIG    1       25.438 -19.248   3.627  0.00  0.00    +0.017 A 
ATOM     11  C   LIG    1       24.222 -19.849   3.326  0.00  0.00    +0.001 A 
ATOM     12  C   LIG    1       23.780 -20.901   4.103  0.00  0.00    +0.002 A 
ATOM     13  C   LIG    1       24.558 -21.353   5.178  0.00  0.00    +0.024 A 
ATOM     14  C   LIG    1       28.745 -21.543   7.807  0.00  0.00    +0.044 A 
ATOM     15  C   LIG    1       25.805 -20.774   5.512  0.00  0.00    +0.048 A 
ENDROOT
BRANCH   1  16
ATOM     16  C   LIG    1       25.904 -22.048   7.633  0.00  0.00    +0.112 C 
BRANCH  16  17
ATOM     17  C   LIG    1       26.001 -23.561   7.384  0.00  0.00    +0.035 C 
BRANCH  17  18
ATOM     18  C   LIG    1       24.662 -24.141   6.909  0.00  0.00    +0.085 C 
BRANCH  18  20
ATOM     19  C   LIG    1       25.044 -25.205   4.783  0.00  0.00    +0.104 C 
ATOM     20  N   LIG    1       24.776 -25.430   6.206  0.00  0.00    -0.308 NA
ATOM     21  C   LIG    1       25.830 -26.277   6.768  0.00  0.00    +0.104 C 
ENDBRANCH  18  20
ENDBRANCH  17  18
ENDBRANCH  16  17
ENDBRANCH   1  16
TORSDOF 4
ENDMDL
MODEL 3
REMARK VINA RESULT:      -6.6      3.516      7.340
REMARK  Name = *****
REMARK                            x       y       z     vdW  Elec       q    Type
REMARK                         _______ _______ _______ _____ _____    ______ ____
ROOT
ATOM      1  N   LIG    1       25.900 -19.718   4.791  0.00  0.00    -0.298 N 
ATOM      2  C   LIG    1       26.933 -20.144   5.675  0.00  0.00    +0.049 A 
ATOM      3  C   LIG    1       26.736 -21.178   6.610  0.00  0.00    +0.034 A 
ATOM      4  C   LIG    1       27.784 -21.609   7.452  0.00  0.00    +0.018 A 
ATOM      5  C   LIG    1       29.039 -21.011   7.401  0.00  0.00    +0.021 A 
ATOM      6  C   LIG    1       29.241 -19.966   6.523  0.00  0.00    +0.043 A 
ATOM      7 CL   LIG    1       30.776 -19.188   6.455  0.00  0.00    -0.084 Cl
ATOM      8  S   LIG    1       25.200 -22.051   6.806  0.00  0.00    -0.086 S 
ATOM      9  C   LIG    1       24.106 -21.125   5.752  0.00  0.00    +0.034 A 
ATOM     10  C   LIG    1       22.746 -21.493   5.832  0.00  0.00    +0.017 A 
ATOM     11  C   LIG    1       21.788 -20.875   5.036  0.00  0.00    +0.001 A 
ATOM     12  C   LIG    1       22.181 -19.892   4.149  0.00  0.00    +0.002 A 
ATOM     13  C   LIG    1       23.532 -19.527   4.063  0.00  0.00    +0.024 A 
ATOM     14  C   LIG    1       28.207 -19.535   5.683  0.00  0.00    +0.044 A 
ATOM     15  C   LIG    1       24.535 -20.125   4.860  0.00  0.00    +0.048 A 
ENDROOT
BRANCH   1  16
ATOM     16  C   LIG    1       26.326 -19.030   3.546  0.00  0.00    +0.112 C 
BRANCH  16  17
ATOM     17  C   LIG    1       25.823 -17.579   3.492  0.00  0.00    +0.035 C 
BRANCH  17  18
ATOM     18  C   LIG    1       26.987 -16.578   3.529  0.00  0.00    +0.085 C 
BRANCH  18  20
ATOM     19  C   LIG    1       25.321 -14.843   3.659  0.00  0.00    +0.104 C 
ATOM     20  N   LIG    1       26.626 -15.215   3.104  0.00  0.00    -0.308 NA
ATOM     21  C   LIG    1       27.624 -14.224   3.510  0.00  0.00    +0.104 C 
ENDBRANCH  18  20
ENDBRANCH  17  18
ENDBRANCH  16  17
ENDBRANCH   1  16
TORSDOF 4
ENDMDL
MODEL 4
REMARK VINA RESULT:      -6.5      2.393      5.136
REMARK  Name = *****
REMARK                            x       y       z     vdW  Elec       q    Type
REMARK                         _______ _______ _______ _____ _____    ______ ____
ROOT
ATOM      1  N   LIG    1       25.779 -21.448   5.646  0.00  0.00    -0.298 N 
ATOM      2  C   LIG    1       25.047 -20.397   5.019  0.00  0.00    +0.049 A 
ATOM      3  C   LIG    1       23.641 -20.411   4.939  0.00  0.00    +0.034 A 
ATOM      4  C   LIG    1       22.935 -19.342   4.347  0.00  0.00    +0.018 A 
ATOM      5  C   LIG    1       23.606 -18.252   3.802  0.00  0.00    +0.021 A 
ATOM      6  C   LIG    1       24.984 -18.238   3.831  0.00  0.00    +0.043 A 
ATOM      7 CL   LIG    1       25.844 -16.914   3.142  0.00  0.00    -0.084 Cl
ATOM      8  S   LIG    1       22.630 -21.722   5.584  0.00  0.00    -0.086 S 
ATOM      9  C   LIG    1       23.843 -22.934   6.057  0.00  0.00    +0.034 A 
ATOM     10  C   LIG    1       23.319 -24.180   6.461  0.00  0.00    +0.017 A 
ATOM     11  C   LIG    1       24.153 -25.205   6.889  0.00  0.00    +0.001 A 
ATOM     12  C   LIG    1       25.517 -24.992   6.927  0.00  0.00    +0.002 A 
ATOM     13  C   LIG    1       26.043 -23.754   6.532  0.00  0.00    +0.024 A 
ATOM     14  C   LIG    1       25.692 -19.294   4.419  0.00  0.00    +0.044 A 
ATOM     15  C   LIG    1       25.229 -22.689   6.082  0.00  0.00    +0.048 A 
ENDROOT
BRANCH   1  16
ATOM     16  C   LIG    1       27.141 -21.117   6.133  0.00  0.00    +0.112 C 
BRANCH  16  17
ATOM     17  C   LIG    1       27.115 -20.533   7.554  0.00  0.00    +0.035 C 
BRANCH  17  18
ATOM     18  C   LIG    1       28.406 -19.764   7.870  0.00  0.00    +0.085 C 
BRANCH  18  20
ATOM     19  C   LIG    1       30.519 -19.438   6.762  0.00  0.00    +0.104 C 
ATOM     20  N   LIG    1       29.634 -20.421   7.393  0.00  0.00    -0.308 NA
ATOM     21  C   LIG    1       30.356 -21.100   8.471  0.00  0.00    +0.104 C 
ENDBRANCH  18  20
ENDBRANCH  17  18
ENDBRANCH  16  17
ENDBRANCH   1  16
TORSDOF 4
ENDMDL
MODEL 5
REMARK VINA RESULT:      -5.7      3.056      5.367
REMARK  Name = *****
REMARK                            x       y       z     vdW  Elec       q    Type
REMARK                         _______ _______ _______ _____ _____    ______ ____
ROOT
ATOM      1  N   LIG    1       27.235 -20.690   6.260  0.00  0.00    -0.298 N 
ATOM      2  C   LIG    1       28.530 -20.449   6.804  0.00  0.00    +0.049 A 
ATOM      3  C   LIG    1       29.280 -19.305   6.470  0.00  0.00    +0.034 A 
ATOM      4  C   LIG    1       30.545 -19.068   7.049  0.00  0.00    +0.018 A 
ATOM      5  C   LIG    1       31.102 -19.969   7.951  0.00  0.00    +0.021 A 
ATOM      6  C   LIG    1       30.404 -21.118   8.260  0.00  0.00    +0.043 A 
ATOM      7 CL   LIG    1       31.079 -22.264   9.353  0.00  0.00    -0.084 Cl
ATOM      8  S   LIG    1       28.718 -18.054   5.339  0.00  0.00    -0.086 S 
ATOM      9  C   LIG    1       27.229 -18.777   4.689  0.00  0.00    +0.034 A 
ATOM     10  C   LIG    1       26.636 -18.069   3.623  0.00  0.00    +0.017 A 
ATOM     11  C   LIG    1       25.449 -18.503   3.046  0.00  0.00    +0.001 A 
ATOM     12  C   LIG    1       24.839 -19.642   3.533  0.00  0.00    +0.002 A 
ATOM     13  C   LIG    1       25.421 -20.346   4.596  0.00  0.00    +0.024 A 
ATOM     14  C   LIG    1       29.147 -21.359   7.691  0.00  0.00    +0.044 A 
ATOM     15  C   LIG    1       26.632 -19.942   5.206  0.00  0.00    +0.048 A 
ENDROOT
BRANCH   1  16
ATOM     16  C   LIG    1       26.342 -21.591   7.030  0.00  0.00    +0.112 C 
BRANCH  16  17
ATOM     17  C   LIG    1       25.269 -20.811   7.805  0.00  0.00    +0.035 C 
BRANCH  17  18
ATOM     18  C   LIG    1       23.927 -21.556   7.813  0.00  0.00    +0.085 C 
BRANCH  18  20
ATOM     19  C   LIG    1       23.194 -23.621   6.815  0.00  0.00    +0.104 C 
ATOM     20  N   LIG    1       23.607 -22.240   6.549  0.00  0.00    -0.308 NA
ATOM     21  C   LIG    1       22.552 -21.556   5.799  0.00  0.00    +0.104 C 
ENDBRANCH  18  20
ENDBRANCH  17  18
ENDBRANCH  16  17
ENDBRANCH   1  16
TORSDOF 4
ENDMDL
MODEL 6
REMARK VINA RESULT:      -5.6      2.637      5.814
REMARK  Name = *****
REMARK                            x       y       z     vdW  Elec       q    Type
REMARK                         _______ _______ _______ _____ _____    ______ ____
ROOT
ATOM      1  N   LIG    1       24.738 -22.718   7.014  0.00  0.00    -0.298 N 
ATOM      2  C   LIG    1       25.076 -23.999   6.488  0.00  0.00    +0.049 A 
ATOM      3  C   LIG    1       24.947 -24.302   5.119  0.00  0.00    +0.034 A 
ATOM      4  C   LIG    1       25.322 -25.565   4.613  0.00  0.00    +0.018 A 
ATOM      5  C   LIG    1       25.810 -26.559   5.455  0.00  0.00    +0.021 A 
ATOM      6  C   LIG    1       25.904 -26.299   6.806  0.00  0.00    +0.043 A 
ATOM      7 CL   LIG    1       26.479 -27.519   7.877  0.00  0.00    -0.084 Cl
ATOM      8  S   LIG    1       24.345 -23.150   3.907  0.00  0.00    -0.086 S 
ATOM      9  C   LIG    1       23.806 -21.789   4.917  0.00  0.00    +0.034 A 
ATOM     10  C   LIG    1       23.116 -20.769   4.229  0.00  0.00    +0.017 A 
ATOM     11  C   LIG    1       22.671 -19.631   4.891  0.00  0.00    +0.001 A 
ATOM     12  C   LIG    1       22.920 -19.497   6.243  0.00  0.00    +0.002 A 
ATOM     13  C   LIG    1       23.610 -20.505   6.931  0.00  0.00    +0.024 A 
ATOM     14  C   LIG    1       25.536 -25.047   7.315  0.00  0.00    +0.044 A 
ATOM     15  C   LIG    1       24.071 -21.681   6.296  0.00  0.00    +0.048 A 
ENDROOT
BRANCH   1  16
ATOM     16  C   LIG    1       25.371 -22.333   8.299  0.00  0.00    +0.112 C 
BRANCH  16  17
ATOM     17  C   LIG    1       26.852 -21.963   8.121  0.00  0.00    +0.035 C 
BRANCH  17  18
ATOM     18  C   LIG    1       27.057 -20.442   8.124  0.00  0.00    +0.085 C 
BRANCH  18  20
ATOM     19  C   LIG    1       29.399 -20.828   7.721  0.00  0.00    +0.104 C 
ATOM     20  N   LIG    1       28.246 -19.991   7.382  0.00  0.00    -0.308 NA
ATOM     21  C   LIG    1       28.039 -20.017   5.933  0.00  0.00    +0.104 C 
ENDBRANCH  18  20
ENDBRANCH  17  18
ENDBRANCH  16  17
ENDBRANCH   1  16
TORSDOF 4
ENDMDL
MODEL 7
REMARK VINA RESULT:      -5.5      6.003     10.374
REMARK  Name = *****
REMARK                            x       y       z     vdW  Elec       q    Type
REMARK                         _______ _______ _______ _____ _____    ______ ____
ROOT
ATOM      1  N   LIG    1       24.736 -30.772   7.303  0.00  0.00    -0.298 N 
ATOM      2  C   LIG    1       24.713 -30.814   8.727  0.00  0.00    +0.049 A 
ATOM      3  C   LIG    1       25.685 -31.513   9.469  0.00  0.00    +0.034 A 
ATOM      4  C   LIG    1       25.664 -31.512  10.881  0.00  0.00    +0.018 A 
ATOM      5  C   LIG    1       24.670 -30.838  11.583  0.00  0.00    +0.021 A 
ATOM      6  C   LIG    1       23.683 -30.183  10.876  0.00  0.00    +0.043 A 
ATOM      7 CL   LIG    1       22.425 -29.363  11.718  0.00  0.00    -0.084 Cl
ATOM      8  S   LIG    1       27.023 -32.422   8.733  0.00  0.00    -0.086 S 
ATOM      9  C   LIG    1       26.612 -32.359   7.003  0.00  0.00    +0.034 A 
ATOM     10  C   LIG    1       27.425 -33.152   6.166  0.00  0.00    +0.017 A 
ATOM     11  C   LIG    1       27.237 -33.168   4.790  0.00  0.00    +0.001 A 
ATOM     12  C   LIG    1       26.242 -32.386   4.237  0.00  0.00    +0.002 A 
ATOM     13  C   LIG    1       25.435 -31.592   5.063  0.00  0.00    +0.024 A 
ATOM     14  C   LIG    1       23.699 -30.178   9.476  0.00  0.00    +0.044 A 
ATOM     15  C   LIG    1       25.589 -31.554   6.468  0.00  0.00    +0.048 A 
ENDROOT
BRANCH   1  16
ATOM     16  C   LIG    1       24.031 -29.639   6.655  0.00  0.00    +0.112 C 
BRANCH  16  17
ATOM     17  C   LIG    1       24.920 -28.389   6.559  0.00  0.00    +0.035 C 
BRANCH  17  18
ATOM     18  C   LIG    1       24.452 -27.449   5.439  0.00  0.00    +0.085 C 
BRANCH  18  20
ATOM     19  C   LIG    1       24.037 -25.223   6.259  0.00  0.00    +0.104 C 
ATOM     20  N   LIG    1       24.983 -26.079   5.538  0.00  0.00    -0.308 NA
ATOM     21  C   LIG    1       26.283 -26.035   6.210  0.00  0.00    +0.104 C 
ENDBRANCH  18  20
ENDBRANCH  17  18
ENDBRANCH  16  17
ENDBRANCH   1  16
TORSDOF 4
ENDMDL
MODEL 8
REMARK VINA RESULT:      -5.4      1.341      1.736
REMARK  Name = *****
REMARK                            x       y       z     vdW  Elec       q    Type
REMARK                         _______ _______ _______ _____ _____    ______ ____
ROOT
ATOM      1  N   LIG    1       27.620 -21.103   6.759  0.00  0.00    -0.298 N 
ATOM      2  C   LIG    1       26.747 -20.484   5.818  0.00  0.00    +0.049 A 
ATOM      3  C   LIG    1       27.145 -19.376   5.046  0.00  0.00    +0.034 A 
ATOM      4  C   LIG    1       26.277 -18.801   4.094  0.00  0.00    +0.018 A 
ATOM      5  C   LIG    1       24.991 -19.297   3.903  0.00  0.00    +0.021 A 
ATOM      6  C   LIG    1       24.564 -20.355   4.679  0.00  0.00    +0.043 A 
ATOM      7 CL   LIG    1       22.969 -20.973   4.483  0.00  0.00    -0.084 Cl
ATOM      8  S   LIG    1       28.750 -18.621   5.161  0.00  0.00    -0.086 S 
ATOM      9  C   LIG    1       29.463 -19.463   6.556  0.00  0.00    +0.034 A 
ATOM     10  C   LIG    1       30.700 -18.949   6.997  0.00  0.00    +0.017 A 
ATOM     11  C   LIG    1       31.384 -19.536   8.055  0.00  0.00    +0.001 A 
ATOM     12  C   LIG    1       30.844 -20.645   8.675  0.00  0.00    +0.002 A 
ATOM     13  C   LIG    1       29.617 -21.163   8.237  0.00  0.00    +0.024 A 
ATOM     14  C   LIG    1       25.422 -20.932   5.624  0.00  0.00    +0.044 A 
ATOM     15  C   LIG    1       28.886 -20.591   7.170  0.00  0.00    +0.048 A 
ENDROOT
BRANCH   1  16
ATOM     16  C   LIG    1       27.324 -22.512   7.121  0.00  0.00    +0.112 C 
BRANCH  16  17
ATOM     17  C   LIG    1       25.851 -22.707   7.509  0.00  0.00    +0.035 C 
BRANCH  17  18
ATOM     18  C   LIG    1       25.390 -24.151   7.262  0.00  0.00    +0.085 C 
BRANCH  18  20
ATOM     19  C   LIG    1       24.089 -25.688   5.941  0.00  0.00    +0.104 C 
ATOM     20  N   LIG    1       24.299 -24.278   6.280  0.00  0.00    -0.308 NA
ATOM     21  C   LIG    1       23.043 -23.706   6.769  0.00  0.00    +0.104 C 
ENDBRANCH  18  20
ENDBRANCH  17  18
ENDBRANCH  16  17
ENDBRANCH   1  16
TORSDOF 4
ENDMDL
MODEL 9
REMARK VINA RESULT:      -5.3      3.058      6.458
REMARK  Name = *****
REMARK                            x       y       z     vdW  Elec       q    Type
REMARK                         _______ _______ _______ _____ _____    ______ ____
ROOT
ATOM      1  N   LIG    1       25.523 -20.751   5.360  0.00  0.00    -0.298 N 
ATOM      2  C   LIG    1       26.785 -20.668   6.017  0.00  0.00    +0.049 A 
ATOM      3  C   LIG    1       27.150 -21.554   7.048  0.00  0.00    +0.034 A 
ATOM      4  C   LIG    1       28.419 -21.477   7.661  0.00  0.00    +0.018 A 
ATOM      5  C   LIG    1       29.342 -20.508   7.279  0.00  0.00    +0.021 A 
ATOM      6  C   LIG    1       28.990 -19.602   6.301  0.00  0.00    +0.043 A 
ATOM      7 CL   LIG    1       30.101 -18.376   5.826  0.00  0.00    -0.084 Cl
ATOM      8  S   LIG    1       26.094 -22.849   7.655  0.00  0.00    -0.086 S 
ATOM      9  C   LIG    1       24.565 -22.514   6.810  0.00  0.00    +0.034 A 
ATOM     10  C   LIG    1       23.468 -23.299   7.224  0.00  0.00    +0.017 A 
ATOM     11  C   LIG    1       22.223 -23.165   6.623  0.00  0.00    +0.001 A 
ATOM     12  C   LIG    1       22.065 -22.255   5.597  0.00  0.00    +0.002 A 
ATOM     13  C   LIG    1       23.153 -21.477   5.177  0.00  0.00    +0.024 A 
ATOM     14  C   LIG    1       27.732 -19.674   5.687  0.00  0.00    +0.044 A 
ATOM     15  C   LIG    1       24.433 -21.576   5.769  0.00  0.00    +0.048 A 
ENDROOT
BRANCH   1  16
ATOM     16  C   LIG    1       25.433 -20.159   4.002  0.00  0.00    +0.112 C 
BRANCH  16  17
ATOM     17  C   LIG    1       24.896 -18.720   4.039  0.00  0.00    +0.035 C 
BRANCH  17  18
ATOM     18  C   LIG    1       23.497 -18.625   3.413  0.00  0.00    +0.085 C 
BRANCH  18  20
ATOM     19  C   LIG    1       22.437 -16.851   4.649  0.00  0.00    +0.104 C 
ATOM     20  N   LIG    1       22.429 -18.290   4.369  0.00  0.00    -0.308 NA
ATOM     21  C   LIG    1       21.104 -18.679   3.880  0.00  0.00    +0.104 C 
ENDBRANCH  18  20
ENDBRANCH  17  18
ENDBRANCH  16  17
ENDBRANCH   1  16
TORSDOF 4
ENDMDL
