MODEL 1
REMARK VINA RESULT:       5.1      0.000      0.000
REMARK  Name = *****
REMARK                            x       y       z     vdW  Elec       q    Type
REMARK                         _______ _______ _______ _____ _____    ______ ____
ROOT
ATOM      1  C   LIG    1       26.732 -12.214   2.999  0.00  0.00    +0.042 C 
ATOM      2  C   LIG    1       26.687 -12.693   4.459  0.00  0.00    +0.069 C 
ATOM      3  C   LIG    1       26.417 -14.239   4.634  0.00  0.00    -0.000 C 
ATOM      4  C   LIG    1       24.860 -14.316   4.686  0.00  0.00    +0.001 C 
ATOM      5  C   LIG    1       24.139 -15.135   3.604  0.00  0.00    -0.004 C 
ATOM      6  C   LIG    1       24.949 -16.405   3.153  0.00  0.00    -0.001 C 
ATOM      7  C   LIG    1       26.214 -15.735   2.538  0.00  0.00    +0.005 C 
ATOM      8  C   LIG    1       24.991 -17.728   4.172  0.00  0.00    -0.022 C 
ATOM      9  C   LIG    1       23.453 -17.694   4.591  0.00  0.00    +0.001 C 
ATOM     10  C   LIG    1       22.632 -18.551   3.623  0.00  0.00    +0.059 C 
ATOM     11  C   LIG    1       22.840 -19.870   4.232  0.00  0.00    +0.040 A 
ATOM     12  C   LIG    1       24.022 -20.207   4.865  0.00  0.00    -0.006 A 
ATOM     13  C   LIG    1       23.620 -21.309   5.665  0.00  0.00    +0.138 A 
ATOM     14  N   LIG    1       22.312 -21.571   5.570  0.00  0.00    -0.182 NA
ATOM     15  N   LIG    1       21.822 -20.628   4.742  0.00  0.00    -0.281 N 
ATOM     16  H   LIG    1       20.821 -20.439   4.729  0.00  0.00    +0.189 HD
ATOM     17  C   LIG    1       22.731 -16.453   5.073  0.00  0.00    +0.005 C 
ATOM     18  C   LIG    1       25.740 -18.551   2.911  0.00  0.00    +0.012 C 
ATOM     19  C   LIG    1       25.257 -19.191   5.000  0.00  0.00    +0.045 C 
ATOM     20  C   LIG    1       22.703 -15.419   4.008  0.00  0.00    +0.004 C 
ATOM     21  C   LIG    1       24.328 -12.866   4.721  0.00  0.00    +0.007 C 
ATOM     22  C   LIG    1       26.935 -14.736   6.019  0.00  0.00    +0.014 C 
ATOM     23  C   LIG    1       27.118 -15.155   3.597  0.00  0.00    +0.010 C 
ATOM     24  C   LIG    1       25.506 -12.042   5.180  0.00  0.00    +0.035 C 
ENDROOT
BRANCH   2  25
ATOM     25  O   LIG    1       27.916 -12.295   5.051  0.00  0.00    -0.388 OA
ATOM     26  H   LIG    1       28.639 -12.759   4.598  0.00  0.00    +0.210 HD
ENDBRANCH   2  25
TORSDOF 1
ENDMDL
MODEL 2
REMARK VINA RESULT:       6.4      3.809      6.872
REMARK  Name = *****
REMARK                            x       y       z     vdW  Elec       q    Type
REMARK                         _______ _______ _______ _____ _____    ______ ____
ROOT
ATOM      1  C   LIG    1       21.739 -20.927   3.965  0.00  0.00    +0.042 C 
ATOM      2  C   LIG    1       22.717 -20.725   5.134  0.00  0.00    +0.069 C 
ATOM      3  C   LIG    1       23.279 -19.256   5.271  0.00  0.00    -0.000 C 
ATOM      4  C   LIG    1       24.552 -19.285   4.368  0.00  0.00    +0.001 C 
ATOM      5  C   LIG    1       24.608 -18.329   3.167  0.00  0.00    -0.004 C 
ATOM      6  C   LIG    1       23.903 -16.950   3.444  0.00  0.00    -0.001 C 
ATOM      7  C   LIG    1       22.434 -17.419   3.663  0.00  0.00    +0.005 C 
ATOM      8  C   LIG    1       24.685 -15.834   4.411  0.00  0.00    -0.022 C 
ATOM      9  C   LIG    1       26.142 -16.038   3.795  0.00  0.00    +0.001 C 
ATOM     10  C   LIG    1       26.352 -15.071   2.626  0.00  0.00    +0.059 C 
ATOM     11  C   LIG    1       26.759 -13.875   3.372  0.00  0.00    +0.040 A 
ATOM     12  C   LIG    1       26.255 -13.587   4.627  0.00  0.00    -0.006 A 
ATOM     13  C   LIG    1       27.222 -12.675   5.127  0.00  0.00    +0.138 A 
ATOM     14  N   LIG    1       28.240 -12.480   4.281  0.00  0.00    -0.182 NA
ATOM     15  N   LIG    1       27.985 -13.286   3.231  0.00  0.00    -0.281 N 
ATOM     16  H   LIG    1       28.738 -13.530   2.588  0.00  0.00    +0.189 HD
ATOM     17  C   LIG    1       26.801 -17.388   3.599  0.00  0.00    +0.005 C 
ATOM     18  C   LIG    1       23.477 -14.752   3.968  0.00  0.00    +0.012 C 
ATOM     19  C   LIG    1       25.200 -14.534   5.379  0.00  0.00    +0.045 C 
ATOM     20  C   LIG    1       26.027 -18.211   2.636  0.00  0.00    +0.004 C 
ATOM     21  C   LIG    1       24.761 -20.747   3.915  0.00  0.00    +0.007 C 
ATOM     22  C   LIG    1       23.772 -18.988   6.727  0.00  0.00    +0.014 C 
ATOM     23  C   LIG    1       22.257 -18.126   4.985  0.00  0.00    +0.010 C 
ATOM     24  C   LIG    1       23.973 -21.567   4.907  0.00  0.00    +0.035 C 
ENDROOT
BRANCH   2  25
ATOM     25  O   LIG    1       22.036 -21.148   6.306  0.00  0.00    -0.388 OA
ATOM     26  H   LIG    1       22.446 -21.972   6.618  0.00  0.00    +0.210 HD
ENDBRANCH   2  25
TORSDOF 1
ENDMDL
