MODEL 1
REMARK VINA RESULT:     -10.0      0.000      0.000
REMARK  Name = *****
REMARK                            x       y       z     vdW  Elec       q    Type
REMARK                         _______ _______ _______ _____ _____    ______ ____
ROOT
ATOM      1  N   LIG    1       27.337 -21.366   8.708  0.00  0.00    -0.312 NA
ATOM      2  H   LIG    1       27.019 -22.321   8.882  0.00  0.00    +0.122 HD
ENDROOT
BRANCH   1   3
ATOM      3  C   LIG    1       26.167 -20.565   8.333  0.00  0.00    +0.086 C 
BRANCH   3   4
ATOM      4  C   LIG    1       25.817 -20.688   6.842  0.00  0.00    +0.052 C 
BRANCH   4   7
ATOM      5  C   LIG    1       22.741 -20.241   5.938  0.00  0.00    +0.063 C 
ATOM      6  C   LIG    1       23.479 -21.514   6.153  0.00  0.00    +0.017 C 
ATOM      7  C   LIG    1       24.797 -21.745   6.523  0.00  0.00    -0.018 C 
ATOM      8  C   LIG    1       24.978 -23.172   6.560  0.00  0.00    +0.003 C 
ATOM      9  C   LIG    1       23.753 -23.754   6.232  0.00  0.00    +0.047 C 
ATOM     10  C   LIG    1       23.556 -25.140   6.177  0.00  0.00    +0.026 C 
ATOM     11  C   LIG    1       24.650 -25.965   6.447  0.00  0.00    +0.002 C 
ATOM     12  C   LIG    1       25.889 -25.420   6.772  0.00  0.00    +0.001 C 
ATOM     13  C   LIG    1       26.064 -24.030   6.842  0.00  0.00    +0.010 C 
ATOM     14  N   LIG    1       22.867 -22.731   6.002  0.00  0.00    -0.358 NA
ATOM     15  H   LIG    1       21.898 -22.868   5.753  0.00  0.00    +0.166 HD
ENDBRANCH   4   7
ENDBRANCH   3   4
ENDBRANCH   1   3
BRANCH   1  16
ATOM     16  C   LIG    1       28.324 -21.387   7.629  0.00  0.00    +0.116 C 
BRANCH  16  17
ATOM     17  C   LIG    1       29.426 -20.373   7.848  0.00  0.00    -0.034 C 
ATOM     18  C   LIG    1       30.514 -20.676   8.678  0.00  0.00    +0.005 C 
ATOM     19  C   LIG    1       31.498 -19.719   8.948  0.00  0.00    +0.008 C 
ATOM     20  C   LIG    1       31.403 -18.433   8.409  0.00  0.00    -0.025 C 
ATOM     21  C   LIG    1       30.335 -18.131   7.557  0.00  0.00    +0.008 C 
ATOM     22  C   LIG    1       29.358 -19.094   7.274  0.00  0.00    +0.005 C 
BRANCH  20  23
ATOM     23  C   LIG    1       32.443 -17.437   8.685  0.00  0.00    +0.013 C 
ATOM     24  C   LIG    1       32.482 -16.512   9.660  0.00  0.00    +0.070 C 
BRANCH  24  25
ATOM     25  C   LIG    1       31.492 -16.308  10.744  0.00  0.00    +0.259 C 
ATOM     26  N   LIG    1       32.040 -15.695  11.854  0.00  0.00    -0.194 N 
ATOM     27  H   LIG    1       32.978 -15.335  11.931  0.00  0.00    +0.182 HD
ATOM     28  O   LIG    1       30.326 -16.665  10.705  0.00  0.00    -0.269 OA
BRANCH  26  29
ATOM     29  O   LIG    1       31.172 -15.485  12.946  0.00  0.00    -0.295 OA
ATOM     30  H   LIG    1       30.314 -15.809  12.598  0.00  0.00    +0.241 HD
ENDBRANCH  26  29
ENDBRANCH  24  25
ENDBRANCH  20  23
ENDBRANCH  16  17
ENDBRANCH   1  16
TORSDOF 8
ENDMDL
MODEL 2
REMARK VINA RESULT:      -9.8      1.351      2.837
REMARK  Name = *****
REMARK                            x       y       z     vdW  Elec       q    Type
REMARK                         _______ _______ _______ _____ _____    ______ ____
ROOT
ATOM      1  N   LIG    1       27.027 -21.547   8.646  0.00  0.00    -0.312 NA
ATOM      2  H   LIG    1       27.465 -21.898   9.499  0.00  0.00    +0.122 HD
ENDROOT
BRANCH   1   3
ATOM      3  C   LIG    1       25.859 -22.388   8.364  0.00  0.00    +0.086 C 
BRANCH   3   4
ATOM      4  C   LIG    1       25.745 -22.765   6.879  0.00  0.00    +0.052 C 
BRANCH   4   7
ATOM      5  C   LIG    1       22.578 -23.435   6.844  0.00  0.00    +0.063 C 
ATOM      6  C   LIG    1       23.317 -22.365   6.125  0.00  0.00    +0.017 C 
ATOM      7  C   LIG    1       24.665 -22.037   6.127  0.00  0.00    -0.018 C 
ATOM      8  C   LIG    1       24.822 -20.897   5.263  0.00  0.00    +0.003 C 
ATOM      9  C   LIG    1       23.561 -20.589   4.751  0.00  0.00    +0.047 C 
ATOM     10  C   LIG    1       23.335 -19.531   3.861  0.00  0.00    +0.026 C 
ATOM     11  C   LIG    1       24.428 -18.744   3.493  0.00  0.00    +0.002 C 
ATOM     12  C   LIG    1       25.700 -19.018   3.988  0.00  0.00    +0.001 C 
ATOM     13  C   LIG    1       25.913 -20.093   4.864  0.00  0.00    +0.010 C 
ATOM     14  N   LIG    1       22.676 -21.497   5.279  0.00  0.00    -0.358 NA
ATOM     15  H   LIG    1       21.689 -21.511   5.069  0.00  0.00    +0.166 HD
ENDBRANCH   4   7
ENDBRANCH   3   4
ENDBRANCH   1   3
BRANCH   1  16
ATOM     16  C   LIG    1       27.997 -21.615   7.554  0.00  0.00    +0.116 C 
BRANCH  16  17
ATOM     17  C   LIG    1       29.125 -20.623   7.734  0.00  0.00    -0.034 C 
ATOM     18  C   LIG    1       30.176 -20.897   8.620  0.00  0.00    +0.005 C 
ATOM     19  C   LIG    1       31.183 -19.954   8.851  0.00  0.00    +0.008 C 
ATOM     20  C   LIG    1       31.149 -18.710   8.215  0.00  0.00    -0.025 C 
ATOM     21  C   LIG    1       30.119 -18.440   7.307  0.00  0.00    +0.008 C 
ATOM     22  C   LIG    1       29.119 -19.390   7.065  0.00  0.00    +0.005 C 
BRANCH  20  23
ATOM     23  C   LIG    1       32.213 -17.729   8.451  0.00  0.00    +0.013 C 
ATOM     24  C   LIG    1       32.282 -16.777   9.397  0.00  0.00    +0.070 C 
BRANCH  24  25
ATOM     25  C   LIG    1       31.307 -16.518  10.483  0.00  0.00    +0.259 C 
ATOM     26  N   LIG    1       31.880 -15.885  11.570  0.00  0.00    -0.194 N 
ATOM     27  H   LIG    1       32.826 -15.545  11.627  0.00  0.00    +0.182 HD
ATOM     28  O   LIG    1       30.133 -16.849  10.465  0.00  0.00    -0.269 OA
BRANCH  26  29
ATOM     29  O   LIG    1       31.028 -15.623  12.663  0.00  0.00    -0.295 OA
ATOM     30  H   LIG    1       30.914 -16.515  13.059  0.00  0.00    +0.241 HD
ENDBRANCH  26  29
ENDBRANCH  24  25
ENDBRANCH  20  23
ENDBRANCH  16  17
ENDBRANCH   1  16
TORSDOF 8
ENDMDL
MODEL 3
REMARK VINA RESULT:      -9.5      5.402      9.402
REMARK  Name = *****
REMARK                            x       y       z     vdW  Elec       q    Type
REMARK                         _______ _______ _______ _____ _____    ______ ____
ROOT
ATOM      1  N   LIG    1       26.088 -23.192   7.627  0.00  0.00    -0.312 NA
ATOM      2  H   LIG    1       26.495 -23.986   8.124  0.00  0.00    +0.122 HD
ENDROOT
BRANCH   1   3
ATOM      3  C   LIG    1       25.737 -22.174   8.623  0.00  0.00    +0.086 C 
BRANCH   3   4
ATOM      4  C   LIG    1       26.324 -20.793   8.291  0.00  0.00    +0.052 C 
BRANCH   4   7
ATOM      5  C   LIG    1       28.957 -20.360   6.459  0.00  0.00    +0.063 C 
ATOM      6  C   LIG    1       27.524 -20.273   6.074  0.00  0.00    +0.017 C 
ATOM      7  C   LIG    1       26.372 -20.467   6.823  0.00  0.00    -0.018 C 
ATOM      8  C   LIG    1       25.256 -20.274   5.936  0.00  0.00    +0.003 C 
ATOM      9  C   LIG    1       25.775 -19.948   4.683  0.00  0.00    +0.047 C 
ATOM     10  C   LIG    1       24.970 -19.684   3.567  0.00  0.00    +0.026 C 
ATOM     11  C   LIG    1       23.586 -19.773   3.726  0.00  0.00    +0.002 C 
ATOM     12  C   LIG    1       23.032 -20.102   4.961  0.00  0.00    +0.001 C 
ATOM     13  C   LIG    1       23.852 -20.345   6.073  0.00  0.00    +0.010 C 
ATOM     14  N   LIG    1       27.143 -19.944   4.799  0.00  0.00    -0.358 NA
ATOM     15  H   LIG    1       27.774 -19.731   4.040  0.00  0.00    +0.166 HD
ENDBRANCH   4   7
ENDBRANCH   3   4
ENDBRANCH   1   3
BRANCH   1  16
ATOM     16  C   LIG    1       24.903 -23.645   6.902  0.00  0.00    +0.116 C 
BRANCH  16  17
ATOM     17  C   LIG    1       25.071 -25.048   6.359  0.00  0.00    -0.034 C 
ATOM     18  C   LIG    1       23.948 -25.828   6.051  0.00  0.00    +0.005 C 
ATOM     19  C   LIG    1       24.091 -27.152   5.622  0.00  0.00    +0.008 C 
ATOM     20  C   LIG    1       25.360 -27.728   5.512  0.00  0.00    -0.025 C 
ATOM     21  C   LIG    1       26.487 -26.948   5.790  0.00  0.00    +0.008 C 
ATOM     22  C   LIG    1       26.344 -25.617   6.205  0.00  0.00    +0.005 C 
BRANCH  20  23
ATOM     23  C   LIG    1       25.506 -29.113   5.051  0.00  0.00    +0.013 C 
ATOM     24  C   LIG    1       25.344 -30.251   5.747  0.00  0.00    +0.070 C 
BRANCH  24  25
ATOM     25  C   LIG    1       24.918 -30.386   7.160  0.00  0.00    +0.259 C 
ATOM     26  N   LIG    1       25.982 -30.346   8.041  0.00  0.00    -0.194 N 
ATOM     27  H   LIG    1       26.944 -30.165   7.801  0.00  0.00    +0.182 HD
ATOM     28  O   LIG    1       23.769 -30.552   7.534  0.00  0.00    -0.269 OA
BRANCH  26  29
ATOM     29  O   LIG    1       25.670 -30.494   9.408  0.00  0.00    -0.295 OA
ATOM     30  H   LIG    1       25.719 -31.467   9.531  0.00  0.00    +0.241 HD
ENDBRANCH  26  29
ENDBRANCH  24  25
ENDBRANCH  20  23
ENDBRANCH  16  17
ENDBRANCH   1  16
TORSDOF 8
ENDMDL
MODEL 4
REMARK VINA RESULT:      -9.4      5.365      9.448
REMARK  Name = *****
REMARK                            x       y       z     vdW  Elec       q    Type
REMARK                         _______ _______ _______ _____ _____    ______ ____
ROOT
ATOM      1  N   LIG    1       23.852 -23.217   6.088  0.00  0.00    -0.312 NA
ATOM      2  H   LIG    1       24.073 -22.724   5.221  0.00  0.00    +0.122 HD
ENDROOT
BRANCH   1   3
ATOM      3  C   LIG    1       23.308 -22.238   7.035  0.00  0.00    +0.086 C 
BRANCH   3   4
ATOM      4  C   LIG    1       23.469 -20.789   6.547  0.00  0.00    +0.052 C 
BRANCH   4   7
ATOM      5  C   LIG    1       24.094 -20.210   3.425  0.00  0.00    +0.063 C 
ATOM      6  C   LIG    1       25.034 -20.253   4.576  0.00  0.00    +0.017 C 
ATOM      7  C   LIG    1       24.803 -20.481   5.925  0.00  0.00    -0.018 C 
ATOM      8  C   LIG    1       26.075 -20.387   6.591  0.00  0.00    +0.003 C 
ATOM      9  C   LIG    1       27.036 -20.127   5.614  0.00  0.00    +0.047 C 
ATOM     10  C   LIG    1       28.399 -19.979   5.901  0.00  0.00    +0.026 C 
ATOM     11  C   LIG    1       28.797 -20.080   7.236  0.00  0.00    +0.002 C 
ATOM     12  C   LIG    1       27.866 -20.333   8.239  0.00  0.00    +0.001 C 
ATOM     13  C   LIG    1       26.507 -20.498   7.931  0.00  0.00    +0.010 C 
ATOM     14  N   LIG    1       26.381 -20.062   4.408  0.00  0.00    -0.358 NA
ATOM     15  H   LIG    1       26.839 -19.893   3.524  0.00  0.00    +0.166 HD
ENDBRANCH   4   7
ENDBRANCH   3   4
ENDBRANCH   1   3
BRANCH   1  16
ATOM     16  C   LIG    1       25.075 -23.826   6.610  0.00  0.00    +0.116 C 
BRANCH  16  17
ATOM     17  C   LIG    1       25.165 -25.298   6.271  0.00  0.00    -0.034 C 
ATOM     18  C   LIG    1       26.414 -25.919   6.136  0.00  0.00    +0.005 C 
ATOM     19  C   LIG    1       26.510 -27.259   5.748  0.00  0.00    +0.008 C 
ATOM     20  C   LIG    1       25.359 -28.001   5.469  0.00  0.00    -0.025 C 
ATOM     21  C   LIG    1       24.107 -27.397   5.629  0.00  0.00    +0.008 C 
ATOM     22  C   LIG    1       24.011 -26.058   6.032  0.00  0.00    +0.005 C 
BRANCH  20  23
ATOM     23  C   LIG    1       25.463 -29.409   5.074  0.00  0.00    +0.013 C 
ATOM     24  C   LIG    1       25.315 -30.508   5.834  0.00  0.00    +0.070 C 
BRANCH  24  25
ATOM     25  C   LIG    1       24.949 -30.564   7.269  0.00  0.00    +0.259 C 
ATOM     26  N   LIG    1       26.051 -30.505   8.100  0.00  0.00    -0.194 N 
ATOM     27  H   LIG    1       27.005 -30.358   7.811  0.00  0.00    +0.182 HD
ATOM     28  O   LIG    1       23.813 -30.685   7.698  0.00  0.00    -0.269 OA
BRANCH  26  29
ATOM     29  O   LIG    1       25.796 -30.579   9.485  0.00  0.00    -0.295 OA
ATOM     30  H   LIG    1       25.692 -29.634   9.730  0.00  0.00    +0.241 HD
ENDBRANCH  26  29
ENDBRANCH  24  25
ENDBRANCH  20  23
ENDBRANCH  16  17
ENDBRANCH   1  16
TORSDOF 8
ENDMDL
MODEL 5
REMARK VINA RESULT:      -9.3      1.603      2.299
REMARK  Name = *****
REMARK                            x       y       z     vdW  Elec       q    Type
REMARK                         _______ _______ _______ _____ _____    ______ ____
ROOT
ATOM      1  N   LIG    1       25.911 -21.309   5.412  0.00  0.00    -0.312 NA
ATOM      2  H   LIG    1       25.080 -21.498   4.849  0.00  0.00    +0.122 HD
ENDROOT
BRANCH   1   3
ATOM      3  C   LIG    1       25.494 -21.236   6.816  0.00  0.00    +0.086 C 
BRANCH   3   4
ATOM      4  C   LIG    1       25.618 -22.584   7.542  0.00  0.00    +0.052 C 
BRANCH   4   7
ATOM      5  C   LIG    1       22.425 -22.631   7.012  0.00  0.00    +0.063 C 
ATOM      6  C   LIG    1       23.435 -23.687   6.742  0.00  0.00    +0.017 C 
ATOM      7  C   LIG    1       24.808 -23.699   6.939  0.00  0.00    -0.018 C 
ATOM      8  C   LIG    1       25.288 -24.976   6.481  0.00  0.00    +0.003 C 
ATOM      9  C   LIG    1       24.180 -25.701   6.042  0.00  0.00    +0.047 C 
ATOM     10  C   LIG    1       24.271 -27.002   5.531  0.00  0.00    +0.026 C 
ATOM     11  C   LIG    1       25.539 -27.580   5.444  0.00  0.00    +0.002 C 
ATOM     12  C   LIG    1       26.669 -26.884   5.867  0.00  0.00    +0.001 C 
ATOM     13  C   LIG    1       26.557 -25.589   6.395  0.00  0.00    +0.010 C 
ATOM     14  N   LIG    1       23.076 -24.904   6.221  0.00  0.00    -0.358 NA
ATOM     15  H   LIG    1       22.133 -25.184   5.993  0.00  0.00    +0.166 HD
ENDBRANCH   4   7
ENDBRANCH   3   4
ENDBRANCH   1   3
BRANCH   1  16
ATOM     16  C   LIG    1       26.500 -20.045   4.974  0.00  0.00    +0.116 C 
BRANCH  16  17
ATOM     17  C   LIG    1       27.856 -19.804   5.600  0.00  0.00    -0.034 C 
ATOM     18  C   LIG    1       28.375 -20.707   6.539  0.00  0.00    +0.005 C 
ATOM     19  C   LIG    1       29.592 -20.455   7.180  0.00  0.00    +0.008 C 
ATOM     20  C   LIG    1       30.306 -19.284   6.910  0.00  0.00    -0.025 C 
ATOM     21  C   LIG    1       29.810 -18.391   5.954  0.00  0.00    +0.008 C 
ATOM     22  C   LIG    1       28.599 -18.652   5.300  0.00  0.00    +0.005 C 
BRANCH  20  23
ATOM     23  C   LIG    1       31.587 -19.029   7.576  0.00  0.00    +0.013 C 
ATOM     24  C   LIG    1       31.815 -18.424   8.755  0.00  0.00    +0.070 C 
BRANCH  24  25
ATOM     25  C   LIG    1       30.805 -17.907   9.708  0.00  0.00    +0.259 C 
ATOM     26  N   LIG    1       31.231 -16.770  10.368  0.00  0.00    -0.194 N 
ATOM     27  H   LIG    1       32.087 -16.268  10.192  0.00  0.00    +0.182 HD
ATOM     28  O   LIG    1       29.725 -18.427   9.936  0.00  0.00    -0.269 OA
BRANCH  26  29
ATOM     29  O   LIG    1       30.341 -16.225  11.315  0.00  0.00    -0.295 OA
ATOM     30  H   LIG    1       29.542 -16.784  11.199  0.00  0.00    +0.241 HD
ENDBRANCH  26  29
ENDBRANCH  24  25
ENDBRANCH  20  23
ENDBRANCH  16  17
ENDBRANCH   1  16
TORSDOF 8
ENDMDL
MODEL 6
REMARK VINA RESULT:      -9.3      5.205      9.351
REMARK  Name = *****
REMARK                            x       y       z     vdW  Elec       q    Type
REMARK                         _______ _______ _______ _____ _____    ______ ____
ROOT
ATOM      1  N   LIG    1       23.339 -23.575   6.411  0.00  0.00    -0.312 NA
ATOM      2  H   LIG    1       22.855 -23.394   5.530  0.00  0.00    +0.122 HD
ENDROOT
BRANCH   1   3
ATOM      3  C   LIG    1       23.293 -22.344   7.208  0.00  0.00    +0.086 C 
BRANCH   3   4
ATOM      4  C   LIG    1       23.298 -21.076   6.340  0.00  0.00    +0.052 C 
BRANCH   4   7
ATOM      5  C   LIG    1       24.105 -20.439   3.271  0.00  0.00    +0.063 C 
ATOM      6  C   LIG    1       24.962 -20.430   4.486  0.00  0.00    +0.017 C 
ATOM      7  C   LIG    1       24.651 -20.680   5.815  0.00  0.00    -0.018 C 
ATOM      8  C   LIG    1       25.864 -20.510   6.570  0.00  0.00    +0.003 C 
ATOM      9  C   LIG    1       26.873 -20.184   5.664  0.00  0.00    +0.047 C 
ATOM     10  C   LIG    1       28.200 -19.952   6.048  0.00  0.00    +0.026 C 
ATOM     11  C   LIG    1       28.509 -20.036   7.408  0.00  0.00    +0.002 C 
ATOM     12  C   LIG    1       27.526 -20.353   8.341  0.00  0.00    +0.001 C 
ATOM     13  C   LIG    1       26.206 -20.602   7.937  0.00  0.00    +0.010 C 
ATOM     14  N   LIG    1       26.303 -20.153   4.415  0.00  0.00    -0.358 NA
ATOM     15  H   LIG    1       26.810 -19.950   3.566  0.00  0.00    +0.166 HD
ENDBRANCH   4   7
ENDBRANCH   3   4
ENDBRANCH   1   3
BRANCH   1  16
ATOM     16  C   LIG    1       24.719 -23.959   6.121  0.00  0.00    +0.116 C 
BRANCH  16  17
ATOM     17  C   LIG    1       24.919 -25.457   6.196  0.00  0.00    -0.034 C 
ATOM     18  C   LIG    1       24.101 -26.319   5.453  0.00  0.00    +0.005 C 
ATOM     19  C   LIG    1       24.226 -27.708   5.573  0.00  0.00    +0.008 C 
ATOM     20  C   LIG    1       25.159 -28.262   6.454  0.00  0.00    -0.025 C 
ATOM     21  C   LIG    1       25.999 -27.408   7.178  0.00  0.00    +0.008 C 
ATOM     22  C   LIG    1       25.884 -26.018   7.046  0.00  0.00    +0.005 C 
BRANCH  20  23
ATOM     23  C   LIG    1       25.295 -29.717   6.568  0.00  0.00    +0.013 C 
ATOM     24  C   LIG    1       24.970 -30.512   7.603  0.00  0.00    +0.070 C 
BRANCH  24  25
ATOM     25  C   LIG    1       24.335 -30.109   8.879  0.00  0.00    +0.259 C 
ATOM     26  N   LIG    1       25.259 -29.766   9.847  0.00  0.00    -0.194 N 
ATOM     27  H   LIG    1       26.257 -29.703   9.719  0.00  0.00    +0.182 HD
ATOM     28  O   LIG    1       23.134 -30.106   9.094  0.00  0.00    -0.269 OA
BRANCH  26  29
ATOM     29  O   LIG    1       24.741 -29.394  11.105  0.00  0.00    -0.295 OA
ATOM     30  H   LIG    1       24.092 -30.109  11.284  0.00  0.00    +0.241 HD
ENDBRANCH  26  29
ENDBRANCH  24  25
ENDBRANCH  20  23
ENDBRANCH  16  17
ENDBRANCH   1  16
TORSDOF 8
ENDMDL
MODEL 7
REMARK VINA RESULT:      -9.1      5.880      8.570
REMARK  Name = *****
REMARK                            x       y       z     vdW  Elec       q    Type
REMARK                         _______ _______ _______ _____ _____    ______ ____
ROOT
ATOM      1  N   LIG    1       25.512 -27.206   4.905  0.00  0.00    -0.312 NA
ATOM      2  H   LIG    1       24.685 -26.681   4.614  0.00  0.00    +0.122 HD
ENDROOT
BRANCH   1   3
ATOM      3  C   LIG    1       25.112 -28.605   5.087  0.00  0.00    +0.086 C 
BRANCH   3   4
ATOM      4  C   LIG    1       24.226 -28.814   6.325  0.00  0.00    +0.052 C 
BRANCH   4   7
ATOM      5  C   LIG    1       23.671 -32.001   6.252  0.00  0.00    +0.063 C 
ATOM      6  C   LIG    1       24.456 -31.210   7.234  0.00  0.00    +0.017 C 
ATOM      7  C   LIG    1       24.730 -29.851   7.290  0.00  0.00    -0.018 C 
ATOM      8  C   LIG    1       25.556 -29.636   8.448  0.00  0.00    +0.003 C 
ATOM      9  C   LIG    1       25.735 -30.874   9.065  0.00  0.00    +0.047 C 
ATOM     10  C   LIG    1       26.487 -31.044  10.235  0.00  0.00    +0.026 C 
ATOM     11  C   LIG    1       27.096 -29.915  10.787  0.00  0.00    +0.002 C 
ATOM     12  C   LIG    1       26.945 -28.664  10.196  0.00  0.00    +0.001 C 
ATOM     13  C   LIG    1       26.172 -28.509   9.035  0.00  0.00    +0.010 C 
ATOM     14  N   LIG    1       25.052 -31.802   8.318  0.00  0.00    -0.358 NA
ATOM     15  H   LIG    1       25.005 -32.785   8.543  0.00  0.00    +0.166 HD
ENDBRANCH   4   7
ENDBRANCH   3   4
ENDBRANCH   1   3
BRANCH   1  16
ATOM     16  C   LIG    1       26.015 -26.639   6.155  0.00  0.00    +0.116 C 
BRANCH  16  17
ATOM     17  C   LIG    1       25.318 -25.345   6.514  0.00  0.00    -0.034 C 
ATOM     18  C   LIG    1       23.936 -25.207   6.319  0.00  0.00    +0.005 C 
ATOM     19  C   LIG    1       23.295 -23.991   6.574  0.00  0.00    +0.008 C 
ATOM     20  C   LIG    1       24.025 -22.882   7.011  0.00  0.00    -0.025 C 
ATOM     21  C   LIG    1       25.399 -23.019   7.235  0.00  0.00    +0.008 C 
ATOM     22  C   LIG    1       26.039 -24.242   6.994  0.00  0.00    +0.005 C 
BRANCH  20  23
ATOM     23  C   LIG    1       23.346 -21.612   7.289  0.00  0.00    +0.013 C 
ATOM     24  C   LIG    1       23.306 -20.499   6.536  0.00  0.00    +0.070 C 
BRANCH  24  25
ATOM     25  C   LIG    1       23.903 -20.302   5.193  0.00  0.00    +0.259 C 
ATOM     26  N   LIG    1       25.284 -20.289   5.224  0.00  0.00    -0.194 N 
ATOM     27  H   LIG    1       25.862 -20.470   6.029  0.00  0.00    +0.182 HD
ATOM     28  O   LIG    1       23.271 -20.130   4.164  0.00  0.00    -0.269 OA
BRANCH  26  29
ATOM     29  O   LIG    1       25.935 -20.079   3.991  0.00  0.00    -0.295 OA
ATOM     30  H   LIG    1       26.542 -20.849   3.940  0.00  0.00    +0.241 HD
ENDBRANCH  26  29
ENDBRANCH  24  25
ENDBRANCH  20  23
ENDBRANCH  16  17
ENDBRANCH   1  16
TORSDOF 8
ENDMDL
MODEL 8
REMARK VINA RESULT:      -9.1      5.782     10.322
REMARK  Name = *****
REMARK                            x       y       z     vdW  Elec       q    Type
REMARK                         _______ _______ _______ _____ _____    ______ ____
ROOT
ATOM      1  N   LIG    1       25.483 -24.001   6.923  0.00  0.00    -0.312 NA
ATOM      2  H   LIG    1       25.513 -24.480   7.825  0.00  0.00    +0.122 HD
ENDROOT
BRANCH   1   3
ATOM      3  C   LIG    1       24.163 -23.375   6.791  0.00  0.00    +0.086 C 
BRANCH   3   4
ATOM      4  C   LIG    1       24.201 -21.857   7.027  0.00  0.00    +0.052 C 
BRANCH   4   7
ATOM      5  C   LIG    1       24.003 -21.022   3.906  0.00  0.00    +0.063 C 
ATOM      6  C   LIG    1       25.113 -20.794   4.868  0.00  0.00    +0.017 C 
ATOM      7  C   LIG    1       25.227 -21.120   6.212  0.00  0.00    -0.018 C 
ATOM      8  C   LIG    1       26.511 -20.642   6.652  0.00  0.00    +0.003 C 
ATOM      9  C   LIG    1       27.137 -20.061   5.550  0.00  0.00    +0.047 C 
ATOM     10  C   LIG    1       28.416 -19.492   5.609  0.00  0.00    +0.026 C 
ATOM     11  C   LIG    1       29.075 -19.497   6.840  0.00  0.00    +0.002 C 
ATOM     12  C   LIG    1       28.479 -20.063   7.964  0.00  0.00    +0.001 C 
ATOM     13  C   LIG    1       27.205 -20.646   7.882  0.00  0.00    +0.010 C 
ATOM     14  N   LIG    1       26.276 -20.176   4.487  0.00  0.00    -0.358 NA
ATOM     15  H   LIG    1       26.480 -19.845   3.555  0.00  0.00    +0.166 HD
ENDBRANCH   4   7
ENDBRANCH   3   4
ENDBRANCH   1   3
BRANCH   1  16
ATOM     16  C   LIG    1       25.707 -24.981   5.861  0.00  0.00    +0.116 C 
BRANCH  16  17
ATOM     17  C   LIG    1       25.413 -26.392   6.319  0.00  0.00    -0.034 C 
ATOM     18  C   LIG    1       24.362 -27.120   5.743  0.00  0.00    +0.005 C 
ATOM     19  C   LIG    1       24.033 -28.396   6.213  0.00  0.00    +0.008 C 
ATOM     20  C   LIG    1       24.736 -28.962   7.280  0.00  0.00    -0.025 C 
ATOM     21  C   LIG    1       25.804 -28.254   7.841  0.00  0.00    +0.008 C 
ATOM     22  C   LIG    1       26.143 -26.983   7.361  0.00  0.00    +0.005 C 
BRANCH  20  23
ATOM     23  C   LIG    1       24.394 -30.305   7.761  0.00  0.00    +0.013 C 
ATOM     24  C   LIG    1       24.672 -31.494   7.199  0.00  0.00    +0.070 C 
BRANCH  24  25
ATOM     25  C   LIG    1       25.451 -31.742   5.963  0.00  0.00    +0.259 C 
ATOM     26  N   LIG    1       24.657 -31.773   4.832  0.00  0.00    -0.194 N 
ATOM     27  H   LIG    1       23.670 -31.573   4.795  0.00  0.00    +0.182 HD
ATOM     28  O   LIG    1       26.654 -31.939   5.920  0.00  0.00    -0.269 OA
BRANCH  26  29
ATOM     29  O   LIG    1       25.315 -32.031   3.612  0.00  0.00    -0.295 OA
ATOM     30  H   LIG    1       26.054 -32.614   3.891  0.00  0.00    +0.241 HD
ENDBRANCH  26  29
ENDBRANCH  24  25
ENDBRANCH  20  23
ENDBRANCH  16  17
ENDBRANCH   1  16
TORSDOF 8
ENDMDL
MODEL 9
REMARK VINA RESULT:      -9.0      4.612      8.030
REMARK  Name = *****
REMARK                            x       y       z     vdW  Elec       q    Type
REMARK                         _______ _______ _______ _____ _____    ______ ____
ROOT
ATOM      1  N   LIG    1       25.240 -27.116   5.017  0.00  0.00    -0.312 NA
ATOM      2  H   LIG    1       25.200 -26.808   4.044  0.00  0.00    +0.122 HD
ENDROOT
BRANCH   1   3
ATOM      3  C   LIG    1       25.148 -28.579   5.028  0.00  0.00    +0.086 C 
BRANCH   3   4
ATOM      4  C   LIG    1       24.084 -29.100   6.007  0.00  0.00    +0.052 C 
BRANCH   4   7
ATOM      5  C   LIG    1       23.579 -32.289   6.229  0.00  0.00    +0.063 C 
ATOM      6  C   LIG    1       24.353 -31.398   7.132  0.00  0.00    +0.017 C 
ATOM      7  C   LIG    1       24.605 -30.035   7.062  0.00  0.00    -0.018 C 
ATOM      8  C   LIG    1       25.430 -29.702   8.193  0.00  0.00    +0.003 C 
ATOM      9  C   LIG    1       25.629 -30.875   8.921  0.00  0.00    +0.047 C 
ATOM     10  C   LIG    1       26.385 -30.924  10.099  0.00  0.00    +0.026 C 
ATOM     11  C   LIG    1       26.977 -29.740  10.544  0.00  0.00    +0.002 C 
ATOM     12  C   LIG    1       26.805 -28.551   9.840  0.00  0.00    +0.001 C 
ATOM     13  C   LIG    1       26.028 -28.515   8.673  0.00  0.00    +0.010 C 
ATOM     14  N   LIG    1       24.960 -31.878   8.264  0.00  0.00    -0.358 NA
ATOM     15  H   LIG    1       24.929 -32.837   8.579  0.00  0.00    +0.166 HD
ENDBRANCH   4   7
ENDBRANCH   3   4
ENDBRANCH   1   3
BRANCH   1  16
ATOM     16  C   LIG    1       24.125 -26.516   5.749  0.00  0.00    +0.116 C 
BRANCH  16  17
ATOM     17  C   LIG    1       24.484 -25.161   6.319  0.00  0.00    -0.034 C 
ATOM     18  C   LIG    1       25.802 -24.881   6.704  0.00  0.00    +0.005 C 
ATOM     19  C   LIG    1       26.130 -23.659   7.303  0.00  0.00    +0.008 C 
ATOM     20  C   LIG    1       25.141 -22.702   7.547  0.00  0.00    -0.025 C 
ATOM     21  C   LIG    1       23.828 -22.963   7.140  0.00  0.00    +0.008 C 
ATOM     22  C   LIG    1       23.504 -24.180   6.526  0.00  0.00    +0.005 C 
BRANCH  20  23
ATOM     23  C   LIG    1       25.491 -21.419   8.165  0.00  0.00    +0.013 C 
ATOM     24  C   LIG    1       26.218 -20.411   7.653  0.00  0.00    +0.070 C 
BRANCH  24  25
ATOM     25  C   LIG    1       26.807 -20.328   6.296  0.00  0.00    +0.259 C 
ATOM     26  N   LIG    1       25.847 -20.313   5.301  0.00  0.00    -0.194 N 
ATOM     27  H   LIG    1       24.850 -20.278   5.440  0.00  0.00    +0.182 HD
ATOM     28  O   LIG    1       28.001 -20.311   6.049  0.00  0.00    -0.269 OA
BRANCH  26  29
ATOM     29  O   LIG    1       26.321 -20.262   3.975  0.00  0.00    -0.295 OA
ATOM     30  H   LIG    1       26.407 -19.297   3.819  0.00  0.00    +0.241 HD
ENDBRANCH  26  29
ENDBRANCH  24  25
ENDBRANCH  20  23
ENDBRANCH  16  17
ENDBRANCH   1  16
TORSDOF 8
ENDMDL
