MODEL 1
REMARK VINA RESULT:      13.7      0.000      0.000
REMARK  Name = *****
REMARK                            x       y       z     vdW  Elec       q    Type
REMARK                         _______ _______ _______ _____ _____    ______ ____
ROOT
ATOM      1  C   LIG    1       24.703 -18.021   3.944  0.00  0.00    +0.064 A 
ATOM      2  C   LIG    1       25.838 -17.213   3.674  0.00  0.00    +0.049 A 
ATOM      3  I   LIG    1       27.794 -18.193   3.763  0.00  0.00    -0.041 I 
ATOM      4  C   LIG    1       25.743 -15.797   3.583  0.00  0.00    +0.065 A 
ATOM      5  C   LIG    1       24.526 -15.187   4.031  0.00  0.00    +0.040 A 
ATOM      6  I   LIG    1       24.213 -13.056   3.779  0.00  0.00    -0.042 I 
ATOM      7  C   LIG    1       23.443 -15.973   4.528  0.00  0.00    +0.065 A 
ATOM      8  C   LIG    1       23.500 -17.372   4.303  0.00  0.00    +0.049 A 
ATOM      9  I   LIG    1       21.583 -18.416   3.995  0.00  0.00    -0.041 I 
ENDROOT
BRANCH   4  10
ATOM     10  C   LIG    1       26.893 -14.957   3.016  0.00  0.00    +0.246 C 
ATOM     11  N   LIG    1       28.001 -14.809   3.849  0.00  0.00    -0.309 N 
ATOM     12  H   LIG    1       27.826 -14.843   4.845  0.00  0.00    +0.149 HD
ATOM     13  O   LIG    1       26.851 -14.443   1.930  0.00  0.00    -0.270 OA
BRANCH  11  14
ATOM     14  C   LIG    1       29.144 -13.978   3.475  0.00  0.00    +0.138 C 
BRANCH  14  15
ATOM     15  C   LIG    1       28.935 -12.504   3.868  0.00  0.00    +0.157 C 
BRANCH  15  16
ATOM     16  O   LIG    1       27.859 -11.944   3.098  0.00  0.00    -0.388 OA
ATOM     17  H   LIG    1       28.088 -12.107   2.159  0.00  0.00    +0.210 HD
ENDBRANCH  15  16
BRANCH  15  18
ATOM     18  C   LIG    1       28.612 -12.326   5.356  0.00  0.00    +0.188 C 
BRANCH  18  19
ATOM     19  O   LIG    1       27.204 -12.508   5.550  0.00  0.00    -0.392 OA
ATOM     20  H   LIG    1       26.806 -11.626   5.646  0.00  0.00    +0.209 HD
ENDBRANCH  18  19
ENDBRANCH  15  18
ENDBRANCH  14  15
ENDBRANCH  11  14
ENDBRANCH   4  10
BRANCH   1  23
ATOM     21  C   LIG    1       23.730 -21.571   2.945  0.00  0.00    +0.110 C 
ATOM     22  C   LIG    1       23.870 -20.066   2.896  0.00  0.00    +0.217 C 
ATOM     23  N   LIG    1       24.746 -19.459   3.808  0.00  0.00    -0.267 N 
ATOM     24  O   LIG    1       23.125 -19.420   2.151  0.00  0.00    -0.276 OA
BRANCH  23  25
ATOM     25  C   LIG    1       25.623 -20.218   4.725  0.00  0.00    +0.147 C 
BRANCH  25  26
ATOM     26  C   LIG    1       24.908 -20.784   5.968  0.00  0.00    +0.158 C 
BRANCH  26  27
ATOM     27  O   LIG    1       23.995 -19.825   6.508  0.00  0.00    -0.388 OA
ATOM     28  H   LIG    1       24.270 -19.684   7.437  0.00  0.00    +0.210 HD
ENDBRANCH  26  27
BRANCH  26  29
ATOM     29  C   LIG    1       25.928 -21.131   7.062  0.00  0.00    +0.188 C 
BRANCH  29  30
ATOM     30  O   LIG    1       27.199 -20.587   6.691  0.00  0.00    -0.392 OA
ATOM     31  H   LIG    1       27.226 -20.531   5.718  0.00  0.00    +0.209 HD
ENDBRANCH  29  30
ENDBRANCH  26  29
ENDBRANCH  25  26
ENDBRANCH  23  25
ENDBRANCH   1  23
BRANCH   7  32
ATOM     32  C   LIG    1       22.295 -15.425   5.350  0.00  0.00    +0.246 C 
ATOM     33  N   LIG    1       22.623 -14.420   6.266  0.00  0.00    -0.309 N 
ATOM     34  H   LIG    1       23.579 -14.105   6.404  0.00  0.00    +0.149 HD
ATOM     35  O   LIG    1       21.135 -15.792   5.214  0.00  0.00    -0.270 OA
BRANCH  33  36
ATOM     36  C   LIG    1       21.597 -13.664   6.987  0.00  0.00    +0.138 C 
BRANCH  36  37
ATOM     37  C   LIG    1       21.215 -12.351   6.297  0.00  0.00    +0.157 C 
BRANCH  37  38
ATOM     38  O   LIG    1       20.221 -11.645   7.061  0.00  0.00    -0.388 OA
ATOM     39  H   LIG    1       20.196 -10.742   6.678  0.00  0.00    +0.210 HD
ENDBRANCH  37  38
BRANCH  37  40
ATOM     40  C   LIG    1       22.444 -11.447   6.138  0.00  0.00    +0.188 C 
BRANCH  40  41
ATOM     41  O   LIG    1       23.574 -12.088   6.735  0.00  0.00    -0.392 OA
ATOM     42  H   LIG    1       23.239 -12.819   7.286  0.00  0.00    +0.209 HD
ENDBRANCH  40  41
ENDBRANCH  37  40
ENDBRANCH  36  37
ENDBRANCH  33  36
ENDBRANCH   7  32
TORSDOF 18
ENDMDL
MODEL 2
REMARK VINA RESULT:      16.4      2.363      5.632
REMARK  Name = *****
REMARK                            x       y       z     vdW  Elec       q    Type
REMARK                         _______ _______ _______ _____ _____    ______ ____
ROOT
ATOM      1  C   LIG    1       23.236 -17.823   4.294  0.00  0.00    +0.064 A 
ATOM      2  C   LIG    1       23.979 -18.879   4.885  0.00  0.00    +0.049 A 
ATOM      3  I   LIG    1       22.921 -20.157   6.314  0.00  0.00    -0.041 I 
ATOM      4  C   LIG    1       25.391 -18.968   4.744  0.00  0.00    +0.065 A 
ATOM      5  C   LIG    1       26.076 -17.825   4.217  0.00  0.00    +0.040 A 
ATOM      6  I   LIG    1       28.203 -17.917   3.805  0.00  0.00    -0.042 I 
ATOM      7  C   LIG    1       25.363 -16.651   3.826  0.00  0.00    +0.065 A 
ATOM      8  C   LIG    1       23.954 -16.754   3.712  0.00  0.00    +0.049 A 
ATOM      9  I   LIG    1       22.980 -15.523   2.165  0.00  0.00    -0.041 I 
ENDROOT
BRANCH   4  10
ATOM     10  C   LIG    1       26.151 -20.243   5.130  0.00  0.00    +0.246 C 
ATOM     11  N   LIG    1       26.544 -20.330   6.465  0.00  0.00    -0.309 N 
ATOM     12  H   LIG    1       26.720 -19.456   6.943  0.00  0.00    +0.149 HD
ATOM     13  O   LIG    1       26.409 -21.112   4.342  0.00  0.00    -0.270 OA
BRANCH  11  14
ATOM     14  C   LIG    1       27.337 -21.452   6.965  0.00  0.00    +0.138 C 
BRANCH  14  15
ATOM     15  C   LIG    1       28.848 -21.194   6.826  0.00  0.00    +0.157 C 
BRANCH  15  16
ATOM     16  O   LIG    1       29.285 -21.570   5.510  0.00  0.00    -0.388 OA
ATOM     17  H   LIG    1       29.058 -22.518   5.413  0.00  0.00    +0.210 HD
ENDBRANCH  15  16
BRANCH  15  18
ATOM     18  C   LIG    1       29.224 -19.727   7.062  0.00  0.00    +0.188 C 
BRANCH  18  19
ATOM     19  O   LIG    1       29.198 -19.034   5.809  0.00  0.00    -0.392 OA
ATOM     20  H   LIG    1       28.615 -19.534   5.211  0.00  0.00    +0.209 HD
ENDBRANCH  18  19
ENDBRANCH  15  18
ENDBRANCH  14  15
ENDBRANCH  11  14
ENDBRANCH   4  10
BRANCH   1  23
ATOM     21  C   LIG    1       19.693 -18.936   3.424  0.00  0.00    +0.110 C 
ATOM     22  C   LIG    1       21.173 -19.006   3.731  0.00  0.00    +0.217 C 
ATOM     23  N   LIG    1       21.793 -17.853   4.235  0.00  0.00    -0.267 N 
ATOM     24  O   LIG    1       21.801 -20.020   3.412  0.00  0.00    -0.276 OA
BRANCH  23  25
ATOM     25  C   LIG    1       21.056 -16.622   4.596  0.00  0.00    +0.147 C 
BRANCH  25  26
ATOM     26  C   LIG    1       21.660 -15.844   5.782  0.00  0.00    +0.158 C 
BRANCH  26  27
ATOM     27  O   LIG    1       20.628 -15.311   6.617  0.00  0.00    -0.388 OA
ATOM     28  H   LIG    1       21.085 -14.798   7.315  0.00  0.00    +0.210 HD
ENDBRANCH  26  27
BRANCH  26  29
ATOM     29  C   LIG    1       22.510 -14.670   5.275  0.00  0.00    +0.188 C 
BRANCH  29  30
ATOM     30  O   LIG    1       22.880 -13.858   6.394  0.00  0.00    -0.392 OA
ATOM     31  H   LIG    1       22.944 -14.437   7.175  0.00  0.00    +0.209 HD
ENDBRANCH  29  30
ENDBRANCH  26  29
ENDBRANCH  25  26
ENDBRANCH  23  25
ENDBRANCH   1  23
BRANCH   7  32
ATOM     32  C   LIG    1       26.001 -15.294   3.616  0.00  0.00    +0.246 C 
ATOM     33  N   LIG    1       25.542 -14.265   4.447  0.00  0.00    -0.309 N 
ATOM     34  H   LIG    1       24.796 -14.408   5.122  0.00  0.00    +0.149 HD
ATOM     35  O   LIG    1       26.895 -15.089   2.805  0.00  0.00    -0.270 OA
BRANCH  33  36
ATOM     36  C   LIG    1       26.196 -12.956   4.493  0.00  0.00    +0.138 C 
BRANCH  36  37
ATOM     37  C   LIG    1       25.784 -12.032   3.344  0.00  0.00    +0.157 C 
BRANCH  37  38
ATOM     38  O   LIG    1       26.152 -12.604   2.074  0.00  0.00    -0.388 OA
ATOM     39  H   LIG    1       25.367 -12.480   1.500  0.00  0.00    +0.210 HD
ENDBRANCH  37  38
BRANCH  37  40
ATOM     40  C   LIG    1       24.268 -11.799   3.355  0.00  0.00    +0.188 C 
BRANCH  40  41
ATOM     41  O   LIG    1       23.822 -11.707   4.710  0.00  0.00    -0.392 OA
ATOM     42  H   LIG    1       22.847 -11.685   4.697  0.00  0.00    +0.209 HD
ENDBRANCH  40  41
ENDBRANCH  37  40
ENDBRANCH  36  37
ENDBRANCH  33  36
ENDBRANCH   7  32
TORSDOF 18
ENDMDL
