MODEL 1
REMARK VINA RESULT:      -4.6      0.000      0.000
REMARK  Name = *****
REMARK                            x       y       z     vdW  Elec       q    Type
REMARK                         _______ _______ _______ _____ _____    ______ ____
ROOT
ATOM      1  O   LIG    1       23.261 -14.474   3.855  0.00  0.00    -0.375 OA
ENDROOT
BRANCH   1   2
ATOM      2  C   LIG    1       24.291 -13.607   4.379  0.00  0.00    +0.135 C 
ATOM      3  C   LIG    1       25.533 -13.665   3.419  0.00  0.00    +0.086 C 
ATOM      4  C   LIG    1       25.082 -13.130   2.034  0.00  0.00    +0.021 C 
ATOM      5  C   LIG    1       24.488 -11.722   2.099  0.00  0.00    +0.002 C 
ATOM      6  C   LIG    1       23.379 -11.600   3.141  0.00  0.00    +0.003 C 
ATOM      7  C   LIG    1       23.802 -12.154   4.499  0.00  0.00    +0.033 C 
BRANCH   3   8
ATOM      8  N   LIG    1       26.721 -12.927   3.937  0.00  0.00    -0.294 NA
ATOM      9  C   LIG    1       27.273 -13.521   5.175  0.00  0.00    +0.116 C 
ATOM     10  C   LIG    1       28.744 -13.114   5.165  0.00  0.00    +0.130 C 
ATOM     11  C   LIG    1       29.104 -13.262   3.703  0.00  0.00    +0.048 C 
ATOM     12  C   LIG    1       27.835 -12.836   2.972  0.00  0.00    +0.087 C 
BRANCH  10  13
ATOM     13  O   LIG    1       28.906 -11.757   5.573  0.00  0.00    -0.391 OA
ATOM     14  H   LIG    1       28.434 -11.669   6.422  0.00  0.00    +0.210 HD
ENDBRANCH  10  13
ENDBRANCH   3   8
ENDBRANCH   1   2
BRANCH   1  15
ATOM     15  C   LIG    1       22.738 -15.403   4.809  0.00  0.00    +0.165 C 
BRANCH  15  16
ATOM     16  C   LIG    1       22.135 -16.600   4.080  0.00  0.00    +0.063 C 
BRANCH  16  20
ATOM     17  C   LIG    1       24.603 -20.123   4.495  0.00  0.00    +0.162 A 
ATOM     18  C   LIG    1       23.287 -20.132   5.018  0.00  0.00    +0.162 A 
ATOM     19  C   LIG    1       22.493 -18.984   4.866  0.00  0.00    +0.053 A 
ATOM     20  C   LIG    1       22.986 -17.838   4.223  0.00  0.00    -0.042 A 
ATOM     21  C   LIG    1       24.283 -17.860   3.698  0.00  0.00    +0.007 A 
ATOM     22  C   LIG    1       25.075 -18.980   3.846  0.00  0.00    +0.050 A 
BRANCH  17  24
ATOM     23  C   LIG    1       26.339 -21.107   5.773  0.00  0.00    +0.277 C 
ATOM     24  O   LIG    1       25.421 -21.209   4.686  0.00  0.00    -0.491 OA
ENDBRANCH  17  24
BRANCH  18  25
ATOM     25  O   LIG    1       22.661 -21.161   5.668  0.00  0.00    -0.491 OA
ATOM     26  C   LIG    1       23.052 -21.428   7.011  0.00  0.00    +0.277 C 
ENDBRANCH  18  25
ENDBRANCH  16  20
ENDBRANCH  15  16
ENDBRANCH   1  15
TORSDOF 8
ENDMDL
MODEL 2
REMARK VINA RESULT:      -4.0      0.740      1.707
REMARK  Name = *****
REMARK                            x       y       z     vdW  Elec       q    Type
REMARK                         _______ _______ _______ _____ _____    ______ ____
ROOT
ATOM      1  O   LIG    1       23.291 -14.540   3.777  0.00  0.00    -0.375 OA
ENDROOT
BRANCH   1   2
ATOM      2  C   LIG    1       24.314 -13.671   4.308  0.00  0.00    +0.135 C 
ATOM      3  C   LIG    1       25.552 -13.701   3.342  0.00  0.00    +0.086 C 
ATOM      4  C   LIG    1       25.089 -13.151   1.967  0.00  0.00    +0.021 C 
ATOM      5  C   LIG    1       24.480 -11.751   2.055  0.00  0.00    +0.002 C 
ATOM      6  C   LIG    1       23.375 -11.655   3.104  0.00  0.00    +0.003 C 
ATOM      7  C   LIG    1       23.810 -12.224   4.452  0.00  0.00    +0.033 C 
BRANCH   3   8
ATOM      8  N   LIG    1       26.735 -12.958   3.865  0.00  0.00    -0.294 NA
ATOM      9  C   LIG    1       27.213 -13.479   5.165  0.00  0.00    +0.116 C 
ATOM     10  C   LIG    1       28.693 -13.108   5.198  0.00  0.00    +0.130 C 
ATOM     11  C   LIG    1       29.116 -13.365   3.768  0.00  0.00    +0.048 C 
ATOM     12  C   LIG    1       27.894 -12.960   2.951  0.00  0.00    +0.087 C 
BRANCH  10  13
ATOM     13  O   LIG    1       28.873 -11.731   5.521  0.00  0.00    -0.391 OA
ATOM     14  H   LIG    1       28.375 -11.226   4.851  0.00  0.00    +0.210 HD
ENDBRANCH  10  13
ENDBRANCH   3   8
ENDBRANCH   1   2
BRANCH   1  15
ATOM     15  C   LIG    1       22.761 -15.468   4.728  0.00  0.00    +0.165 C 
BRANCH  15  16
ATOM     16  C   LIG    1       22.193 -16.682   3.998  0.00  0.00    +0.063 C 
BRANCH  16  20
ATOM     17  C   LIG    1       24.197 -20.351   5.088  0.00  0.00    +0.162 A 
ATOM     18  C   LIG    1       24.890 -19.385   4.320  0.00  0.00    +0.162 A 
ATOM     19  C   LIG    1       24.229 -18.192   3.982  0.00  0.00    +0.053 A 
ATOM     20  C   LIG    1       22.904 -17.956   4.379  0.00  0.00    -0.042 A 
ATOM     21  C   LIG    1       22.247 -18.918   5.155  0.00  0.00    +0.007 A 
ATOM     22  C   LIG    1       22.884 -20.097   5.488  0.00  0.00    +0.050 A 
BRANCH  17  24
ATOM     23  C   LIG    1       25.604 -21.571   6.554  0.00  0.00    +0.277 C 
ATOM     24  O   LIG    1       24.798 -21.552   5.378  0.00  0.00    -0.491 OA
ENDBRANCH  17  24
BRANCH  18  25
ATOM     25  O   LIG    1       26.175 -19.462   3.854  0.00  0.00    -0.491 OA
ATOM     26  C   LIG    1       27.229 -19.266   4.791  0.00  0.00    +0.277 C 
ENDBRANCH  18  25
ENDBRANCH  16  20
ENDBRANCH  15  16
ENDBRANCH   1  15
TORSDOF 8
ENDMDL
MODEL 3
REMARK VINA RESULT:      -3.8      1.065      1.344
REMARK  Name = *****
REMARK                            x       y       z     vdW  Elec       q    Type
REMARK                         _______ _______ _______ _____ _____    ______ ____
ROOT
ATOM      1  O   LIG    1       22.991 -15.039   3.819  0.00  0.00    -0.375 OA
ENDROOT
BRANCH   1   2
ATOM      2  C   LIG    1       24.322 -14.623   4.194  0.00  0.00    +0.135 C 
ATOM      3  C   LIG    1       25.242 -14.670   2.922  0.00  0.00    +0.086 C 
ATOM      4  C   LIG    1       24.671 -13.660   1.892  0.00  0.00    +0.021 C 
ATOM      5  C   LIG    1       24.554 -12.240   2.447  0.00  0.00    +0.002 C 
ATOM      6  C   LIG    1       23.796 -12.187   3.772  0.00  0.00    +0.003 C 
ATOM      7  C   LIG    1       24.329 -13.201   4.780  0.00  0.00    +0.033 C 
BRANCH   3   8
ATOM      8  N   LIG    1       26.680 -14.409   3.216  0.00  0.00    -0.294 NA
ATOM      9  C   LIG    1       27.105 -13.040   2.847  0.00  0.00    +0.116 C 
ATOM     10  C   LIG    1       28.282 -12.748   3.772  0.00  0.00    +0.130 C 
ATOM     11  C   LIG    1       27.824 -13.369   5.074  0.00  0.00    +0.048 C 
ATOM     12  C   LIG    1       27.045 -14.604   4.633  0.00  0.00    +0.087 C 
BRANCH  10  13
ATOM     13  O   LIG    1       29.469 -13.393   3.315  0.00  0.00    -0.391 OA
ATOM     14  H   LIG    1       30.144 -12.693   3.229  0.00  0.00    +0.210 HD
ENDBRANCH  10  13
ENDBRANCH   3   8
ENDBRANCH   1   2
BRANCH   1  15
ATOM     15  C   LIG    1       22.396 -15.977   4.720  0.00  0.00    +0.165 C 
BRANCH  15  16
ATOM     16  C   LIG    1       22.198 -17.313   4.009  0.00  0.00    +0.063 C 
BRANCH  16  20
ATOM     17  C   LIG    1       25.543 -19.972   4.654  0.00  0.00    +0.162 A 
ATOM     18  C   LIG    1       24.306 -20.248   5.285  0.00  0.00    +0.162 A 
ATOM     19  C   LIG    1       23.225 -19.381   5.058  0.00  0.00    +0.053 A 
ATOM     20  C   LIG    1       23.357 -18.252   4.235  0.00  0.00    -0.042 A 
ATOM     21  C   LIG    1       24.585 -18.011   3.607  0.00  0.00    +0.007 A 
ATOM     22  C   LIG    1       25.656 -18.853   3.828  0.00  0.00    +0.050 A 
BRANCH  17  24
ATOM     23  C   LIG    1       27.462 -20.349   5.992  0.00  0.00    +0.277 C 
ATOM     24  O   LIG    1       26.633 -20.768   4.910  0.00  0.00    -0.491 OA
ENDBRANCH  17  24
BRANCH  18  25
ATOM     25  O   LIG    1       24.013 -21.298   6.113  0.00  0.00    -0.491 OA
ATOM     26  C   LIG    1       22.959 -21.125   7.053  0.00  0.00    +0.277 C 
ENDBRANCH  18  25
ENDBRANCH  16  20
ENDBRANCH  15  16
ENDBRANCH   1  15
TORSDOF 8
ENDMDL
MODEL 4
REMARK VINA RESULT:      -3.1      1.714      3.972
REMARK  Name = *****
REMARK                            x       y       z     vdW  Elec       q    Type
REMARK                         _______ _______ _______ _____ _____    ______ ____
ROOT
ATOM      1  O   LIG    1       27.894 -15.888   4.362  0.00  0.00    -0.375 OA
ENDROOT
BRANCH   1   2
ATOM      2  C   LIG    1       27.151 -14.857   3.675  0.00  0.00    +0.135 C 
ATOM      3  C   LIG    1       26.445 -13.949   4.744  0.00  0.00    +0.086 C 
ATOM      4  C   LIG    1       27.553 -13.283   5.602  0.00  0.00    +0.021 C 
ATOM      5  C   LIG    1       28.561 -12.490   4.770  0.00  0.00    +0.002 C 
ATOM      6  C   LIG    1       29.148 -13.307   3.622  0.00  0.00    +0.003 C 
ATOM      7  C   LIG    1       28.066 -13.992   2.791  0.00  0.00    +0.033 C 
BRANCH   3   8
ATOM      8  N   LIG    1       25.522 -12.938   4.152  0.00  0.00    -0.294 NA
ATOM      9  C   LIG    1       24.354 -13.548   3.479  0.00  0.00    +0.116 C 
ATOM     10  C   LIG    1       23.274 -12.473   3.548  0.00  0.00    +0.130 C 
ATOM     11  C   LIG    1       23.481 -11.904   4.935  0.00  0.00    +0.048 C 
ATOM     12  C   LIG    1       24.993 -11.966   5.130  0.00  0.00    +0.087 C 
BRANCH  10  13
ATOM     13  O   LIG    1       23.490 -11.461   2.567  0.00  0.00    -0.391 OA
ATOM     14  H   LIG    1       23.386 -10.607   3.029  0.00  0.00    +0.210 HD
ENDBRANCH  10  13
ENDBRANCH   3   8
ENDBRANCH   1   2
BRANCH   1  15
ATOM     15  C   LIG    1       27.498 -17.219   4.019  0.00  0.00    +0.165 C 
BRANCH  15  16
ATOM     16  C   LIG    1       26.161 -17.182   3.285  0.00  0.00    +0.063 C 
BRANCH  16  20
ATOM     17  C   LIG    1       23.516 -20.316   4.646  0.00  0.00    +0.162 A 
ATOM     18  C   LIG    1       22.986 -19.033   4.369  0.00  0.00    +0.162 A 
ATOM     19  C   LIG    1       23.856 -18.027   3.917  0.00  0.00    +0.053 A 
ATOM     20  C   LIG    1       25.228 -18.271   3.752  0.00  0.00    -0.042 A 
ATOM     21  C   LIG    1       25.725 -19.553   4.015  0.00  0.00    +0.007 A 
ATOM     22  C   LIG    1       24.881 -20.548   4.465  0.00  0.00    +0.050 A 
BRANCH  17  24
ATOM     23  C   LIG    1       22.815 -21.540   6.551  0.00  0.00    +0.277 C 
ATOM     24  O   LIG    1       22.699 -21.299   5.150  0.00  0.00    -0.491 OA
ENDBRANCH  17  24
BRANCH  18  25
ATOM     25  O   LIG    1       21.681 -18.634   4.479  0.00  0.00    -0.491 OA
ATOM     26  C   LIG    1       20.967 -18.375   3.275  0.00  0.00    +0.277 C 
ENDBRANCH  18  25
ENDBRANCH  16  20
ENDBRANCH  15  16
ENDBRANCH   1  15
TORSDOF 8
ENDMDL
MODEL 5
REMARK VINA RESULT:      -2.9      2.326      7.216
REMARK  Name = *****
REMARK                            x       y       z     vdW  Elec       q    Type
REMARK                         _______ _______ _______ _____ _____    ______ ____
ROOT
ATOM      1  O   LIG    1       22.408 -18.635   4.705  0.00  0.00    -0.375 OA
ENDROOT
BRANCH   1   2
ATOM      2  C   LIG    1       23.593 -19.438   4.516  0.00  0.00    +0.135 C 
ATOM      3  C   LIG    1       24.386 -19.494   5.870  0.00  0.00    +0.086 C 
ATOM      4  C   LIG    1       23.474 -20.182   6.920  0.00  0.00    +0.021 C 
ATOM      5  C   LIG    1       23.004 -21.572   6.488  0.00  0.00    +0.002 C 
ATOM      6  C   LIG    1       22.369 -21.572   5.100  0.00  0.00    +0.003 C 
ATOM      7  C   LIG    1       23.244 -20.867   4.066  0.00  0.00    +0.033 C 
BRANCH   3   8
ATOM      8  N   LIG    1       25.710 -20.169   5.759  0.00  0.00    -0.294 NA
ATOM      9  C   LIG    1       26.716 -19.354   5.043  0.00  0.00    +0.116 C 
ATOM     10  C   LIG    1       28.055 -19.840   5.589  0.00  0.00    +0.130 C 
ATOM     11  C   LIG    1       27.746 -20.038   7.057  0.00  0.00    +0.048 C 
ATOM     12  C   LIG    1       26.305 -20.537   7.060  0.00  0.00    +0.087 C 
BRANCH  10  13
ATOM     13  O   LIG    1       28.432 -21.082   4.997  0.00  0.00    -0.391 OA
ATOM     14  H   LIG    1       29.364 -21.230   5.245  0.00  0.00    +0.210 HD
ENDBRANCH  10  13
ENDBRANCH   3   8
ENDBRANCH   1   2
BRANCH   1  15
ATOM     15  C   LIG    1       22.287 -17.546   3.785  0.00  0.00    +0.165 C 
BRANCH  15  16
ATOM     16  C   LIG    1       22.560 -16.231   4.510  0.00  0.00    +0.063 C 
BRANCH  16  20
ATOM     17  C   LIG    1       26.255 -14.425   3.185  0.00  0.00    +0.162 A 
ATOM     18  C   LIG    1       25.154 -13.596   3.507  0.00  0.00    +0.162 A 
ATOM     19  C   LIG    1       23.963 -14.196   3.947  0.00  0.00    +0.053 A 
ATOM     20  C   LIG    1       23.848 -15.591   4.056  0.00  0.00    -0.042 A 
ATOM     21  C   LIG    1       24.957 -16.389   3.750  0.00  0.00    +0.007 A 
ATOM     22  C   LIG    1       26.130 -15.810   3.311  0.00  0.00    +0.050 A 
BRANCH  17  24
ATOM     23  C   LIG    1       28.204 -13.156   3.639  0.00  0.00    +0.277 C 
ATOM     24  O   LIG    1       27.410 -13.868   2.692  0.00  0.00    -0.491 OA
ENDBRANCH  17  24
BRANCH  18  25
ATOM     25  O   LIG    1       25.103 -12.229   3.453  0.00  0.00    -0.491 OA
ATOM     26  C   LIG    1       23.828 -11.610   3.596  0.00  0.00    +0.277 C 
ENDBRANCH  18  25
ENDBRANCH  16  20
ENDBRANCH  15  16
ENDBRANCH   1  15
TORSDOF 8
ENDMDL
MODEL 6
REMARK VINA RESULT:      -2.7      1.994      4.361
REMARK  Name = *****
REMARK                            x       y       z     vdW  Elec       q    Type
REMARK                         _______ _______ _______ _____ _____    ______ ____
ROOT
ATOM      1  O   LIG    1       27.990 -15.809   4.611  0.00  0.00    -0.375 OA
ENDROOT
BRANCH   1   2
ATOM      2  C   LIG    1       27.282 -14.869   3.773  0.00  0.00    +0.135 C 
ATOM      3  C   LIG    1       26.315 -14.021   4.674  0.00  0.00    +0.086 C 
ATOM      4  C   LIG    1       27.186 -13.235   5.688  0.00  0.00    +0.021 C 
ATOM      5  C   LIG    1       28.242 -12.355   5.017  0.00  0.00    +0.002 C 
ATOM      6  C   LIG    1       29.097 -13.126   4.015  0.00  0.00    +0.003 C 
ATOM      7  C   LIG    1       28.249 -13.930   3.033  0.00  0.00    +0.033 C 
BRANCH   3   8
ATOM      8  N   LIG    1       25.416 -13.118   3.899  0.00  0.00    -0.294 NA
ATOM      9  C   LIG    1       25.517 -13.321   2.436  0.00  0.00    +0.116 C 
ATOM     10  C   LIG    1       24.162 -12.869   1.899  0.00  0.00    +0.130 C 
ATOM     11  C   LIG    1       23.211 -13.400   2.949  0.00  0.00    +0.048 C 
ATOM     12  C   LIG    1       23.988 -13.249   4.252  0.00  0.00    +0.087 C 
BRANCH  10  13
ATOM     13  O   LIG    1       24.080 -11.447   1.839  0.00  0.00    -0.391 OA
ATOM     14  H   LIG    1       24.729 -11.163   1.169  0.00  0.00    +0.210 HD
ENDBRANCH  10  13
ENDBRANCH   3   8
ENDBRANCH   1   2
BRANCH   1  15
ATOM     15  C   LIG    1       28.288 -17.053   3.969  0.00  0.00    +0.165 C 
BRANCH  15  16
ATOM     16  C   LIG    1       28.668 -18.092   5.021  0.00  0.00    +0.063 C 
BRANCH  16  20
ATOM     17  C   LIG    1       25.405 -20.773   5.933  0.00  0.00    +0.162 A 
ATOM     18  C   LIG    1       25.388 -20.049   4.717  0.00  0.00    +0.162 A 
ATOM     19  C   LIG    1       26.461 -19.190   4.429  0.00  0.00    +0.053 A 
ATOM     20  C   LIG    1       27.528 -19.031   5.327  0.00  0.00    -0.042 A 
ATOM     21  C   LIG    1       27.531 -19.772   6.514  0.00  0.00    +0.007 A 
ATOM     22  C   LIG    1       26.480 -20.615   6.811  0.00  0.00    +0.050 A 
BRANCH  17  24
ATOM     23  C   LIG    1       23.190 -20.890   6.769  0.00  0.00    +0.277 C 
ATOM     24  O   LIG    1       24.338 -21.572   6.268  0.00  0.00    -0.491 OA
ENDBRANCH  17  24
BRANCH  18  25
ATOM     25  O   LIG    1       24.428 -20.089   3.742  0.00  0.00    -0.491 OA
ATOM     26  C   LIG    1       23.507 -19.006   3.677  0.00  0.00    +0.277 C 
ENDBRANCH  18  25
ENDBRANCH  16  20
ENDBRANCH  15  16
ENDBRANCH   1  15
TORSDOF 8
ENDMDL
MODEL 7
REMARK VINA RESULT:      -1.9      2.734      6.989
REMARK  Name = *****
REMARK                            x       y       z     vdW  Elec       q    Type
REMARK                         _______ _______ _______ _____ _____    ______ ____
ROOT
ATOM      1  O   LIG    1       22.683 -18.740   4.847  0.00  0.00    -0.375 OA
ENDROOT
BRANCH   1   2
ATOM      2  C   LIG    1       24.105 -18.979   4.777  0.00  0.00    +0.135 C 
ATOM      3  C   LIG    1       24.430 -20.310   5.546  0.00  0.00    +0.086 C 
ATOM      4  C   LIG    1       23.689 -21.464   4.821  0.00  0.00    +0.021 C 
ATOM      5  C   LIG    1       24.049 -21.571   3.339  0.00  0.00    +0.002 C 
ATOM      6  C   LIG    1       23.891 -20.245   2.599  0.00  0.00    +0.003 C 
ATOM      7  C   LIG    1       24.589 -19.096   3.322  0.00  0.00    +0.033 C 
BRANCH   3   8
ATOM      8  N   LIG    1       25.890 -20.584   5.674  0.00  0.00    -0.294 NA
ATOM      9  C   LIG    1       26.722 -19.668   4.861  0.00  0.00    +0.116 C 
ATOM     10  C   LIG    1       28.063 -19.633   5.586  0.00  0.00    +0.130 C 
ATOM     11  C   LIG    1       27.639 -19.621   7.039  0.00  0.00    +0.048 C 
ATOM     12  C   LIG    1       26.394 -20.503   7.059  0.00  0.00    +0.087 C 
BRANCH  10  13
ATOM     13  O   LIG    1       28.830 -20.803   5.311  0.00  0.00    -0.391 OA
ATOM     14  H   LIG    1       29.408 -20.940   6.086  0.00  0.00    +0.210 HD
ENDBRANCH  10  13
ENDBRANCH   3   8
ENDBRANCH   1   2
BRANCH   1  15
ATOM     15  C   LIG    1       22.252 -17.571   4.143  0.00  0.00    +0.165 C 
BRANCH  15  16
ATOM     16  C   LIG    1       22.557 -16.330   4.976  0.00  0.00    +0.063 C 
BRANCH  16  20
ATOM     17  C   LIG    1       25.160 -13.559   2.923  0.00  0.00    +0.162 A 
ATOM     18  C   LIG    1       25.657 -14.831   3.295  0.00  0.00    +0.162 A 
ATOM     19  C   LIG    1       24.796 -15.726   3.952  0.00  0.00    +0.053 A 
ATOM     20  C   LIG    1       23.472 -15.373   4.253  0.00  0.00    -0.042 A 
ATOM     21  C   LIG    1       22.998 -14.116   3.858  0.00  0.00    +0.007 A 
ATOM     22  C   LIG    1       23.836 -13.227   3.217  0.00  0.00    +0.050 A 
BRANCH  17  24
ATOM     23  C   LIG    1       25.374 -11.455   1.853  0.00  0.00    +0.277 C 
ATOM     24  O   LIG    1       25.999 -12.643   2.336  0.00  0.00    -0.491 OA
ENDBRANCH  17  24
BRANCH  18  25
ATOM     25  O   LIG    1       26.915 -15.326   3.078  0.00  0.00    -0.491 OA
ATOM     26  C   LIG    1       27.189 -16.651   3.521  0.00  0.00    +0.277 C 
ENDBRANCH  18  25
ENDBRANCH  16  20
ENDBRANCH  15  16
ENDBRANCH   1  15
TORSDOF 8
ENDMDL
