MODEL 1
REMARK VINA RESULT:      -5.4      0.000      0.000
REMARK  Name = *****
REMARK                            x       y       z     vdW  Elec       q    Type
REMARK                         _______ _______ _______ _____ _____    ______ ____
ROOT
ATOM      1  C   LIG    1       31.506 -18.814   9.480  0.00  0.00    +0.180 C 
ENDROOT
BRANCH   1   2
ATOM      2  O   LIG    1       30.739 -19.031  10.681  0.00  0.00    -0.386 OA
ATOM      3  H   LIG    1       29.856 -19.339  10.396  0.00  0.00    +0.210 HD
ENDBRANCH   1   2
BRANCH   1   4
ATOM      4  C   LIG    1       31.018 -19.751   8.363  0.00  0.00    +0.208 C 
BRANCH   4   6
ATOM      5  O   LIG    1       31.956 -21.676   9.461  0.00  0.00    -0.298 OA
ATOM      6  C   LIG    1       31.085 -21.228   8.735  0.00  0.00    +0.257 C 
ENDBRANCH   4   6
BRANCH   4   7
ATOM      7  O   LIG    1       31.809 -19.521   7.191  0.00  0.00    -0.382 OA
ATOM      8  H   LIG    1       32.615 -19.052   7.501  0.00  0.00    +0.210 HD
ENDBRANCH   4   7
ENDBRANCH   1   4
BRANCH   1   9
ATOM      9  C   LIG    1       31.436 -17.312   9.172  0.00  0.00    +0.171 C 
BRANCH   9  10
ATOM     10  O   LIG    1       32.522 -16.917   8.317  0.00  0.00    -0.387 OA
ATOM     11  H   LIG    1       32.641 -15.955   8.473  0.00  0.00    +0.210 HD
ENDBRANCH   9  10
BRANCH   9  12
ATOM     12  C   LIG    1       31.462 -16.428  10.418  0.00  0.00    +0.190 C 
BRANCH  12  13
ATOM     13  O   LIG    1       30.158 -16.394  10.994  0.00  0.00    -0.392 OA
ATOM     14  H   LIG    1       29.880 -15.456  10.964  0.00  0.00    +0.209 HD
ENDBRANCH  12  13
ENDBRANCH   9  12
ENDBRANCH   1   9
TORSDOF 8
ENDMDL
MODEL 2
REMARK VINA RESULT:      -5.3      0.916      3.903
REMARK  Name = *****
REMARK                            x       y       z     vdW  Elec       q    Type
REMARK                         _______ _______ _______ _____ _____    ______ ____
ROOT
ATOM      1  C   LIG    1       31.218 -18.015   9.522  0.00  0.00    +0.180 C 
ENDROOT
BRANCH   1   2
ATOM      2  O   LIG    1       30.888 -18.869  10.635  0.00  0.00    -0.386 OA
ATOM      3  H   LIG    1       30.892 -19.785  10.294  0.00  0.00    +0.210 HD
ENDBRANCH   1   2
BRANCH   1   4
ATOM      4  C   LIG    1       32.315 -17.016   9.926  0.00  0.00    +0.208 C 
BRANCH   4   6
ATOM      5  O   LIG    1       30.851 -16.229  11.666  0.00  0.00    -0.298 OA
ATOM      6  C   LIG    1       31.949 -16.168  11.139  0.00  0.00    +0.257 C 
ENDBRANCH   4   6
BRANCH   4   7
ATOM      7  O   LIG    1       32.589 -16.158   8.812  0.00  0.00    -0.382 OA
ATOM      8  H   LIG    1       31.713 -15.863   8.481  0.00  0.00    +0.210 HD
ENDBRANCH   4   7
ENDBRANCH   1   4
BRANCH   1   9
ATOM      9  C   LIG    1       31.552 -18.934   8.339  0.00  0.00    +0.171 C 
BRANCH   9  10
ATOM     10  O   LIG    1       30.931 -18.458   7.133  0.00  0.00    -0.387 OA
ATOM     11  H   LIG    1       30.365 -19.196   6.822  0.00  0.00    +0.210 HD
ENDBRANCH   9  10
BRANCH   9  12
ATOM     12  C   LIG    1       31.131 -20.387   8.552  0.00  0.00    +0.190 C 
BRANCH  12  13
ATOM     13  O   LIG    1       32.141 -21.061   9.301  0.00  0.00    -0.392 OA
ATOM     14  H   LIG    1       32.205 -20.580  10.151  0.00  0.00    +0.209 HD
ENDBRANCH  12  13
ENDBRANCH   9  12
ENDBRANCH   1   9
TORSDOF 8
ENDMDL
MODEL 3
REMARK VINA RESULT:      -5.2      1.360      3.938
REMARK  Name = *****
REMARK                            x       y       z     vdW  Elec       q    Type
REMARK                         _______ _______ _______ _____ _____    ______ ____
ROOT
ATOM      1  C   LIG    1       31.787 -18.556   8.418  0.00  0.00    +0.180 C 
ENDROOT
BRANCH   1   2
ATOM      2  O   LIG    1       31.027 -18.215   7.242  0.00  0.00    -0.386 OA
ATOM      3  H   LIG    1       30.265 -18.827   7.216  0.00  0.00    +0.210 HD
ENDBRANCH   1   2
BRANCH   1   4
ATOM      4  C   LIG    1       31.844 -17.357   9.379  0.00  0.00    +0.208 C 
BRANCH   4   6
ATOM      5  O   LIG    1       30.271 -16.474  10.972  0.00  0.00    -0.298 OA
ATOM      6  C   LIG    1       30.470 -16.881   9.840  0.00  0.00    +0.257 C 
ENDBRANCH   4   6
BRANCH   4   7
ATOM      7  O   LIG    1       32.526 -16.278   8.728  0.00  0.00    -0.382 OA
ATOM      8  H   LIG    1       33.343 -16.669   8.349  0.00  0.00    +0.210 HD
ENDBRANCH   4   7
ENDBRANCH   1   4
BRANCH   1   9
ATOM      9  C   LIG    1       31.173 -19.842   8.989  0.00  0.00    +0.171 C 
BRANCH   9  10
ATOM     10  O   LIG    1       32.195 -20.812   9.274  0.00  0.00    -0.387 OA
ATOM     11  H   LIG    1       32.220 -21.402   8.491  0.00  0.00    +0.210 HD
ENDBRANCH   9  10
BRANCH   9  12
ATOM     12  C   LIG    1       30.141 -20.491   8.067  0.00  0.00    +0.190 C 
BRANCH  12  13
ATOM     13  O   LIG    1       28.865 -19.902   8.307  0.00  0.00    -0.392 OA
ATOM     14  H   LIG    1       28.659 -19.383   7.503  0.00  0.00    +0.209 HD
ENDBRANCH  12  13
ENDBRANCH   9  12
ENDBRANCH   1   9
TORSDOF 8
ENDMDL
MODEL 4
REMARK VINA RESULT:      -5.1      1.810      2.777
REMARK  Name = *****
REMARK                            x       y       z     vdW  Elec       q    Type
REMARK                         _______ _______ _______ _____ _____    ______ ____
ROOT
ATOM      1  C   LIG    1       31.358 -19.014   7.549  0.00  0.00    +0.180 C 
ENDROOT
BRANCH   1   2
ATOM      2  O   LIG    1       31.492 -20.450   7.548  0.00  0.00    -0.386 OA
ATOM      3  H   LIG    1       32.367 -20.648   7.935  0.00  0.00    +0.210 HD
ENDBRANCH   1   2
BRANCH   1   4
ATOM      4  C   LIG    1       29.966 -18.611   7.036  0.00  0.00    +0.208 C 
BRANCH   4   6
ATOM      5  O   LIG    1       28.615 -20.189   8.252  0.00  0.00    -0.298 OA
ATOM      6  C   LIG    1       28.924 -19.716   7.171  0.00  0.00    +0.257 C 
ENDBRANCH   4   6
BRANCH   4   7
ATOM      7  O   LIG    1       30.075 -18.228   5.660  0.00  0.00    -0.382 OA
ATOM      8  H   LIG    1       29.682 -17.330   5.602  0.00  0.00    +0.210 HD
ENDBRANCH   4   7
ENDBRANCH   1   4
BRANCH   1   9
ATOM      9  C   LIG    1       31.715 -18.534   8.962  0.00  0.00    +0.171 C 
BRANCH   9  10
ATOM     10  O   LIG    1       30.955 -19.249   9.950  0.00  0.00    -0.387 OA
ATOM     11  H   LIG    1       30.338 -18.589  10.332  0.00  0.00    +0.210 HD
ENDBRANCH   9  10
BRANCH   9  12
ATOM     12  C   LIG    1       31.492 -17.037   9.177  0.00  0.00    +0.190 C 
BRANCH  12  13
ATOM     13  O   LIG    1       32.617 -16.320   8.675  0.00  0.00    -0.392 OA
ATOM     14  H   LIG    1       32.855 -16.757   7.832  0.00  0.00    +0.209 HD
ENDBRANCH  12  13
ENDBRANCH   9  12
ENDBRANCH   1   9
TORSDOF 8
ENDMDL
MODEL 5
REMARK VINA RESULT:      -5.1      1.572      2.598
REMARK  Name = *****
REMARK                            x       y       z     vdW  Elec       q    Type
REMARK                         _______ _______ _______ _____ _____    ______ ____
ROOT
ATOM      1  C   LIG    1       31.526 -17.295   9.177  0.00  0.00    +0.180 C 
ENDROOT
BRANCH   1   2
ATOM      2  O   LIG    1       32.572 -16.396   8.761  0.00  0.00    -0.386 OA
ATOM      3  H   LIG    1       33.419 -16.829   8.988  0.00  0.00    +0.210 HD
ENDBRANCH   1   2
BRANCH   1   4
ATOM      4  C   LIG    1       31.563 -18.578   8.330  0.00  0.00    +0.208 C 
BRANCH   4   6
ATOM      5  O   LIG    1       29.270 -19.260   8.591  0.00  0.00    -0.298 OA
ATOM      6  C   LIG    1       30.191 -19.018   7.830  0.00  0.00    +0.257 C 
ENDBRANCH   4   6
BRANCH   4   7
ATOM      7  O   LIG    1       32.142 -19.630   9.113  0.00  0.00    -0.382 OA
ATOM      8  H   LIG    1       31.569 -19.718   9.906  0.00  0.00    +0.210 HD
ENDBRANCH   4   7
ENDBRANCH   1   4
BRANCH   1   9
ATOM      9  C   LIG    1       31.679 -17.488  10.692  0.00  0.00    +0.171 C 
BRANCH   9  10
ATOM     10  O   LIG    1       30.713 -18.432  11.185  0.00  0.00    -0.387 OA
ATOM     11  H   LIG    1       30.919 -18.541  12.138  0.00  0.00    +0.210 HD
ENDBRANCH   9  10
BRANCH   9  12
ATOM     12  C   LIG    1       31.537 -16.195  11.493  0.00  0.00    +0.190 C 
BRANCH  12  13
ATOM     13  O   LIG    1       32.773 -15.485  11.456  0.00  0.00    -0.392 OA
ATOM     14  H   LIG    1       32.576 -14.634  11.014  0.00  0.00    +0.209 HD
ENDBRANCH  12  13
ENDBRANCH   9  12
ENDBRANCH   1   9
TORSDOF 8
ENDMDL
MODEL 6
REMARK VINA RESULT:      -5.0      1.126      4.203
REMARK  Name = *****
REMARK                            x       y       z     vdW  Elec       q    Type
REMARK                         _______ _______ _______ _____ _____    ______ ____
ROOT
ATOM      1  C   LIG    1       31.652 -18.941   8.819  0.00  0.00    +0.180 C 
ENDROOT
BRANCH   1   2
ATOM      2  O   LIG    1       32.265 -18.344   7.660  0.00  0.00    -0.386 OA
ATOM      3  H   LIG    1       32.180 -18.994   6.934  0.00  0.00    +0.210 HD
ENDBRANCH   1   2
BRANCH   1   4
ATOM      4  C   LIG    1       31.025 -17.853   9.706  0.00  0.00    +0.208 C 
BRANCH   4   6
ATOM      5  O   LIG    1       32.300 -15.937   9.004  0.00  0.00    -0.298 OA
ATOM      6  C   LIG    1       31.932 -16.648   9.924  0.00  0.00    +0.257 C 
ENDBRANCH   4   6
BRANCH   4   7
ATOM      7  O   LIG    1       30.689 -18.430  10.974  0.00  0.00    -0.382 OA
ATOM      8  H   LIG    1       29.971 -17.868  11.340  0.00  0.00    +0.210 HD
ENDBRANCH   4   7
ENDBRANCH   1   4
BRANCH   1   9
ATOM      9  C   LIG    1       30.691 -20.023   8.308  0.00  0.00    +0.171 C 
BRANCH   9  10
ATOM     10  O   LIG    1       29.326 -19.665   8.585  0.00  0.00    -0.387 OA
ATOM     11  H   LIG    1       28.807 -20.007   7.826  0.00  0.00    +0.210 HD
ENDBRANCH   9  10
BRANCH   9  12
ATOM     12  C   LIG    1       30.952 -21.407   8.902  0.00  0.00    +0.190 C 
BRANCH  12  13
ATOM     13  O   LIG    1       32.246 -21.422   9.501  0.00  0.00    -0.392 OA
ATOM     14  H   LIG    1       32.877 -21.263   8.770  0.00  0.00    +0.209 HD
ENDBRANCH  12  13
ENDBRANCH   9  12
ENDBRANCH   1   9
TORSDOF 8
ENDMDL
MODEL 7
REMARK VINA RESULT:      -5.0      1.245      3.902
REMARK  Name = *****
REMARK                            x       y       z     vdW  Elec       q    Type
REMARK                         _______ _______ _______ _____ _____    ______ ____
ROOT
ATOM      1  C   LIG    1       31.227 -18.766   9.550  0.00  0.00    +0.180 C 
ENDROOT
BRANCH   1   2
ATOM      2  O   LIG    1       32.123 -19.876   9.341  0.00  0.00    -0.386 OA
ATOM      3  H   LIG    1       33.030 -19.524   9.441  0.00  0.00    +0.210 HD
ENDBRANCH   1   2
BRANCH   1   4
ATOM      4  C   LIG    1       32.028 -17.473   9.772  0.00  0.00    +0.208 C 
BRANCH   4   6
ATOM      5  O   LIG    1       30.177 -16.642  11.068  0.00  0.00    -0.298 OA
ATOM      6  C   LIG    1       31.301 -16.447  10.636  0.00  0.00    +0.257 C 
ENDBRANCH   4   6
BRANCH   4   7
ATOM      7  O   LIG    1       32.328 -16.892   8.497  0.00  0.00    -0.382 OA
ATOM      8  H   LIG    1       33.123 -17.366   8.169  0.00  0.00    +0.210 HD
ENDBRANCH   4   7
ENDBRANCH   1   4
BRANCH   1   9
ATOM      9  C   LIG    1       30.249 -18.753   8.367  0.00  0.00    +0.171 C 
BRANCH   9  10
ATOM     10  O   LIG    1       28.932 -19.144   8.790  0.00  0.00    -0.387 OA
ATOM     11  H   LIG    1       29.036 -19.448   9.717  0.00  0.00    +0.210 HD
ENDBRANCH   9  10
BRANCH   9  12
ATOM     12  C   LIG    1       30.670 -19.662   7.212  0.00  0.00    +0.190 C 
BRANCH  12  13
ATOM     13  O   LIG    1       31.921 -19.212   6.696  0.00  0.00    -0.392 OA
ATOM     14  H   LIG    1       32.024 -18.293   7.017  0.00  0.00    +0.209 HD
ENDBRANCH  12  13
ENDBRANCH   9  12
ENDBRANCH   1   9
TORSDOF 8
ENDMDL
MODEL 8
REMARK VINA RESULT:      -5.0      1.573      2.483
REMARK  Name = *****
REMARK                            x       y       z     vdW  Elec       q    Type
REMARK                         _______ _______ _______ _____ _____    ______ ____
ROOT
ATOM      1  C   LIG    1       31.467 -18.899   8.366  0.00  0.00    +0.180 C 
ENDROOT
BRANCH   1   2
ATOM      2  O   LIG    1       32.136 -19.811   9.259  0.00  0.00    -0.386 OA
ATOM      3  H   LIG    1       31.822 -19.599  10.160  0.00  0.00    +0.210 HD
ENDBRANCH   1   2
BRANCH   1   4
ATOM      4  C   LIG    1       30.090 -19.458   7.970  0.00  0.00    +0.208 C 
BRANCH   4   6
ATOM      5  O   LIG    1       30.306 -18.299   5.872  0.00  0.00    -0.298 OA
ATOM      6  C   LIG    1       29.611 -18.985   6.602  0.00  0.00    +0.257 C 
ENDBRANCH   4   6
BRANCH   4   7
ATOM      7  O   LIG    1       29.134 -19.075   8.966  0.00  0.00    -0.382 OA
ATOM      8  H   LIG    1       28.606 -19.882   9.152  0.00  0.00    +0.210 HD
ENDBRANCH   4   7
ENDBRANCH   1   4
BRANCH   1   9
ATOM      9  C   LIG    1       31.458 -17.527   9.054  0.00  0.00    +0.171 C 
BRANCH   9  10
ATOM     10  O   LIG    1       32.414 -16.644   8.442  0.00  0.00    -0.387 OA
ATOM     11  H   LIG    1       31.908 -15.837   8.204  0.00  0.00    +0.210 HD
ENDBRANCH   9  10
BRANCH   9  12
ATOM     12  C   LIG    1       31.757 -17.589  10.552  0.00  0.00    +0.190 C 
BRANCH  12  13
ATOM     13  O   LIG    1       30.693 -18.272  11.212  0.00  0.00    -0.392 OA
ATOM     14  H   LIG    1       30.291 -17.615  11.815  0.00  0.00    +0.209 HD
ENDBRANCH  12  13
ENDBRANCH   9  12
ENDBRANCH   1   9
TORSDOF 8
ENDMDL
MODEL 9
REMARK VINA RESULT:      -5.0      1.384      2.391
REMARK  Name = *****
REMARK                            x       y       z     vdW  Elec       q    Type
REMARK                         _______ _______ _______ _____ _____    ______ ____
ROOT
ATOM      1  C   LIG    1       30.709 -18.943   8.606  0.00  0.00    +0.180 C 
ENDROOT
BRANCH   1   2
ATOM      2  O   LIG    1       30.846 -18.164   7.401  0.00  0.00    -0.386 OA
ATOM      3  H   LIG    1       31.539 -17.497   7.577  0.00  0.00    +0.210 HD
ENDBRANCH   1   2
BRANCH   1   4
ATOM      4  C   LIG    1       31.180 -20.386   8.360  0.00  0.00    +0.208 C 
BRANCH   4   6
ATOM      5  O   LIG    1       28.875 -21.074   8.420  0.00  0.00    -0.298 OA
ATOM      6  C   LIG    1       30.047 -21.406   8.369  0.00  0.00    +0.257 C 
ENDBRANCH   4   6
BRANCH   4   7
ATOM      7  O   LIG    1       32.141 -20.734   9.364  0.00  0.00    -0.382 OA
ATOM      8  H   LIG    1       31.664 -20.674  10.221  0.00  0.00    +0.210 HD
ENDBRANCH   4   7
ENDBRANCH   1   4
BRANCH   1   9
ATOM      9  C   LIG    1       31.444 -18.179   9.716  0.00  0.00    +0.171 C 
BRANCH   9  10
ATOM     10  O   LIG    1       30.859 -18.457  10.999  0.00  0.00    -0.387 OA
ATOM     11  H   LIG    1       31.278 -17.823  11.620  0.00  0.00    +0.210 HD
ENDBRANCH   9  10
BRANCH   9  12
ATOM     12  C   LIG    1       31.458 -16.664   9.514  0.00  0.00    +0.190 C 
BRANCH  12  13
ATOM     13  O   LIG    1       32.595 -16.308   8.730  0.00  0.00    -0.392 OA
ATOM     14  H   LIG    1       32.536 -15.339   8.605  0.00  0.00    +0.209 HD
ENDBRANCH  12  13
ENDBRANCH   9  12
ENDBRANCH   1   9
TORSDOF 8
ENDMDL
