MODEL 1
REMARK VINA RESULT:       6.9      0.000      0.000
REMARK  Name = *****
REMARK                            x       y       z     vdW  Elec       q    Type
REMARK                         _______ _______ _______ _____ _____    ______ ____
ROOT
ATOM      1  C   LIG    1       24.792 -19.463   4.373  0.00  0.00    +0.173 A 
ATOM      2  C   LIG    1       25.257 -20.494   5.290  0.00  0.00    +0.206 A 
ATOM      3  C   LIG    1       26.609 -20.472   5.836  0.00  0.00    +0.187 A 
ATOM      4  C   LIG    1       27.503 -19.477   5.348  0.00  0.00    +0.085 A 
ATOM      5  C   LIG    1       26.977 -18.485   4.495  0.00  0.00    +0.094 A 
ATOM      6  C   LIG    1       27.717 -17.452   3.826  0.00  0.00    +0.342 C 
ATOM      7  O   LIG    1       26.896 -16.647   3.178  0.00  0.00    -0.451 OA
ATOM      8  C   LIG    1       25.502 -17.051   3.396  0.00  0.00    +0.233 C 
ATOM      9  O   LIG    1       29.004 -17.392   3.766  0.00  0.00    -0.245 OA
ATOM     10  C   LIG    1       25.644 -18.393   4.079  0.00  0.00    +0.056 A 
ENDROOT
BRANCH   8  11
ATOM     11  C   LIG    1       24.784 -15.785   4.111  0.00  0.00    +0.136 C 
ATOM     12  N   LIG    1       23.295 -15.899   3.892  0.00  0.00    -0.295 NA
ATOM     13  C   LIG    1       22.609 -16.630   5.000  0.00  0.00    +0.105 C 
ATOM     14  C   LIG    1       22.736 -14.561   3.750  0.00  0.00    +0.089 C 
ATOM     15  C   LIG    1       23.530 -13.789   2.677  0.00  0.00    +0.051 C 
ATOM     16  C   LIG    1       24.979 -13.589   3.052  0.00  0.00    -0.034 A 
ATOM     17  C   LIG    1       25.749 -12.541   2.561  0.00  0.00    +0.053 A 
ATOM     18  C   LIG    1       27.053 -12.405   3.000  0.00  0.00    +0.170 A 
ATOM     19  O   LIG    1       27.938 -11.447   2.616  0.00  0.00    -0.453 OA
ATOM     20  C   LIG    1       29.113 -11.852   3.350  0.00  0.00    +0.467 C 
ATOM     21  O   LIG    1       28.849 -12.865   4.312  0.00  0.00    -0.449 OA
ATOM     22  C   LIG    1       27.594 -13.218   3.950  0.00  0.00    +0.208 A 
ATOM     23  C   LIG    1       26.877 -14.247   4.473  0.00  0.00    +0.170 A 
ATOM     24  C   LIG    1       25.582 -14.512   3.903  0.00  0.00    +0.022 A 
BRANCH  23  25
ATOM     25  O   LIG    1       27.355 -14.811   5.617  0.00  0.00    -0.491 OA
ATOM     26  C   LIG    1       27.558 -13.989   6.778  0.00  0.00    +0.277 C 
ENDBRANCH  23  25
ENDBRANCH   8  11
BRANCH   4  27
ATOM     27  N   LIG    1       28.865 -19.348   5.727  0.00  0.00    -0.354 N 
ATOM     28  H   LIG    1       29.128 -18.371   5.805  0.00  0.00    +0.142 HD
ATOM     29  H   LIG    1       29.032 -19.787   6.647  0.00  0.00    +0.142 HD
ENDBRANCH   4  27
BRANCH   1  30
ATOM     30  O   LIG    1       23.502 -19.632   3.926  0.00  0.00    -0.488 OA
BRANCH  30  32
ATOM     31  C   LIG    1       21.329 -18.811   3.810  0.00  0.00    +0.048 C 
ATOM     32  C   LIG    1       22.654 -18.715   3.239  0.00  0.00    +0.226 C 
ENDBRANCH  30  32
ENDBRANCH   1  30
BRANCH   2  33
ATOM     33  O   LIG    1       24.321 -21.268   5.980  0.00  0.00    -0.485 OA
BRANCH  33  34
ATOM     34  C   LIG    1       23.269 -20.680   6.749  0.00  0.00    +0.226 C 
ATOM     35  C   LIG    1       22.013 -21.545   6.699  0.00  0.00    +0.048 C 
ENDBRANCH  33  34
ENDBRANCH   2  33
BRANCH   3  36
ATOM     36  O   LIG    1       27.007 -21.204   6.978  0.00  0.00    -0.487 OA
BRANCH  36  37
ATOM     37  C   LIG    1       28.401 -21.536   7.055  0.00  0.00    +0.226 C 
ATOM     38  C   LIG    1       29.460 -20.430   7.062  0.00  0.00    +0.048 C 
ENDBRANCH  36  37
ENDBRANCH   3  36
TORSDOF 9
ENDMDL
MODEL 2
REMARK VINA RESULT:       8.9      1.680      2.163
REMARK  Name = *****
REMARK                            x       y       z     vdW  Elec       q    Type
REMARK                         _______ _______ _______ _____ _____    ______ ____
ROOT
ATOM      1  C   LIG    1       22.819 -18.386   3.717  0.00  0.00    +0.173 A 
ATOM      2  C   LIG    1       22.923 -19.760   4.188  0.00  0.00    +0.206 A 
ATOM      3  C   LIG    1       24.218 -20.407   4.364  0.00  0.00    +0.187 A 
ATOM      4  C   LIG    1       25.376 -19.695   3.941  0.00  0.00    +0.085 A 
ATOM      5  C   LIG    1       25.209 -18.355   3.534  0.00  0.00    +0.094 A 
ATOM      6  C   LIG    1       26.221 -17.493   2.991  0.00  0.00    +0.342 C 
ATOM      7  O   LIG    1       25.737 -16.281   2.800  0.00  0.00    -0.451 OA
ATOM      8  C   LIG    1       24.341 -16.209   3.249  0.00  0.00    +0.233 C 
ATOM      9  O   LIG    1       27.397 -17.880   2.626  0.00  0.00    -0.245 OA
ATOM     10  C   LIG    1       23.996 -17.659   3.504  0.00  0.00    +0.056 A 
ENDROOT
BRANCH   8  11
ATOM     11  C   LIG    1       24.315 -15.091   4.424  0.00  0.00    +0.136 C 
ATOM     12  N   LIG    1       22.878 -14.707   4.680  0.00  0.00    -0.295 NA
ATOM     13  C   LIG    1       22.249 -15.530   5.756  0.00  0.00    +0.105 C 
ATOM     14  C   LIG    1       22.824 -13.293   5.031  0.00  0.00    +0.089 C 
ATOM     15  C   LIG    1       23.573 -12.473   3.961  0.00  0.00    +0.051 C 
ATOM     16  C   LIG    1       25.041 -12.819   3.881  0.00  0.00    -0.034 A 
ATOM     17  C   LIG    1       26.003 -11.930   3.416  0.00  0.00    +0.053 A 
ATOM     18  C   LIG    1       27.332 -12.312   3.428  0.00  0.00    +0.170 A 
ATOM     19  O   LIG    1       28.389 -11.571   3.003  0.00  0.00    -0.453 OA
ATOM     20  C   LIG    1       29.473 -12.502   3.206  0.00  0.00    +0.467 C 
ATOM     21  O   LIG    1       29.090 -13.652   3.948  0.00  0.00    -0.449 OA
ATOM     22  C   LIG    1       27.745 -13.504   3.943  0.00  0.00    +0.208 A 
ATOM     23  C   LIG    1       26.845 -14.402   4.424  0.00  0.00    +0.170 A 
ATOM     24  C   LIG    1       25.449 -14.096   4.260  0.00  0.00    +0.022 A 
BRANCH  23  25
ATOM     25  O   LIG    1       27.337 -15.413   5.193  0.00  0.00    -0.491 OA
ATOM     26  C   LIG    1       28.335 -16.293   4.650  0.00  0.00    +0.277 C 
ENDBRANCH  23  25
ENDBRANCH   8  11
BRANCH   4  27
ATOM     27  N   LIG    1       26.704 -20.197   3.986  0.00  0.00    -0.354 N 
ATOM     28  H   LIG    1       27.314 -19.560   4.489  0.00  0.00    +0.142 HD
ATOM     29  H   LIG    1       26.734 -21.106   4.473  0.00  0.00    +0.142 HD
ENDBRANCH   4  27
BRANCH   1  30
ATOM     30  O   LIG    1       21.531 -17.922   3.580  0.00  0.00    -0.488 OA
BRANCH  30  32
ATOM     31  C   LIG    1       19.384 -17.431   2.833  0.00  0.00    +0.048 C 
ATOM     32  C   LIG    1       20.539 -18.274   2.619  0.00  0.00    +0.226 C 
ENDBRANCH  30  32
ENDBRANCH   1  30
BRANCH   2  33
ATOM     33  O   LIG    1       21.845 -20.332   4.868  0.00  0.00    -0.485 OA
BRANCH  33  34
ATOM     34  C   LIG    1       20.928 -21.221   4.227  0.00  0.00    +0.226 C 
ATOM     35  C   LIG    1       19.489 -20.872   4.594  0.00  0.00    +0.048 C 
ENDBRANCH  33  34
ENDBRANCH   2  33
BRANCH   3  36
ATOM     36  O   LIG    1       24.416 -21.572   5.141  0.00  0.00    -0.487 OA
BRANCH  36  37
ATOM     37  C   LIG    1       24.644 -21.359   6.542  0.00  0.00    +0.226 C 
ATOM     38  C   LIG    1       26.001 -20.846   7.034  0.00  0.00    +0.048 C 
ENDBRANCH  36  37
ENDBRANCH   3  36
TORSDOF 9
ENDMDL
