MODEL 1
REMARK VINA RESULT:      -8.0      0.000      0.000
REMARK  Name = *****
REMARK                            x       y       z     vdW  Elec       q    Type
REMARK                         _______ _______ _______ _____ _____    ______ ____
ROOT
ATOM      1  C   LIG    1       25.387 -22.424   5.982  0.00  0.00    +0.051 C 
ATOM      2  C   LIG    1       25.276 -21.646   7.316  0.00  0.00    +0.065 C 
ATOM      3  C   LIG    1       24.013 -20.838   7.078  0.00  0.00    +0.140 C 
ATOM      4  O   LIG    1       23.365 -20.299   7.970  0.00  0.00    -0.297 OA
ATOM      5  C   LIG    1       23.598 -20.786   5.635  0.00  0.00    +0.106 C 
ATOM      6  C   LIG    1       24.762 -21.479   4.935  0.00  0.00    +0.129 C 
ENDROOT
BRANCH   6   7
ATOM      7  O   LIG    1       25.734 -20.523   4.519  0.00  0.00    -0.391 OA
ATOM      8  H   LIG    1       26.569 -20.705   4.984  0.00  0.00    +0.210 HD
ENDBRANCH   6   7
BRANCH   1  10
ATOM      9  C   LIG    1       25.155 -24.913   6.415  0.00  0.00    -0.000 C 
ATOM     10  C   LIG    1       24.627 -23.737   6.030  0.00  0.00    -0.022 C 
BRANCH   9  11
ATOM     11  C   LIG    1       24.449 -26.250   6.408  0.00  0.00    +0.137 C 
BRANCH  11  12
ATOM     12  O   LIG    1       23.671 -26.325   5.221  0.00  0.00    -0.388 OA
ATOM     13  H   LIG    1       23.347 -25.430   5.028  0.00  0.00    +0.210 HD
ENDBRANCH  11  12
BRANCH  11  14
ATOM     14  C   LIG    1       25.389 -27.462   6.493  0.00  0.00    +0.035 C 
BRANCH  14  15
ATOM     15  C   LIG    1       24.700 -28.734   7.000  0.00  0.00    +0.003 C 
BRANCH  15  16
ATOM     16  C   LIG    1       25.416 -29.280   8.240  0.00  0.00    -0.000 C 
BRANCH  16  18
ATOM     17  C   LIG    1       26.884 -28.660  10.202  0.00  0.00    +0.004 C 
ATOM     18  C   LIG    1       26.414 -28.270   8.808  0.00  0.00    -0.003 C 
ENDBRANCH  16  18
ENDBRANCH  15  16
ENDBRANCH  14  15
ENDBRANCH  11  14
ENDBRANCH   9  11
ENDBRANCH   1  10
BRANCH   2  19
ATOM     19  C   LIG    1       26.487 -20.737   7.600  0.00  0.00    +0.011 C 
BRANCH  19  20
ATOM     20  C   LIG    1       27.734 -21.536   7.998  0.00  0.00    +0.001 C 
BRANCH  20  21
ATOM     21  C   LIG    1       28.982 -21.123   7.213  0.00  0.00    +0.000 C 
BRANCH  21  22
ATOM     22  C   LIG    1       28.765 -19.847   6.382  0.00  0.00    +0.000 C 
BRANCH  22  23
ATOM     23  C   LIG    1       29.684 -18.698   6.814  0.00  0.00    +0.011 C 
BRANCH  23  24
ATOM     24  C   LIG    1       30.012 -18.737   8.306  0.00  0.00    +0.120 C 
BRANCH  24  25
ATOM     25  C   LIG    1       31.502 -18.728   8.571  0.00  0.00    +0.305 C 
ATOM     26  O   LIG    1       32.087 -19.621   9.149  0.00  0.00    -0.251 OA
BRANCH  25  27
ATOM     27  O   LIG    1       32.153 -17.653   8.063  0.00  0.00    -0.481 OA
ATOM     28  H   LIG    1       32.976 -17.412   8.521  0.00  0.00    +0.295 HD
ENDBRANCH  25  27
ENDBRANCH  24  25
ENDBRANCH  23  24
ENDBRANCH  22  23
ENDBRANCH  21  22
ENDBRANCH  20  21
ENDBRANCH  19  20
ENDBRANCH   2  19
TORSDOF 16
ENDMDL
MODEL 2
REMARK VINA RESULT:      -7.8      1.560      2.171
REMARK  Name = *****
REMARK                            x       y       z     vdW  Elec       q    Type
REMARK                         _______ _______ _______ _____ _____    ______ ____
ROOT
ATOM      1  C   LIG    1       25.876 -22.173   6.327  0.00  0.00    +0.051 C 
ATOM      2  C   LIG    1       26.776 -21.513   7.399  0.00  0.00    +0.065 C 
ATOM      3  C   LIG    1       25.740 -20.824   8.267  0.00  0.00    +0.140 C 
ATOM      4  O   LIG    1       25.956 -20.423   9.407  0.00  0.00    -0.297 OA
ATOM      5  C   LIG    1       24.392 -20.705   7.612  0.00  0.00    +0.106 C 
ATOM      6  C   LIG    1       24.668 -21.220   6.204  0.00  0.00    +0.129 C 
ENDROOT
BRANCH   6   7
ATOM      7  O   LIG    1       25.002 -20.140   5.335  0.00  0.00    -0.391 OA
ATOM      8  H   LIG    1       24.331 -20.087   4.632  0.00  0.00    +0.210 HD
ENDBRANCH   6   7
BRANCH   1  10
ATOM      9  C   LIG    1       25.084 -24.545   5.898  0.00  0.00    -0.000 C 
ATOM     10  C   LIG    1       25.417 -23.557   6.749  0.00  0.00    -0.022 C 
BRANCH   9  11
ATOM     11  C   LIG    1       24.557 -25.909   6.282  0.00  0.00    +0.137 C 
BRANCH  11  12
ATOM     12  O   LIG    1       23.572 -26.280   5.328  0.00  0.00    -0.388 OA
ATOM     13  H   LIG    1       23.909 -26.032   4.451  0.00  0.00    +0.210 HD
ENDBRANCH  11  12
BRANCH  11  14
ATOM     14  C   LIG    1       25.634 -27.000   6.370  0.00  0.00    +0.035 C 
BRANCH  14  15
ATOM     15  C   LIG    1       25.394 -28.172   5.412  0.00  0.00    +0.003 C 
BRANCH  15  16
ATOM     16  C   LIG    1       24.953 -29.422   6.184  0.00  0.00    -0.000 C 
BRANCH  16  18
ATOM     17  C   LIG    1       24.086 -30.011   8.484  0.00  0.00    +0.004 C 
ATOM     18  C   LIG    1       25.140 -29.250   7.692  0.00  0.00    -0.003 C 
ENDBRANCH  16  18
ENDBRANCH  15  16
ENDBRANCH  14  15
ENDBRANCH  11  14
ENDBRANCH   9  11
ENDBRANCH   1  10
BRANCH   2  19
ATOM     19  C   LIG    1       27.790 -20.509   6.818  0.00  0.00    +0.011 C 
BRANCH  19  20
ATOM     20  C   LIG    1       29.072 -20.425   7.655  0.00  0.00    +0.001 C 
BRANCH  20  21
ATOM     21  C   LIG    1       30.093 -19.436   7.085  0.00  0.00    +0.000 C 
BRANCH  21  22
ATOM     22  C   LIG    1       31.392 -19.384   7.907  0.00  0.00    +0.000 C 
BRANCH  22  23
ATOM     23  C   LIG    1       31.641 -18.004   8.529  0.00  0.00    +0.011 C 
BRANCH  23  24
ATOM     24  C   LIG    1       30.381 -17.401   9.146  0.00  0.00    +0.120 C 
BRANCH  24  25
ATOM     25  C   LIG    1       30.440 -17.362  10.659  0.00  0.00    +0.305 C 
ATOM     26  O   LIG    1       30.266 -16.353  11.312  0.00  0.00    -0.251 OA
BRANCH  25  27
ATOM     27  O   LIG    1       30.656 -18.566  11.240  0.00  0.00    -0.481 OA
ATOM     28  H   LIG    1       31.529 -18.959  11.068  0.00  0.00    +0.295 HD
ENDBRANCH  25  27
ENDBRANCH  24  25
ENDBRANCH  23  24
ENDBRANCH  22  23
ENDBRANCH  21  22
ENDBRANCH  20  21
ENDBRANCH  19  20
ENDBRANCH   2  19
TORSDOF 16
ENDMDL
MODEL 3
REMARK VINA RESULT:      -7.8      2.082      8.903
REMARK  Name = *****
REMARK                            x       y       z     vdW  Elec       q    Type
REMARK                         _______ _______ _______ _____ _____    ______ ____
ROOT
ATOM      1  C   LIG    1       27.285 -21.722   7.729  0.00  0.00    +0.051 C 
ATOM      2  C   LIG    1       26.487 -22.532   6.680  0.00  0.00    +0.065 C 
ATOM      3  C   LIG    1       25.434 -21.519   6.267  0.00  0.00    +0.140 C 
ATOM      4  O   LIG    1       24.761 -21.607   5.244  0.00  0.00    -0.297 OA
ATOM      5  C   LIG    1       25.312 -20.362   7.218  0.00  0.00    +0.106 C 
ATOM      6  C   LIG    1       26.241 -20.773   8.354  0.00  0.00    +0.129 C 
ENDROOT
BRANCH   6   7
ATOM      7  O   LIG    1       25.515 -21.467   9.366  0.00  0.00    -0.391 OA
ATOM      8  H   LIG    1       25.647 -21.009  10.214  0.00  0.00    +0.210 HD
ENDBRANCH   6   7
BRANCH   1  10
ATOM      9  C   LIG    1       29.439 -20.381   7.764  0.00  0.00    -0.000 C 
ATOM     10  C   LIG    1       28.409 -20.925   7.091  0.00  0.00    -0.022 C 
BRANCH   9  11
ATOM     11  C   LIG    1       30.535 -19.524   7.172  0.00  0.00    +0.137 C 
BRANCH  11  12
ATOM     12  O   LIG    1       29.920 -18.429   6.506  0.00  0.00    -0.388 OA
ATOM     13  H   LIG    1       30.089 -17.633   7.037  0.00  0.00    +0.210 HD
ENDBRANCH  11  12
BRANCH  11  14
ATOM     14  C   LIG    1       31.554 -19.004   8.197  0.00  0.00    +0.035 C 
BRANCH  14  15
ATOM     15  C   LIG    1       31.188 -17.634   8.779  0.00  0.00    +0.003 C 
BRANCH  15  16
ATOM     16  C   LIG    1       30.478 -17.790  10.128  0.00  0.00    -0.000 C 
BRANCH  16  18
ATOM     17  C   LIG    1       31.852 -16.878  12.045  0.00  0.00    +0.004 C 
ATOM     18  C   LIG    1       30.739 -16.595  11.046  0.00  0.00    -0.003 C 
ENDBRANCH  16  18
ENDBRANCH  15  16
ENDBRANCH  14  15
ENDBRANCH  11  14
ENDBRANCH   9  11
ENDBRANCH   1  10
BRANCH   2  19
ATOM     19  C   LIG    1       25.850 -23.815   7.248  0.00  0.00    +0.011 C 
BRANCH  19  20
ATOM     20  C   LIG    1       24.360 -23.927   6.906  0.00  0.00    +0.001 C 
BRANCH  20  21
ATOM     21  C   LIG    1       24.021 -25.201   6.127  0.00  0.00    +0.000 C 
BRANCH  21  22
ATOM     22  C   LIG    1       25.090 -25.558   5.079  0.00  0.00    +0.000 C 
BRANCH  22  23
ATOM     23  C   LIG    1       25.520 -27.028   5.152  0.00  0.00    +0.011 C 
BRANCH  23  24
ATOM     24  C   LIG    1       24.626 -27.857   6.072  0.00  0.00    +0.120 C 
BRANCH  24  25
ATOM     25  C   LIG    1       24.474 -29.286   5.597  0.00  0.00    +0.305 C 
ATOM     26  O   LIG    1       25.414 -30.009   5.331  0.00  0.00    -0.251 OA
BRANCH  25  27
ATOM     27  O   LIG    1       23.193 -29.723   5.539  0.00  0.00    -0.481 OA
ATOM     28  H   LIG    1       22.612 -29.225   4.938  0.00  0.00    +0.295 HD
ENDBRANCH  25  27
ENDBRANCH  24  25
ENDBRANCH  23  24
ENDBRANCH  22  23
ENDBRANCH  21  22
ENDBRANCH  20  21
ENDBRANCH  19  20
ENDBRANCH   2  19
TORSDOF 16
ENDMDL
MODEL 4
REMARK VINA RESULT:      -7.8      2.101      8.563
REMARK  Name = *****
REMARK                            x       y       z     vdW  Elec       q    Type
REMARK                         _______ _______ _______ _____ _____    ______ ____
ROOT
ATOM      1  C   LIG    1       25.550 -21.420   6.877  0.00  0.00    +0.051 C 
ATOM      2  C   LIG    1       25.201 -22.180   5.575  0.00  0.00    +0.065 C 
ATOM      3  C   LIG    1       24.154 -21.262   4.972  0.00  0.00    +0.140 C 
ATOM      4  O   LIG    1       23.804 -21.298   3.796  0.00  0.00    -0.297 OA
ATOM      5  C   LIG    1       23.600 -20.263   5.949  0.00  0.00    +0.106 C 
ATOM      6  C   LIG    1       24.241 -20.699   7.261  0.00  0.00    +0.129 C 
ENDROOT
BRANCH   6   7
ATOM      7  O   LIG    1       23.387 -21.605   7.956  0.00  0.00    -0.391 OA
ATOM      8  H   LIG    1       22.465 -21.317   7.837  0.00  0.00    +0.210 HD
ENDBRANCH   6   7
BRANCH   1  10
ATOM      9  C   LIG    1       27.939 -20.731   6.370  0.00  0.00    -0.000 C 
ATOM     10  C   LIG    1       26.665 -20.412   6.662  0.00  0.00    -0.022 C 
BRANCH   9  11
ATOM     11  C   LIG    1       29.086 -19.759   6.218  0.00  0.00    +0.137 C 
BRANCH  11  12
ATOM     12  O   LIG    1       28.701 -18.775   5.268  0.00  0.00    -0.388 OA
ATOM     13  H   LIG    1       27.795 -18.983   4.984  0.00  0.00    +0.210 HD
ENDBRANCH  11  12
BRANCH  11  14
ATOM     14  C   LIG    1       29.515 -19.079   7.527  0.00  0.00    +0.035 C 
BRANCH  14  15
ATOM     15  C   LIG    1       30.995 -19.288   7.866  0.00  0.00    +0.003 C 
BRANCH  15  16
ATOM     16  C   LIG    1       31.541 -18.101   8.669  0.00  0.00    -0.000 C 
BRANCH  16  18
ATOM     17  C   LIG    1       30.448 -17.393  10.835  0.00  0.00    +0.004 C 
ATOM     18  C   LIG    1       30.417 -17.293   9.317  0.00  0.00    -0.003 C 
ENDBRANCH  16  18
ENDBRANCH  15  16
ENDBRANCH  14  15
ENDBRANCH  11  14
ENDBRANCH   9  11
ENDBRANCH   1  10
BRANCH   2  19
ATOM     19  C   LIG    1       24.645 -23.595   5.819  0.00  0.00    +0.011 C 
BRANCH  19  20
ATOM     20  C   LIG    1       25.445 -24.362   6.878  0.00  0.00    +0.001 C 
BRANCH  20  21
ATOM     21  C   LIG    1       26.231 -25.540   6.295  0.00  0.00    +0.000 C 
BRANCH  21  22
ATOM     22  C   LIG    1       25.444 -26.302   5.215  0.00  0.00    +0.000 C 
BRANCH  22  23
ATOM     23  C   LIG    1       24.384 -27.239   5.807  0.00  0.00    +0.011 C 
BRANCH  23  24
ATOM     24  C   LIG    1       24.992 -28.497   6.425  0.00  0.00    +0.120 C 
BRANCH  24  25
ATOM     25  C   LIG    1       23.988 -29.623   6.548  0.00  0.00    +0.305 C 
ATOM     26  O   LIG    1       23.869 -30.312   7.541  0.00  0.00    -0.251 OA
BRANCH  25  27
ATOM     27  O   LIG    1       23.185 -29.776   5.467  0.00  0.00    -0.481 OA
ATOM     28  H   LIG    1       23.526 -30.373   4.778  0.00  0.00    +0.295 HD
ENDBRANCH  25  27
ENDBRANCH  24  25
ENDBRANCH  23  24
ENDBRANCH  22  23
ENDBRANCH  21  22
ENDBRANCH  20  21
ENDBRANCH  19  20
ENDBRANCH   2  19
TORSDOF 16
ENDMDL
MODEL 5
REMARK VINA RESULT:      -7.8      1.392      1.675
REMARK  Name = *****
REMARK                            x       y       z     vdW  Elec       q    Type
REMARK                         _______ _______ _______ _____ _____    ______ ____
ROOT
ATOM      1  C   LIG    1       25.108 -22.663   5.723  0.00  0.00    +0.051 C 
ATOM      2  C   LIG    1       25.971 -21.823   6.695  0.00  0.00    +0.065 C 
ATOM      3  C   LIG    1       25.051 -21.731   7.898  0.00  0.00    +0.140 C 
ATOM      4  O   LIG    1       25.423 -21.415   9.024  0.00  0.00    -0.297 OA
ATOM      5  C   LIG    1       23.627 -22.102   7.593  0.00  0.00    +0.106 C 
ATOM      6  C   LIG    1       23.655 -22.286   6.080  0.00  0.00    +0.129 C 
ENDROOT
BRANCH   6   7
ATOM      7  O   LIG    1       23.305 -21.070   5.423  0.00  0.00    -0.391 OA
ATOM      8  H   LIG    1       23.665 -21.089   4.520  0.00  0.00    +0.210 HD
ENDBRANCH   6   7
BRANCH   1  10
ATOM      9  C   LIG    1       25.213 -25.074   4.941  0.00  0.00    -0.000 C 
ATOM     10  C   LIG    1       25.331 -24.152   5.913  0.00  0.00    -0.022 C 
BRANCH   9  11
ATOM     11  C   LIG    1       25.358 -26.569   5.110  0.00  0.00    +0.137 C 
BRANCH  11  12
ATOM     12  O   LIG    1       26.745 -26.865   5.196  0.00  0.00    -0.388 OA
ATOM     13  H   LIG    1       27.116 -26.781   4.301  0.00  0.00    +0.210 HD
ENDBRANCH  11  12
BRANCH  11  14
ATOM     14  C   LIG    1       24.627 -27.140   6.335  0.00  0.00    +0.035 C 
BRANCH  14  15
ATOM     15  C   LIG    1       24.698 -28.668   6.430  0.00  0.00    +0.003 C 
BRANCH  15  16
ATOM     16  C   LIG    1       25.180 -29.103   7.819  0.00  0.00    -0.000 C 
BRANCH  16  18
ATOM     17  C   LIG    1       26.622 -28.501   9.806  0.00  0.00    +0.004 C 
ATOM     18  C   LIG    1       26.230 -28.144   8.379  0.00  0.00    -0.003 C 
ENDBRANCH  16  18
ENDBRANCH  15  16
ENDBRANCH  14  15
ENDBRANCH  11  14
ENDBRANCH   9  11
ENDBRANCH   1  10
BRANCH   2  19
ATOM     19  C   LIG    1       26.333 -20.429   6.148  0.00  0.00    +0.011 C 
BRANCH  19  20
ATOM     20  C   LIG    1       27.826 -20.300   5.821  0.00  0.00    +0.001 C 
BRANCH  20  21
ATOM     21  C   LIG    1       28.729 -20.832   6.937  0.00  0.00    +0.000 C 
BRANCH  21  22
ATOM     22  C   LIG    1       29.047 -19.767   8.002  0.00  0.00    +0.000 C 
BRANCH  22  23
ATOM     23  C   LIG    1       29.937 -18.642   7.463  0.00  0.00    +0.011 C 
BRANCH  23  24
ATOM     24  C   LIG    1       31.427 -18.939   7.630  0.00  0.00    +0.120 C 
BRANCH  24  25
ATOM     25  C   LIG    1       31.789 -19.288   9.058  0.00  0.00    +0.305 C 
ATOM     26  O   LIG    1       31.711 -18.505   9.982  0.00  0.00    -0.251 OA
BRANCH  25  27
ATOM     27  O   LIG    1       32.167 -20.577   9.238  0.00  0.00    -0.481 OA
ATOM     28  H   LIG    1       32.075 -21.149   8.457  0.00  0.00    +0.295 HD
ENDBRANCH  25  27
ENDBRANCH  24  25
ENDBRANCH  23  24
ENDBRANCH  22  23
ENDBRANCH  21  22
ENDBRANCH  20  21
ENDBRANCH  19  20
ENDBRANCH   2  19
TORSDOF 16
ENDMDL
MODEL 6
REMARK VINA RESULT:      -7.8      1.636      2.075
REMARK  Name = *****
REMARK                            x       y       z     vdW  Elec       q    Type
REMARK                         _______ _______ _______ _____ _____    ______ ____
ROOT
ATOM      1  C   LIG    1       25.002 -22.506   5.735  0.00  0.00    +0.051 C 
ATOM      2  C   LIG    1       25.972 -21.748   6.674  0.00  0.00    +0.065 C 
ATOM      3  C   LIG    1       25.123 -21.615   7.925  0.00  0.00    +0.140 C 
ATOM      4  O   LIG    1       25.575 -21.348   9.035  0.00  0.00    -0.297 OA
ATOM      5  C   LIG    1       23.663 -21.879   7.689  0.00  0.00    +0.106 C 
ATOM      6  C   LIG    1       23.600 -22.035   6.174  0.00  0.00    +0.129 C 
ENDROOT
BRANCH   6   7
ATOM      7  O   LIG    1       23.305 -20.784   5.556  0.00  0.00    -0.391 OA
ATOM      8  H   LIG    1       23.511 -20.070   6.184  0.00  0.00    +0.210 HD
ENDBRANCH   6   7
BRANCH   1  10
ATOM      9  C   LIG    1       25.169 -24.885   4.868  0.00  0.00    -0.000 C 
ATOM     10  C   LIG    1       25.127 -24.011   5.890  0.00  0.00    -0.022 C 
BRANCH   9  11
ATOM     11  C   LIG    1       25.222 -26.391   4.988  0.00  0.00    +0.137 C 
BRANCH  11  12
ATOM     12  O   LIG    1       26.585 -26.769   5.126  0.00  0.00    -0.388 OA
ATOM     13  H   LIG    1       26.616 -27.741   5.151  0.00  0.00    +0.210 HD
ENDBRANCH  11  12
BRANCH  11  14
ATOM     14  C   LIG    1       24.402 -26.962   6.154  0.00  0.00    +0.035 C 
BRANCH  14  15
ATOM     15  C   LIG    1       24.995 -28.245   6.746  0.00  0.00    +0.003 C 
BRANCH  15  16
ATOM     16  C   LIG    1       24.334 -29.483   6.129  0.00  0.00    -0.000 C 
BRANCH  16  18
ATOM     17  C   LIG    1       25.845 -31.508   6.195  0.00  0.00    +0.004 C 
ATOM     18  C   LIG    1       25.342 -30.338   5.361  0.00  0.00    -0.003 C 
ENDBRANCH  16  18
ENDBRANCH  15  16
ENDBRANCH  14  15
ENDBRANCH  11  14
ENDBRANCH   9  11
ENDBRANCH   1  10
BRANCH   2  19
ATOM     19  C   LIG    1       26.405 -20.374   6.131  0.00  0.00    +0.011 C 
BRANCH  19  20
ATOM     20  C   LIG    1       27.929 -20.216   6.091  0.00  0.00    +0.001 C 
BRANCH  20  21
ATOM     21  C   LIG    1       28.649 -21.111   7.103  0.00  0.00    +0.000 C 
BRANCH  21  22
ATOM     22  C   LIG    1       29.865 -20.422   7.745  0.00  0.00    +0.000 C 
BRANCH  22  23
ATOM     23  C   LIG    1       29.782 -18.893   7.675  0.00  0.00    +0.011 C 
BRANCH  23  24
ATOM     24  C   LIG    1       30.111 -18.224   9.009  0.00  0.00    +0.120 C 
BRANCH  24  25
ATOM     25  C   LIG    1       31.595 -17.977   9.181  0.00  0.00    +0.305 C 
ATOM     26  O   LIG    1       32.185 -18.133  10.231  0.00  0.00    -0.251 OA
BRANCH  25  27
ATOM     27  O   LIG    1       32.235 -17.610   8.044  0.00  0.00    -0.481 OA
ATOM     28  H   LIG    1       31.675 -17.186   7.371  0.00  0.00    +0.295 HD
ENDBRANCH  25  27
ENDBRANCH  24  25
ENDBRANCH  23  24
ENDBRANCH  22  23
ENDBRANCH  21  22
ENDBRANCH  20  21
ENDBRANCH  19  20
ENDBRANCH   2  19
TORSDOF 16
ENDMDL
MODEL 7
REMARK VINA RESULT:      -7.7      2.452      7.878
REMARK  Name = *****
REMARK                            x       y       z     vdW  Elec       q    Type
REMARK                         _______ _______ _______ _____ _____    ______ ____
ROOT
ATOM      1  C   LIG    1       27.391 -20.950   6.078  0.00  0.00    +0.051 C 
ATOM      2  C   LIG    1       26.391 -21.566   7.086  0.00  0.00    +0.065 C 
ATOM      3  C   LIG    1       26.673 -20.734   8.323  0.00  0.00    +0.140 C 
ATOM      4  O   LIG    1       25.916 -20.658   9.287  0.00  0.00    -0.297 OA
ATOM      5  C   LIG    1       27.963 -19.968   8.249  0.00  0.00    +0.106 C 
ATOM      6  C   LIG    1       28.574 -20.484   6.951  0.00  0.00    +0.129 C 
ENDROOT
BRANCH   6   7
ATOM      7  O   LIG    1       29.436 -21.590   7.211  0.00  0.00    -0.391 OA
ATOM      8  H   LIG    1       29.974 -21.387   7.996  0.00  0.00    +0.210 HD
ENDBRANCH   6   7
BRANCH   1  10
ATOM      9  C   LIG    1       25.675 -19.833   4.579  0.00  0.00    -0.000 C 
ATOM     10  C   LIG    1       26.788 -19.773   5.332  0.00  0.00    -0.022 C 
BRANCH   9  11
ATOM     11  C   LIG    1       25.087 -18.700   3.768  0.00  0.00    +0.137 C 
BRANCH  11  12
ATOM     12  O   LIG    1       25.824 -18.605   2.556  0.00  0.00    -0.388 OA
ATOM     13  H   LIG    1       25.876 -17.663   2.322  0.00  0.00    +0.210 HD
ENDBRANCH  11  12
BRANCH  11  14
ATOM     14  C   LIG    1       23.591 -18.855   3.458  0.00  0.00    +0.035 C 
BRANCH  14  15
ATOM     15  C   LIG    1       22.712 -18.917   4.712  0.00  0.00    +0.003 C 
BRANCH  15  16
ATOM     16  C   LIG    1       22.034 -20.286   4.832  0.00  0.00    -0.000 C 
BRANCH  16  18
ATOM     17  C   LIG    1       23.115 -21.001   7.002  0.00  0.00    +0.004 C 
ATOM     18  C   LIG    1       22.940 -21.307   5.522  0.00  0.00    -0.003 C 
ENDBRANCH  16  18
ENDBRANCH  15  16
ENDBRANCH  14  15
ENDBRANCH  11  14
ENDBRANCH   9  11
ENDBRANCH   1  10
BRANCH   2  19
ATOM     19  C   LIG    1       26.624 -23.066   7.345  0.00  0.00    +0.011 C 
BRANCH  19  20
ATOM     20  C   LIG    1       25.379 -23.911   7.045  0.00  0.00    +0.001 C 
BRANCH  20  21
ATOM     21  C   LIG    1       25.227 -24.243   5.558  0.00  0.00    +0.000 C 
BRANCH  21  22
ATOM     22  C   LIG    1       24.704 -25.670   5.320  0.00  0.00    +0.000 C 
BRANCH  22  23
ATOM     23  C   LIG    1       25.791 -26.735   5.504  0.00  0.00    +0.011 C 
BRANCH  23  24
ATOM     24  C   LIG    1       25.333 -28.125   5.064  0.00  0.00    +0.120 C 
BRANCH  24  25
ATOM     25  C   LIG    1       24.313 -28.723   6.010  0.00  0.00    +0.305 C 
ATOM     26  O   LIG    1       24.415 -28.685   7.220  0.00  0.00    -0.251 OA
BRANCH  25  27
ATOM     27  O   LIG    1       23.236 -29.270   5.396  0.00  0.00    -0.481 OA
ATOM     28  H   LIG    1       23.411 -29.663   4.524  0.00  0.00    +0.295 HD
ENDBRANCH  25  27
ENDBRANCH  24  25
ENDBRANCH  23  24
ENDBRANCH  22  23
ENDBRANCH  21  22
ENDBRANCH  20  21
ENDBRANCH  19  20
ENDBRANCH   2  19
TORSDOF 16
ENDMDL
MODEL 8
REMARK VINA RESULT:      -7.3      3.224      7.639
REMARK  Name = *****
REMARK                            x       y       z     vdW  Elec       q    Type
REMARK                         _______ _______ _______ _____ _____    ______ ____
ROOT
ATOM      1  C   LIG    1       26.857 -21.531   6.528  0.00  0.00    +0.051 C 
ATOM      2  C   LIG    1       25.576 -20.675   6.383  0.00  0.00    +0.065 C 
ATOM      3  C   LIG    1       24.764 -21.160   7.569  0.00  0.00    +0.140 C 
ATOM      4  O   LIG    1       23.801 -20.557   8.035  0.00  0.00    -0.297 OA
ATOM      5  C   LIG    1       25.271 -22.447   8.156  0.00  0.00    +0.106 C 
ATOM      6  C   LIG    1       26.367 -22.844   7.174  0.00  0.00    +0.129 C 
ENDROOT
BRANCH   6   7
ATOM      7  O   LIG    1       25.844 -23.703   6.163  0.00  0.00    -0.391 OA
ATOM      8  H   LIG    1       25.251 -23.185   5.591  0.00  0.00    +0.210 HD
ENDBRANCH   6   7
BRANCH   1  10
ATOM      9  C   LIG    1       29.193 -20.732   7.113  0.00  0.00    -0.000 C 
ATOM     10  C   LIG    1       27.889 -20.858   7.416  0.00  0.00    -0.022 C 
BRANCH   9  11
ATOM     11  C   LIG    1       30.259 -20.132   8.002  0.00  0.00    +0.137 C 
BRANCH  11  12
ATOM     12  O   LIG    1       31.476 -20.111   7.269  0.00  0.00    -0.388 OA
ATOM     13  H   LIG    1       31.617 -19.198   6.967  0.00  0.00    +0.210 HD
ENDBRANCH  11  12
BRANCH  11  14
ATOM     14  C   LIG    1       29.934 -18.721   8.514  0.00  0.00    +0.035 C 
BRANCH  14  15
ATOM     15  C   LIG    1       30.914 -18.218   9.579  0.00  0.00    +0.003 C 
BRANCH  15  16
ATOM     16  C   LIG    1       30.348 -16.988  10.299  0.00  0.00    -0.000 C 
BRANCH  16  18
ATOM     17  C   LIG    1       32.579 -16.015  10.983  0.00  0.00    +0.004 C 
ATOM     18  C   LIG    1       31.240 -16.555  11.463  0.00  0.00    -0.003 C 
ENDBRANCH  16  18
ENDBRANCH  15  16
ENDBRANCH  14  15
ENDBRANCH  11  14
ENDBRANCH   9  11
ENDBRANCH   1  10
BRANCH   2  19
ATOM     19  C   LIG    1       24.833 -20.901   5.053  0.00  0.00    +0.011 C 
BRANCH  19  20
ATOM     20  C   LIG    1       23.828 -19.783   4.750  0.00  0.00    +0.001 C 
BRANCH  20  21
ATOM     21  C   LIG    1       24.195 -18.972   3.504  0.00  0.00    +0.000 C 
BRANCH  21  22
ATOM     22  C   LIG    1       25.625 -18.407   3.565  0.00  0.00    +0.000 C 
BRANCH  22  23
ATOM     23  C   LIG    1       25.691 -16.925   3.177  0.00  0.00    +0.011 C 
BRANCH  23  24
ATOM     24  C   LIG    1       27.019 -16.276   3.562  0.00  0.00    +0.120 C 
BRANCH  24  25
ATOM     25  C   LIG    1       27.028 -14.783   3.308  0.00  0.00    +0.305 C 
ATOM     26  O   LIG    1       27.395 -13.965   4.126  0.00  0.00    -0.251 OA
BRANCH  25  27
ATOM     27  O   LIG    1       26.635 -14.427   2.061  0.00  0.00    -0.481 OA
ATOM     28  H   LIG    1       25.867 -14.913   1.713  0.00  0.00    +0.295 HD
ENDBRANCH  25  27
ENDBRANCH  24  25
ENDBRANCH  23  24
ENDBRANCH  22  23
ENDBRANCH  21  22
ENDBRANCH  20  21
ENDBRANCH  19  20
ENDBRANCH   2  19
TORSDOF 16
ENDMDL
MODEL 9
REMARK VINA RESULT:      -7.1      3.355      6.699
REMARK  Name = *****
REMARK                            x       y       z     vdW  Elec       q    Type
REMARK                         _______ _______ _______ _____ _____    ______ ____
ROOT
ATOM      1  C   LIG    1       25.942 -20.494   6.942  0.00  0.00    +0.051 C 
ATOM      2  C   LIG    1       26.916 -21.677   6.725  0.00  0.00    +0.065 C 
ATOM      3  C   LIG    1       26.103 -22.831   7.283  0.00  0.00    +0.140 C 
ATOM      4  O   LIG    1       26.342 -24.013   7.055  0.00  0.00    -0.297 OA
ATOM      5  C   LIG    1       24.938 -22.390   8.125  0.00  0.00    +0.106 C 
ATOM      6  C   LIG    1       25.145 -20.882   8.204  0.00  0.00    +0.129 C 
ENDROOT
BRANCH   6   7
ATOM      7  O   LIG    1       25.900 -20.543   9.365  0.00  0.00    -0.391 OA
ATOM      8  H   LIG    1       26.592 -21.215   9.494  0.00  0.00    +0.210 HD
ENDBRANCH   6   7
BRANCH   1  10
ATOM      9  C   LIG    1       23.664 -20.268   5.848  0.00  0.00    -0.000 C 
ATOM     10  C   LIG    1       25.006 -20.308   5.761  0.00  0.00    -0.022 C 
BRANCH   9  11
ATOM     11  C   LIG    1       22.701 -20.155   4.688  0.00  0.00    +0.137 C 
BRANCH  11  12
ATOM     12  O   LIG    1       21.727 -21.180   4.830  0.00  0.00    -0.388 OA
ATOM     13  H   LIG    1       21.214 -21.211   4.005  0.00  0.00    +0.210 HD
ENDBRANCH  11  12
BRANCH  11  14
ATOM     14  C   LIG    1       22.008 -18.790   4.572  0.00  0.00    +0.035 C 
BRANCH  14  15
ATOM     15  C   LIG    1       22.949 -17.663   4.132  0.00  0.00    +0.003 C 
BRANCH  15  16
ATOM     16  C   LIG    1       22.581 -16.347   4.826  0.00  0.00    -0.000 C 
BRANCH  16  18
ATOM     17  C   LIG    1       24.250 -14.453   4.687  0.00  0.00    +0.004 C 
ATOM     18  C   LIG    1       23.060 -15.134   4.027  0.00  0.00    -0.003 C 
ENDBRANCH  16  18
ENDBRANCH  15  16
ENDBRANCH  14  15
ENDBRANCH  11  14
ENDBRANCH   9  11
ENDBRANCH   1  10
BRANCH   2  19
ATOM     19  C   LIG    1       28.256 -21.515   7.465  0.00  0.00    +0.011 C 
BRANCH  19  20
ATOM     20  C   LIG    1       28.745 -20.062   7.475  0.00  0.00    +0.001 C 
BRANCH  20  21
ATOM     21  C   LIG    1       30.245 -19.935   7.193  0.00  0.00    +0.000 C 
BRANCH  21  22
ATOM     22  C   LIG    1       31.081 -19.803   8.477  0.00  0.00    +0.000 C 
BRANCH  22  23
ATOM     23  C   LIG    1       31.613 -18.381   8.692  0.00  0.00    +0.011 C 
BRANCH  23  24
ATOM     24  C   LIG    1       30.536 -17.421   9.196  0.00  0.00    +0.120 C 
BRANCH  24  25
ATOM     25  C   LIG    1       30.520 -17.312  10.706  0.00  0.00    +0.305 C 
ATOM     26  O   LIG    1       30.277 -16.282  11.302  0.00  0.00    -0.251 OA
BRANCH  25  27
ATOM     27  O   LIG    1       30.751 -18.480  11.353  0.00  0.00    -0.481 OA
ATOM     28  H   LIG    1       31.315 -19.113  10.876  0.00  0.00    +0.295 HD
ENDBRANCH  25  27
ENDBRANCH  24  25
ENDBRANCH  23  24
ENDBRANCH  22  23
ENDBRANCH  21  22
ENDBRANCH  20  21
ENDBRANCH  19  20
ENDBRANCH   2  19
TORSDOF 16
ENDMDL
