MODEL 1
REMARK VINA RESULT:      -4.7      0.000      0.000
REMARK  Name = *****
REMARK                            x       y       z     vdW  Elec       q    Type
REMARK                         _______ _______ _______ _____ _____    ______ ____
ROOT
ATOM      1  O   LIG    1       21.641 -21.149   4.826  0.00  0.00    -0.268 OA
ATOM      2  C   LIG    1       22.778 -20.972   5.246  0.00  0.00    +0.252 C 
ATOM      3  N   LIG    1       23.112 -21.096   6.572  0.00  0.00    -0.328 N 
ATOM      4  H   LIG    1       22.355 -21.346   7.198  0.00  0.00    +0.168 HD
ATOM      5  C   LIG    1       24.383 -20.911   7.061  0.00  0.00    +0.109 C 
ATOM      6  C   LIG    1       25.391 -20.586   6.237  0.00  0.00    +0.098 C 
ATOM      7 CL   LIG    1       26.982 -20.366   6.864  0.00  0.00    -0.078 Cl
ATOM      8  C   LIG    1       25.123 -20.428   4.816  0.00  0.00    +0.142 C 
ATOM      9  C   LIG    1       23.885 -20.604   4.327  0.00  0.00    +0.117 C 
ENDROOT
BRANCH   8  10
ATOM     10  O   LIG    1       26.198 -20.092   4.021  0.00  0.00    -0.505 OA
ATOM     11  H   LIG    1       25.930 -19.389   3.405  0.00  0.00    +0.292 HD
ENDBRANCH   8  10
TORSDOF 1
ENDMDL
MODEL 2
REMARK VINA RESULT:      -4.7      1.323      1.327
REMARK  Name = *****
REMARK                            x       y       z     vdW  Elec       q    Type
REMARK                         _______ _______ _______ _____ _____    ______ ____
ROOT
ATOM      1  O   LIG    1       21.885 -18.819   4.082  0.00  0.00    -0.268 OA
ATOM      2  C   LIG    1       22.803 -19.392   4.655  0.00  0.00    +0.252 C 
ATOM      3  N   LIG    1       22.645 -20.039   5.857  0.00  0.00    -0.328 N 
ATOM      4  H   LIG    1       21.713 -20.016   6.254  0.00  0.00    +0.168 HD
ATOM      5  C   LIG    1       23.661 -20.695   6.510  0.00  0.00    +0.109 C 
ATOM      6  C   LIG    1       24.896 -20.734   5.988  0.00  0.00    +0.098 C 
ATOM      7 CL   LIG    1       26.157 -21.569   6.816  0.00  0.00    -0.078 Cl
ATOM      8  C   LIG    1       25.151 -20.070   4.720  0.00  0.00    +0.142 C 
ATOM      9  C   LIG    1       24.169 -19.423   4.073  0.00  0.00    +0.117 C 
ENDROOT
BRANCH   8  10
ATOM     10  O   LIG    1       26.440 -20.143   4.235  0.00  0.00    -0.505 OA
ATOM     11  H   LIG    1       26.413 -20.392   3.296  0.00  0.00    +0.292 HD
ENDBRANCH   8  10
TORSDOF 1
ENDMDL
MODEL 3
REMARK VINA RESULT:      -4.5      2.682      4.054
REMARK  Name = *****
REMARK                            x       y       z     vdW  Elec       q    Type
REMARK                         _______ _______ _______ _____ _____    ______ ____
ROOT
ATOM      1  O   LIG    1       28.043 -20.479   6.620  0.00  0.00    -0.268 OA
ATOM      2  C   LIG    1       26.920 -20.447   6.134  0.00  0.00    +0.252 C 
ATOM      3  N   LIG    1       26.679 -20.074   4.833  0.00  0.00    -0.328 N 
ATOM      4  H   LIG    1       27.494 -19.820   4.287  0.00  0.00    +0.168 HD
ATOM      5  C   LIG    1       25.427 -20.042   4.267  0.00  0.00    +0.109 C 
ATOM      6  C   LIG    1       24.345 -20.383   4.983  0.00  0.00    +0.098 C 
ATOM      7 CL   LIG    1       22.782 -20.345   4.256  0.00  0.00    -0.078 Cl
ATOM      8  C   LIG    1       24.510 -20.785   6.371  0.00  0.00    +0.142 C 
ATOM      9  C   LIG    1       25.727 -20.819   6.936  0.00  0.00    +0.117 C 
ENDROOT
BRANCH   8  10
ATOM     10  O   LIG    1       23.361 -21.122   7.054  0.00  0.00    -0.505 OA
ATOM     11  H   LIG    1       23.280 -22.090   7.083  0.00  0.00    +0.292 HD
ENDBRANCH   8  10
TORSDOF 1
ENDMDL
MODEL 4
REMARK VINA RESULT:      -4.3      7.551      8.399
REMARK  Name = *****
REMARK                            x       y       z     vdW  Elec       q    Type
REMARK                         _______ _______ _______ _____ _____    ______ ____
ROOT
ATOM      1  O   LIG    1       29.270 -12.128   4.864  0.00  0.00    -0.268 OA
ATOM      2  C   LIG    1       28.214 -12.708   4.643  0.00  0.00    +0.252 C 
ATOM      3  N   LIG    1       27.251 -12.899   5.604  0.00  0.00    -0.328 N 
ATOM      4  H   LIG    1       27.463 -12.529   6.523  0.00  0.00    +0.168 HD
ATOM      5  C   LIG    1       26.057 -13.538   5.372  0.00  0.00    +0.109 C 
ATOM      6  C   LIG    1       25.766 -14.024   4.156  0.00  0.00    +0.098 C 
ATOM      7 CL   LIG    1       24.260 -14.816   3.879  0.00  0.00    -0.078 Cl
ATOM      8  C   LIG    1       26.734 -13.870   3.081  0.00  0.00    +0.142 C 
ATOM      9  C   LIG    1       27.905 -13.250   3.295  0.00  0.00    +0.117 C 
ENDROOT
BRANCH   8  10
ATOM     10  O   LIG    1       26.380 -14.391   1.855  0.00  0.00    -0.505 OA
ATOM     11  H   LIG    1       25.491 -14.779   1.918  0.00  0.00    +0.292 HD
ENDBRANCH   8  10
TORSDOF 1
ENDMDL
MODEL 5
REMARK VINA RESULT:      -4.3      7.440      7.810
REMARK  Name = *****
REMARK                            x       y       z     vdW  Elec       q    Type
REMARK                         _______ _______ _______ _____ _____    ______ ____
ROOT
ATOM      1  O   LIG    1       23.393 -14.056   3.422  0.00  0.00    -0.268 OA
ATOM      2  C   LIG    1       24.598 -13.862   3.519  0.00  0.00    +0.252 C 
ATOM      3  N   LIG    1       25.433 -13.786   2.430  0.00  0.00    -0.328 N 
ATOM      4  H   LIG    1       24.992 -13.901   1.525  0.00  0.00    +0.168 HD
ATOM      5  C   LIG    1       26.785 -13.560   2.519  0.00  0.00    +0.109 C 
ATOM      6  C   LIG    1       27.374 -13.399   3.714  0.00  0.00    +0.098 C 
ATOM      7 CL   LIG    1       29.071 -13.108   3.808  0.00  0.00    -0.078 Cl
ATOM      8  C   LIG    1       26.565 -13.471   4.919  0.00  0.00    +0.142 C 
ATOM      9  C   LIG    1       25.243 -13.694   4.846  0.00  0.00    +0.117 C 
ENDROOT
BRANCH   8  10
ATOM     10  O   LIG    1       27.226 -13.301   6.117  0.00  0.00    -0.505 OA
ATOM     11  H   LIG    1       28.138 -13.626   6.026  0.00  0.00    +0.292 HD
ENDBRANCH   8  10
TORSDOF 1
ENDMDL
MODEL 6
REMARK VINA RESULT:      -4.2      2.719      3.460
REMARK  Name = *****
REMARK                            x       y       z     vdW  Elec       q    Type
REMARK                         _______ _______ _______ _____ _____    ______ ____
ROOT
ATOM      1  O   LIG    1       25.884 -17.807   2.960  0.00  0.00    -0.268 OA
ATOM      2  C   LIG    1       25.233 -18.607   3.619  0.00  0.00    +0.252 C 
ATOM      3  N   LIG    1       23.861 -18.577   3.688  0.00  0.00    -0.328 N 
ATOM      4  H   LIG    1       23.407 -17.845   3.156  0.00  0.00    +0.168 HD
ATOM      5  C   LIG    1       23.113 -19.472   4.415  0.00  0.00    +0.109 C 
ATOM      6  C   LIG    1       23.708 -20.449   5.117  0.00  0.00    +0.098 C 
ATOM      7 CL   LIG    1       22.754 -21.569   6.017  0.00  0.00    -0.078 Cl
ATOM      8  C   LIG    1       25.158 -20.550   5.104  0.00  0.00    +0.142 C 
ATOM      9  C   LIG    1       25.901 -19.680   4.400  0.00  0.00    +0.117 C 
ENDROOT
BRANCH   8  10
ATOM     10  O   LIG    1       25.711 -21.572   5.845  0.00  0.00    -0.505 OA
ATOM     11  H   LIG    1       25.099 -21.814   6.560  0.00  0.00    +0.292 HD
ENDBRANCH   8  10
TORSDOF 1
ENDMDL
MODEL 7
REMARK VINA RESULT:      -4.2      2.419      3.376
REMARK  Name = *****
REMARK                            x       y       z     vdW  Elec       q    Type
REMARK                         _______ _______ _______ _____ _____    ______ ____
ROOT
ATOM      1  O   LIG    1       27.765 -20.280   6.500  0.00  0.00    -0.268 OA
ATOM      2  C   LIG    1       26.587 -20.380   6.180  0.00  0.00    +0.252 C 
ATOM      3  N   LIG    1       25.604 -20.761   7.061  0.00  0.00    -0.328 N 
ATOM      4  H   LIG    1       25.909 -20.960   8.007  0.00  0.00    +0.168 HD
ATOM      5  C   LIG    1       24.276 -20.869   6.724  0.00  0.00    +0.109 C 
ATOM      6  C   LIG    1       23.864 -20.600   5.476  0.00  0.00    +0.098 C 
ATOM      7 CL   LIG    1       22.194 -20.733   5.071  0.00  0.00    -0.078 Cl
ATOM      8  C   LIG    1       24.841 -20.195   4.478  0.00  0.00    +0.142 C 
ATOM      9  C   LIG    1       26.141 -20.088   4.794  0.00  0.00    +0.117 C 
ENDROOT
BRANCH   8  10
ATOM     10  O   LIG    1       24.358 -19.935   3.214  0.00  0.00    -0.505 OA
ATOM     11  H   LIG    1       23.419 -19.690   3.276  0.00  0.00    +0.292 HD
ENDBRANCH   8  10
TORSDOF 1
ENDMDL
MODEL 8
REMARK VINA RESULT:      -4.1      8.058      8.641
REMARK  Name = *****
REMARK                            x       y       z     vdW  Elec       q    Type
REMARK                         _______ _______ _______ _____ _____    ______ ____
ROOT
ATOM      1  O   LIG    1       27.010 -14.472   1.821  0.00  0.00    -0.268 OA
ATOM      2  C   LIG    1       26.270 -13.846   2.569  0.00  0.00    +0.252 C 
ATOM      3  N   LIG    1       26.368 -13.905   3.938  0.00  0.00    -0.328 N 
ATOM      4  H   LIG    1       27.097 -14.505   4.304  0.00  0.00    +0.168 HD
ATOM      5  C   LIG    1       25.554 -13.202   4.793  0.00  0.00    +0.109 C 
ATOM      6  C   LIG    1       24.590 -12.400   4.315  0.00  0.00    +0.098 C 
ATOM      7 CL   LIG    1       23.582 -11.519   5.401  0.00  0.00    -0.078 Cl
ATOM      8  C   LIG    1       24.413 -12.285   2.876  0.00  0.00    +0.142 C 
ATOM      9  C   LIG    1       25.200 -12.967   2.030  0.00  0.00    +0.117 C 
ENDROOT
BRANCH   8  10
ATOM     10  O   LIG    1       23.406 -11.448   2.445  0.00  0.00    -0.505 OA
ATOM     11  H   LIG    1       22.862 -11.186   3.207  0.00  0.00    +0.292 HD
ENDBRANCH   8  10
TORSDOF 1
ENDMDL
MODEL 9
REMARK VINA RESULT:      -4.1      6.743      7.643
REMARK  Name = *****
REMARK                            x       y       z     vdW  Elec       q    Type
REMARK                         _______ _______ _______ _____ _____    ______ ____
ROOT
ATOM      1  O   LIG    1       28.865 -13.112   3.895  0.00  0.00    -0.268 OA
ATOM      2  C   LIG    1       27.722 -13.546   3.964  0.00  0.00    +0.252 C 
ATOM      3  N   LIG    1       26.679 -12.822   4.489  0.00  0.00    -0.328 N 
ATOM      4  H   LIG    1       26.908 -11.894   4.824  0.00  0.00    +0.168 HD
ATOM      5  C   LIG    1       25.389 -13.288   4.566  0.00  0.00    +0.109 C 
ATOM      6  C   LIG    1       25.077 -14.514   4.119  0.00  0.00    +0.098 C 
ATOM      7 CL   LIG    1       23.451 -15.081   4.215  0.00  0.00    -0.078 Cl
ATOM      8  C   LIG    1       26.123 -15.350   3.552  0.00  0.00    +0.142 C 
ATOM      9  C   LIG    1       27.388 -14.907   3.473  0.00  0.00    +0.117 C 
ENDROOT
BRANCH   8  10
ATOM     10  O   LIG    1       25.743 -16.599   3.111  0.00  0.00    -0.505 OA
ATOM     11  H   LIG    1       26.432 -17.243   3.346  0.00  0.00    +0.292 HD
ENDBRANCH   8  10
TORSDOF 1
ENDMDL
