MODEL 1
REMARK VINA RESULT:      -4.7      0.000      0.000
REMARK  Name = *****
REMARK                            x       y       z     vdW  Elec       q    Type
REMARK                         _______ _______ _______ _____ _____    ______ ____
ROOT
ATOM      1  N   LIG    1       25.868 -19.194   4.354  0.00  0.00    -0.298 N 
ATOM      2  C   LIG    1       24.633 -19.864   4.606  0.00  0.00    +0.048 A 
ATOM      3  C   LIG    1       24.413 -20.598   5.789  0.00  0.00    +0.034 A 
ATOM      4  C   LIG    1       23.171 -21.213   6.041  0.00  0.00    +0.017 A 
ATOM      5  C   LIG    1       22.132 -21.143   5.119  0.00  0.00    +0.001 A 
ATOM      6  C   LIG    1       22.339 -20.469   3.926  0.00  0.00    +0.002 A 
ATOM      7  S   LIG    1       25.633 -20.803   7.062  0.00  0.00    -0.086 S 
ATOM      8  C   LIG    1       27.078 -20.074   6.330  0.00  0.00    +0.034 A 
ATOM      9  C   LIG    1       28.271 -20.236   7.062  0.00  0.00    +0.017 A 
ATOM     10  C   LIG    1       29.466 -19.674   6.628  0.00  0.00    +0.001 A 
ATOM     11  C   LIG    1       29.475 -18.940   5.455  0.00  0.00    +0.002 A 
ATOM     12  C   LIG    1       28.293 -18.781   4.721  0.00  0.00    +0.024 A 
ATOM     13  C   LIG    1       23.568 -19.850   3.677  0.00  0.00    +0.024 A 
ATOM     14  C   LIG    1       27.058 -19.338   5.126  0.00  0.00    +0.048 A 
ENDROOT
BRANCH   1  15
ATOM     15  C   LIG    1       25.857 -18.138   3.312  0.00  0.00    +0.112 C 
BRANCH  15  16
ATOM     16  C   LIG    1       25.399 -16.786   3.875  0.00  0.00    +0.035 C 
BRANCH  16  17
ATOM     17  C   LIG    1       26.252 -15.638   3.315  0.00  0.00    +0.085 C 
BRANCH  17  19
ATOM     18  C   LIG    1       25.726 -13.503   2.325  0.00  0.00    +0.104 C 
ATOM     19  N   LIG    1       25.684 -14.298   3.557  0.00  0.00    -0.308 NA
ATOM     20  C   LIG    1       24.306 -14.350   4.050  0.00  0.00    +0.104 C 
ENDBRANCH  17  19
ENDBRANCH  16  17
ENDBRANCH  15  16
ENDBRANCH   1  15
TORSDOF 4
ENDMDL
MODEL 2
REMARK VINA RESULT:      -2.0      1.933      5.042
REMARK  Name = *****
REMARK                            x       y       z     vdW  Elec       q    Type
REMARK                         _______ _______ _______ _____ _____    ______ ____
ROOT
ATOM      1  N   LIG    1       25.250 -17.598   3.819  0.00  0.00    -0.298 N 
ATOM      2  C   LIG    1       24.182 -18.484   4.155  0.00  0.00    +0.048 A 
ATOM      3  C   LIG    1       22.861 -18.024   4.330  0.00  0.00    +0.034 A 
ATOM      4  C   LIG    1       21.812 -18.920   4.615  0.00  0.00    +0.017 A 
ATOM      5  C   LIG    1       22.049 -20.282   4.763  0.00  0.00    +0.001 A 
ATOM      6  C   LIG    1       23.346 -20.754   4.644  0.00  0.00    +0.002 A 
ATOM      7  S   LIG    1       22.387 -16.319   4.193  0.00  0.00    -0.086 S 
ATOM      8  C   LIG    1       23.952 -15.496   4.020  0.00  0.00    +0.034 A 
ATOM      9  C   LIG    1       23.899 -14.089   4.052  0.00  0.00    +0.017 A 
ATOM     10  C   LIG    1       25.044 -13.320   3.880  0.00  0.00    +0.001 A 
ATOM     11  C   LIG    1       26.255 -13.957   3.670  0.00  0.00    +0.002 A 
ATOM     12  C   LIG    1       26.313 -15.356   3.644  0.00  0.00    +0.024 A 
ATOM     13  C   LIG    1       24.389 -19.868   4.352  0.00  0.00    +0.024 A 
ATOM     14  C   LIG    1       25.173 -16.175   3.817  0.00  0.00    +0.048 A 
ENDROOT
BRANCH   1  15
ATOM     15  C   LIG    1       26.481 -18.213   3.262  0.00  0.00    +0.112 C 
BRANCH  15  16
ATOM     16  C   LIG    1       27.609 -18.270   4.302  0.00  0.00    +0.035 C 
BRANCH  16  17
ATOM     17  C   LIG    1       27.555 -19.580   5.102  0.00  0.00    +0.085 C 
BRANCH  17  19
ATOM     18  C   LIG    1       29.471 -18.700   6.271  0.00  0.00    +0.104 C 
ATOM     19  N   LIG    1       28.821 -19.920   5.779  0.00  0.00    -0.308 NA
ATOM     20  C   LIG    1       28.632 -20.849   6.895  0.00  0.00    +0.104 C 
ENDBRANCH  17  19
ENDBRANCH  16  17
ENDBRANCH  15  16
ENDBRANCH   1  15
TORSDOF 4
ENDMDL
