MODEL 1
REMARK VINA RESULT:       1.8      0.000      0.000
REMARK  Name = *****
REMARK                            x       y       z     vdW  Elec       q    Type
REMARK                         _______ _______ _______ _____ _____    ______ ____
ROOT
ATOM      1  C   LIG    1       29.069 -18.575   6.502  0.00  0.00    +0.147 C 
ENDROOT
BRANCH   1   2
ATOM      2  N   LIG    1       28.392 -19.866   6.771  0.00  0.00    -0.315 N 
ATOM      3  C   LIG    1       29.180 -21.065   7.062  0.00  0.00    +0.131 C 
BRANCH   2   8
ATOM      4  C   LIG    1       25.005 -20.572   5.598  0.00  0.00    +0.225 A 
ATOM      5  N   LIG    1       25.033 -20.153   4.328  0.00  0.00    -0.201 NA
ATOM      6  C   LIG    1       26.238 -19.745   3.898  0.00  0.00    +0.227 A 
ATOM      7  N   LIG    1       27.368 -19.651   4.629  0.00  0.00    -0.221 NA
ATOM      8  C   LIG    1       27.301 -20.078   5.898  0.00  0.00    +0.128 A 
ATOM      9  C   LIG    1       26.143 -20.666   6.365  0.00  0.00    +0.111 A 
BRANCH   4  10
ATOM     10  O   LIG    1       23.753 -20.889   6.115  0.00  0.00    -0.438 OA
BRANCH  10  14
ATOM     11  C   LIG    1       20.479 -19.498   3.896  0.00  0.00    +0.120 A 
ATOM     12  C   LIG    1       20.605 -20.863   4.132  0.00  0.00    +0.049 A 
ATOM     13  C   LIG    1       21.614 -21.324   4.981  0.00  0.00    +0.050 A 
ATOM     14  C   LIG    1       22.630 -20.465   5.424  0.00  0.00    +0.131 A 
ATOM     15  C   LIG    1       22.519 -19.103   5.160  0.00  0.00    +0.050 A 
ATOM     16  C   LIG    1       21.434 -18.623   4.422  0.00  0.00    +0.049 A 
BRANCH  11  18
ATOM     17  C   LIG    1       19.640 -17.907   2.398  0.00  0.00    +0.277 C 
ATOM     18  O   LIG    1       19.400 -19.094   3.155  0.00  0.00    -0.495 OA
ENDBRANCH  11  18
ENDBRANCH  10  14
ENDBRANCH   4  10
ENDBRANCH   2   8
ENDBRANCH   1   2
BRANCH   1  19
ATOM     19  C   LIG    1       28.681 -17.897   5.180  0.00  0.00    +0.248 C 
BRANCH  19  20
ATOM     20  O   LIG    1       29.010 -16.484   5.195  0.00  0.00    -0.490 OA
BRANCH  20  21
ATOM     21  C   LIG    1       28.177 -15.689   4.443  0.00  0.00    +0.121 A 
ATOM     22  C   LIG    1       28.330 -14.320   4.370  0.00  0.00    +0.046 A 
ATOM     23  C   LIG    1       27.460 -13.544   3.621  0.00  0.00    +0.007 A 
ATOM     24  C   LIG    1       26.380 -14.066   2.920  0.00  0.00    -0.046 A 
ATOM     25  C   LIG    1       26.213 -15.455   2.989  0.00  0.00    +0.007 A 
ATOM     26  C   LIG    1       27.122 -16.262   3.719  0.00  0.00    +0.046 A 
BRANCH  24  27
ATOM     27  C   LIG    1       25.390 -13.174   2.189  0.00  0.00    +0.059 C 
BRANCH  27  28
ATOM     28  C   LIG    1       24.034 -12.912   2.881  0.00  0.00    +0.146 C 
ATOM     29  C   LIG    1       24.084 -12.573   4.373  0.00  0.00    +0.234 C 
ATOM     30  O   LIG    1       24.137 -11.447   4.865  0.00  0.00    -0.274 OA
ATOM     31  N   LIG    1       23.986 -13.649   5.167  0.00  0.00    -0.246 N 
ATOM     32  H   LIG    1       23.939 -13.503   6.159  0.00  0.00    +0.158 HD
ATOM     33  C   LIG    1       23.227 -14.666   4.658  0.00  0.00    +0.279 C 
ATOM     34  O   LIG    1       22.667 -15.501   5.307  0.00  0.00    -0.263 OA
ATOM     35  S   LIG    1       23.069 -14.487   2.919  0.00  0.00    -0.054 S 
ENDBRANCH  27  28
ENDBRANCH  24  27
ENDBRANCH  20  21
ENDBRANCH  19  20
ENDBRANCH   1  19
TORSDOF 10
ENDMDL
MODEL 2
REMARK VINA RESULT:       2.8      2.421      5.685
REMARK  Name = *****
REMARK                            x       y       z     vdW  Elec       q    Type
REMARK                         _______ _______ _______ _____ _____    ______ ____
ROOT
ATOM      1  C   LIG    1       24.493 -20.313   6.024  0.00  0.00    +0.147 C 
ENDROOT
BRANCH   1   2
ATOM      2  N   LIG    1       23.426 -20.559   5.025  0.00  0.00    -0.315 N 
ATOM      3  C   LIG    1       23.697 -21.383   3.846  0.00  0.00    +0.131 C 
BRANCH   2   8
ATOM      4  C   LIG    1       22.366 -17.063   5.063  0.00  0.00    +0.225 A 
ATOM      5  N   LIG    1       21.502 -17.000   4.042  0.00  0.00    -0.201 NA
ATOM      6  C   LIG    1       21.242 -18.178   3.453  0.00  0.00    +0.227 A 
ATOM      7  N   LIG    1       21.810 -19.368   3.738  0.00  0.00    -0.221 NA
ATOM      8  C   LIG    1       22.672 -19.393   4.765  0.00  0.00    +0.128 A 
ATOM      9  C   LIG    1       22.867 -18.258   5.526  0.00  0.00    +0.111 A 
BRANCH   4  10
ATOM     10  O   LIG    1       22.752 -15.849   5.620  0.00  0.00    -0.438 OA
BRANCH  10  14
ATOM     11  C   LIG    1       23.900 -12.819   2.960  0.00  0.00    +0.120 A 
ATOM     12  C   LIG    1       24.101 -12.633   4.323  0.00  0.00    +0.049 A 
ATOM     13  C   LIG    1       23.849 -13.686   5.206  0.00  0.00    +0.050 A 
ATOM     14  C   LIG    1       23.193 -14.847   4.771  0.00  0.00    +0.131 A 
ATOM     15  C   LIG    1       22.964 -15.017   3.408  0.00  0.00    +0.050 A 
ATOM     16  C   LIG    1       23.340 -14.017   2.508  0.00  0.00    +0.049 A 
BRANCH  11  18
ATOM     17  C   LIG    1       25.685 -11.541   2.147  0.00  0.00    +0.277 C 
ATOM     18  O   LIG    1       24.279 -11.794   2.132  0.00  0.00    -0.495 OA
ENDBRANCH  11  18
ENDBRANCH  10  14
ENDBRANCH   4  10
ENDBRANCH   2   8
ENDBRANCH   1   2
BRANCH   1  19
ATOM     19  C   LIG    1       25.190 -21.572   6.560  0.00  0.00    +0.248 C 
BRANCH  19  20
ATOM     20  O   LIG    1       26.618 -21.532   6.311  0.00  0.00    -0.490 OA
BRANCH  20  21
ATOM     21  C   LIG    1       27.075 -20.362   5.752  0.00  0.00    +0.121 A 
ATOM     22  C   LIG    1       28.198 -19.710   6.218  0.00  0.00    +0.046 A 
ATOM     23  C   LIG    1       28.620 -18.520   5.648  0.00  0.00    +0.007 A 
ATOM     24  C   LIG    1       27.952 -17.892   4.604  0.00  0.00    -0.046 A 
ATOM     25  C   LIG    1       26.808 -18.544   4.125  0.00  0.00    +0.007 A 
ATOM     26  C   LIG    1       26.392 -19.783   4.674  0.00  0.00    +0.046 A 
BRANCH  24  27
ATOM     27  C   LIG    1       28.388 -16.539   4.068  0.00  0.00    +0.059 C 
BRANCH  27  28
ATOM     28  C   LIG    1       27.342 -15.403   4.088  0.00  0.00    +0.146 C 
ATOM     29  C   LIG    1       27.405 -14.397   2.936  0.00  0.00    +0.234 C 
ATOM     30  O   LIG    1       26.781 -14.458   1.877  0.00  0.00    -0.274 OA
ATOM     31  N   LIG    1       28.179 -13.334   3.199  0.00  0.00    -0.246 N 
ATOM     32  H   LIG    1       28.215 -12.594   2.522  0.00  0.00    +0.158 HD
ATOM     33  C   LIG    1       28.212 -12.966   4.516  0.00  0.00    +0.279 C 
ATOM     34  O   LIG    1       28.466 -11.868   4.918  0.00  0.00    -0.263 OA
ATOM     35  S   LIG    1       27.686 -14.298   5.528  0.00  0.00    -0.054 S 
ENDBRANCH  27  28
ENDBRANCH  24  27
ENDBRANCH  20  21
ENDBRANCH  19  20
ENDBRANCH   1  19
TORSDOF 10
ENDMDL
