MODEL 1
REMARK VINA RESULT:      -3.8      0.000      0.000
REMARK  Name = *****
REMARK                            x       y       z     vdW  Elec       q    Type
REMARK                         _______ _______ _______ _____ _____    ______ ____
ROOT
ATOM      1  C   LIG    1       26.855 -14.834   3.100  0.00  0.00    +0.051 C 
ATOM      2  C   LIG    1       25.571 -15.469   3.520  0.00  0.00    +0.030 C 
ATOM      3  C   LIG    1       24.514 -14.592   4.067  0.00  0.00    +0.257 C 
ATOM      4  O   LIG    1       24.667 -13.376   4.176  0.00  0.00    -0.267 OA
ATOM      5  N   LIG    1       23.355 -15.211   4.437  0.00  0.00    -0.275 N 
ATOM      6  H   LIG    1       22.621 -14.627   4.802  0.00  0.00    +0.173 HD
ATOM      7  C   LIG    1       23.079 -16.551   4.325  0.00  0.00    +0.332 C 
ATOM      8  O   LIG    1       21.976 -16.974   4.661  0.00  0.00    -0.246 OA
ATOM      9  N   LIG    1       24.104 -17.332   3.816  0.00  0.00    -0.270 N 
ATOM     10  C   LIG    1       25.314 -16.779   3.429  0.00  0.00    +0.102 C 
ENDROOT
BRANCH   9  11
ATOM     11  C   LIG    1       23.859 -18.759   3.687  0.00  0.00    +0.248 C 
ATOM     12  O   LIG    1       23.334 -19.279   4.930  0.00  0.00    -0.343 OA
ATOM     13  C   LIG    1       23.949 -20.572   5.145  0.00  0.00    +0.169 C 
ATOM     14  C   LIG    1       25.193 -20.534   4.323  0.00  0.00    +0.007 C 
ATOM     15  C   LIG    1       25.130 -19.508   3.473  0.00  0.00    +0.025 C 
BRANCH  13  16
ATOM     16  C   LIG    1       24.157 -20.796   6.647  0.00  0.00    +0.191 C 
BRANCH  16  17
ATOM     17  O   LIG    1       25.478 -20.447   7.061  0.00  0.00    -0.392 OA
ATOM     18  H   LIG    1       25.885 -20.021   6.284  0.00  0.00    +0.209 HD
ENDBRANCH  16  17
ENDBRANCH  13  16
ENDBRANCH   9  11
TORSDOF 3
ENDMDL
MODEL 2
REMARK VINA RESULT:      -3.7      2.153      3.073
REMARK  Name = *****
REMARK                            x       y       z     vdW  Elec       q    Type
REMARK                         _______ _______ _______ _____ _____    ______ ____
ROOT
ATOM      1  C   LIG    1       25.070 -13.610   3.227  0.00  0.00    +0.051 C 
ATOM      2  C   LIG    1       25.875 -14.837   3.497  0.00  0.00    +0.030 C 
ATOM      3  C   LIG    1       27.245 -14.661   4.028  0.00  0.00    +0.257 C 
ATOM      4  O   LIG    1       27.719 -13.548   4.251  0.00  0.00    -0.267 OA
ATOM      5  N   LIG    1       27.946 -15.807   4.264  0.00  0.00    -0.275 N 
ATOM      6  H   LIG    1       28.877 -15.706   4.634  0.00  0.00    +0.173 HD
ATOM      7  C   LIG    1       27.493 -17.090   4.079  0.00  0.00    +0.332 C 
ATOM      8  O   LIG    1       28.218 -18.038   4.369  0.00  0.00    -0.246 OA
ATOM      9  N   LIG    1       26.209 -17.202   3.571  0.00  0.00    -0.270 N 
ATOM     10  C   LIG    1       25.437 -16.085   3.296  0.00  0.00    +0.102 C 
ENDROOT
BRANCH   9  11
ATOM     11  C   LIG    1       25.689 -18.542   3.351  0.00  0.00    +0.248 C 
ATOM     12  O   LIG    1       24.244 -18.519   3.400  0.00  0.00    -0.343 OA
ATOM     13  C   LIG    1       23.823 -19.715   4.100  0.00  0.00    +0.169 C 
ATOM     14  C   LIG    1       25.016 -20.120   4.897  0.00  0.00    +0.007 C 
ATOM     15  C   LIG    1       26.089 -19.464   4.452  0.00  0.00    +0.025 C 
BRANCH  13  16
ATOM     16  C   LIG    1       22.558 -19.414   4.912  0.00  0.00    +0.191 C 
BRANCH  16  17
ATOM     17  O   LIG    1       21.994 -18.147   4.571  0.00  0.00    -0.392 OA
ATOM     18  H   LIG    1       22.303 -17.536   5.266  0.00  0.00    +0.209 HD
ENDBRANCH  16  17
ENDBRANCH  13  16
ENDBRANCH   9  11
TORSDOF 3
ENDMDL
MODEL 3
REMARK VINA RESULT:      -3.7      2.969      4.512
REMARK  Name = *****
REMARK                            x       y       z     vdW  Elec       q    Type
REMARK                         _______ _______ _______ _____ _____    ______ ____
ROOT
ATOM      1  C   LIG    1       27.184 -16.955   3.686  0.00  0.00    +0.051 C 
ATOM      2  C   LIG    1       27.225 -18.202   4.505  0.00  0.00    +0.030 C 
ATOM      3  C   LIG    1       28.484 -18.522   5.212  0.00  0.00    +0.257 C 
ATOM      4  O   LIG    1       29.473 -17.795   5.142  0.00  0.00    -0.267 OA
ATOM      5  N   LIG    1       28.480 -19.669   5.951  0.00  0.00    -0.275 N 
ATOM      6  H   LIG    1       29.326 -19.897   6.447  0.00  0.00    +0.173 HD
ATOM      7  C   LIG    1       27.419 -20.525   6.116  0.00  0.00    +0.332 C 
ATOM      8  O   LIG    1       27.538 -21.507   6.844  0.00  0.00    -0.246 OA
ATOM      9  N   LIG    1       26.266 -20.187   5.426  0.00  0.00    -0.270 N 
ATOM     10  C   LIG    1       26.196 -19.045   4.646  0.00  0.00    +0.102 C 
ENDROOT
BRANCH   9  11
ATOM     11  C   LIG    1       25.119 -21.070   5.564  0.00  0.00    +0.248 C 
ATOM     12  O   LIG    1       24.140 -20.761   4.546  0.00  0.00    -0.343 OA
ATOM     13  C   LIG    1       22.835 -20.857   5.165  0.00  0.00    +0.169 C 
ATOM     14  C   LIG    1       23.102 -20.689   6.623  0.00  0.00    +0.007 C 
ATOM     15  C   LIG    1       24.407 -20.834   6.853  0.00  0.00    +0.025 C 
BRANCH  13  16
ATOM     16  C   LIG    1       21.896 -19.818   4.542  0.00  0.00    +0.191 C 
BRANCH  16  17
ATOM     17  O   LIG    1       22.549 -18.567   4.328  0.00  0.00    -0.392 OA
ATOM     18  H   LIG    1       23.310 -18.771   3.752  0.00  0.00    +0.209 HD
ENDBRANCH  16  17
ENDBRANCH  13  16
ENDBRANCH   9  11
TORSDOF 3
ENDMDL
MODEL 4
REMARK VINA RESULT:      -3.7      2.114      5.621
REMARK  Name = *****
REMARK                            x       y       z     vdW  Elec       q    Type
REMARK                         _______ _______ _______ _____ _____    ______ ____
ROOT
ATOM      1  C   LIG    1       22.122 -19.166   4.484  0.00  0.00    +0.051 C 
ATOM      2  C   LIG    1       23.435 -18.552   4.130  0.00  0.00    +0.030 C 
ATOM      3  C   LIG    1       24.603 -19.450   3.996  0.00  0.00    +0.257 C 
ATOM      4  O   LIG    1       24.513 -20.665   4.162  0.00  0.00    -0.267 OA
ATOM      5  N   LIG    1       25.784 -18.851   3.668  0.00  0.00    -0.275 N 
ATOM      6  H   LIG    1       26.587 -19.449   3.564  0.00  0.00    +0.173 HD
ATOM      7  C   LIG    1       25.978 -17.512   3.432  0.00  0.00    +0.332 C 
ATOM      8  O   LIG    1       27.090 -17.107   3.106  0.00  0.00    -0.246 OA
ATOM      9  N   LIG    1       24.857 -16.711   3.580  0.00  0.00    -0.270 N 
ATOM     10  C   LIG    1       23.624 -17.244   3.921  0.00  0.00    +0.102 C 
ENDROOT
BRANCH   9  11
ATOM     11  C   LIG    1       25.016 -15.285   3.348  0.00  0.00    +0.248 C 
ATOM     12  O   LIG    1       26.278 -14.839   3.895  0.00  0.00    -0.343 OA
ATOM     13  C   LIG    1       26.045 -13.545   4.502  0.00  0.00    +0.169 C 
ATOM     14  C   LIG    1       24.578 -13.516   4.766  0.00  0.00    +0.007 C 
ATOM     15  C   LIG    1       23.987 -14.499   4.086  0.00  0.00    +0.025 C 
BRANCH  13  16
ATOM     16  C   LIG    1       26.941 -13.391   5.736  0.00  0.00    +0.191 C 
BRANCH  16  17
ATOM     17  O   LIG    1       28.083 -12.577   5.470  0.00  0.00    -0.392 OA
ATOM     18  H   LIG    1       27.961 -12.258   4.556  0.00  0.00    +0.209 HD
ENDBRANCH  16  17
ENDBRANCH  13  16
ENDBRANCH   9  11
TORSDOF 3
ENDMDL
MODEL 5
REMARK VINA RESULT:      -3.4      2.658      4.938
REMARK  Name = *****
REMARK                            x       y       z     vdW  Elec       q    Type
REMARK                         _______ _______ _______ _____ _____    ______ ____
ROOT
ATOM      1  C   LIG    1       29.057 -18.491   5.208  0.00  0.00    +0.051 C 
ATOM      2  C   LIG    1       27.805 -19.295   5.325  0.00  0.00    +0.030 C 
ATOM      3  C   LIG    1       27.792 -20.415   6.291  0.00  0.00    +0.257 C 
ATOM      4  O   LIG    1       28.769 -20.686   6.987  0.00  0.00    -0.267 OA
ATOM      5  N   LIG    1       26.629 -21.123   6.370  0.00  0.00    -0.275 N 
ATOM      6  H   LIG    1       26.599 -21.883   7.029  0.00  0.00    +0.173 HD
ATOM      7  C   LIG    1       25.479 -20.878   5.661  0.00  0.00    +0.332 C 
ATOM      8  O   LIG    1       24.485 -21.572   5.857  0.00  0.00    -0.246 OA
ATOM      9  N   LIG    1       25.544 -19.826   4.762  0.00  0.00    -0.270 N 
ATOM     10  C   LIG    1       26.694 -19.066   4.617  0.00  0.00    +0.102 C 
ENDROOT
BRANCH   9  11
ATOM     11  C   LIG    1       24.352 -19.533   3.983  0.00  0.00    +0.248 C 
ATOM     12  O   LIG    1       24.240 -18.106   3.779  0.00  0.00    -0.343 OA
ATOM     13  C   LIG    1       22.838 -17.766   3.911  0.00  0.00    +0.169 C 
ATOM     14  C   LIG    1       22.257 -18.885   4.706  0.00  0.00    +0.007 C 
ATOM     15  C   LIG    1       23.116 -19.905   4.727  0.00  0.00    +0.025 C 
BRANCH  13  16
ATOM     16  C   LIG    1       22.707 -16.373   4.538  0.00  0.00    +0.191 C 
BRANCH  16  17
ATOM     17  O   LIG    1       23.760 -15.501   4.126  0.00  0.00    -0.392 OA
ATOM     18  H   LIG    1       24.471 -16.090   3.812  0.00  0.00    +0.209 HD
ENDBRANCH  16  17
ENDBRANCH  13  16
ENDBRANCH   9  11
TORSDOF 3
ENDMDL
MODEL 6
REMARK VINA RESULT:      -3.4      2.561      5.660
REMARK  Name = *****
REMARK                            x       y       z     vdW  Elec       q    Type
REMARK                         _______ _______ _______ _____ _____    ______ ____
ROOT
ATOM      1  C   LIG    1       29.070 -19.763   6.463  0.00  0.00    +0.051 C 
ATOM      2  C   LIG    1       27.806 -19.620   5.683  0.00  0.00    +0.030 C 
ATOM      3  C   LIG    1       26.750 -20.636   5.888  0.00  0.00    +0.257 C 
ATOM      4  O   LIG    1       26.890 -21.571   6.674  0.00  0.00    -0.267 OA
ATOM      5  N   LIG    1       25.609 -20.467   5.159  0.00  0.00    -0.275 N 
ATOM      6  H   LIG    1       24.877 -21.144   5.293  0.00  0.00    +0.173 HD
ATOM      7  C   LIG    1       25.348 -19.442   4.284  0.00  0.00    +0.332 C 
ATOM      8  O   LIG    1       24.259 -19.388   3.718  0.00  0.00    -0.246 OA
ATOM      9  N   LIG    1       26.371 -18.522   4.119  0.00  0.00    -0.270 N 
ATOM     10  C   LIG    1       27.564 -18.631   4.816  0.00  0.00    +0.102 C 
ENDROOT
BRANCH   9  11
ATOM     11  C   LIG    1       26.142 -17.423   3.196  0.00  0.00    +0.248 C 
ATOM     12  O   LIG    1       27.259 -16.505   3.244  0.00  0.00    -0.343 OA
ATOM     13  C   LIG    1       26.713 -15.166   3.168  0.00  0.00    +0.169 C 
ATOM     14  C   LIG    1       25.298 -15.314   3.616  0.00  0.00    +0.007 C 
ATOM     15  C   LIG    1       24.966 -16.606   3.609  0.00  0.00    +0.025 C 
BRANCH  13  16
ATOM     16  C   LIG    1       27.574 -14.215   4.007  0.00  0.00    +0.191 C 
BRANCH  16  17
ATOM     17  O   LIG    1       28.299 -13.291   3.193  0.00  0.00    -0.392 OA
ATOM     18  H   LIG    1       27.638 -12.636   2.901  0.00  0.00    +0.209 HD
ENDBRANCH  16  17
ENDBRANCH  13  16
ENDBRANCH   9  11
TORSDOF 3
ENDMDL
MODEL 7
REMARK VINA RESULT:      -3.3      2.001      5.526
REMARK  Name = *****
REMARK                            x       y       z     vdW  Elec       q    Type
REMARK                         _______ _______ _______ _____ _____    ______ ____
ROOT
ATOM      1  C   LIG    1       24.597 -19.719   3.565  0.00  0.00    +0.051 C 
ATOM      2  C   LIG    1       24.610 -18.229   3.664  0.00  0.00    +0.030 C 
ATOM      3  C   LIG    1       23.398 -17.562   4.186  0.00  0.00    +0.257 C 
ATOM      4  O   LIG    1       22.405 -18.196   4.538  0.00  0.00    -0.267 OA
ATOM      5  N   LIG    1       23.452 -16.200   4.263  0.00  0.00    -0.275 N 
ATOM      6  H   LIG    1       22.639 -15.731   4.626  0.00  0.00    +0.173 HD
ATOM      7  C   LIG    1       24.522 -15.409   3.927  0.00  0.00    +0.332 C 
ATOM      8  O   LIG    1       24.451 -14.193   4.082  0.00  0.00    -0.246 OA
ATOM      9  N   LIG    1       25.630 -16.080   3.433  0.00  0.00    -0.270 N 
ATOM     10  C   LIG    1       25.648 -17.460   3.315  0.00  0.00    +0.102 C 
ENDROOT
BRANCH   9  11
ATOM     11  C   LIG    1       26.785 -15.282   3.056  0.00  0.00    +0.248 C 
ATOM     12  O   LIG    1       27.511 -14.885   4.241  0.00  0.00    -0.343 OA
ATOM     13  C   LIG    1       27.944 -13.518   4.039  0.00  0.00    +0.169 C 
ATOM     14  C   LIG    1       27.018 -12.985   2.999  0.00  0.00    +0.007 C 
ATOM     15  C   LIG    1       26.371 -13.999   2.421  0.00  0.00    +0.025 C 
BRANCH  13  16
ATOM     16  C   LIG    1       27.932 -12.774   5.378  0.00  0.00    +0.191 C 
BRANCH  16  17
ATOM     17  O   LIG    1       29.047 -11.892   5.510  0.00  0.00    -0.392 OA
ATOM     18  H   LIG    1       29.119 -11.714   6.467  0.00  0.00    +0.209 HD
ENDBRANCH  16  17
ENDBRANCH  13  16
ENDBRANCH   9  11
TORSDOF 3
ENDMDL
MODEL 8
REMARK VINA RESULT:      -3.2      2.465      5.837
REMARK  Name = *****
REMARK                            x       y       z     vdW  Elec       q    Type
REMARK                         _______ _______ _______ _____ _____    ______ ____
ROOT
ATOM      1  C   LIG    1       23.593 -19.476   3.432  0.00  0.00    +0.051 C 
ATOM      2  C   LIG    1       24.961 -18.993   3.779  0.00  0.00    +0.030 C 
ATOM      3  C   LIG    1       25.836 -19.898   4.556  0.00  0.00    +0.257 C 
ATOM      4  O   LIG    1       25.467 -21.017   4.908  0.00  0.00    -0.267 OA
ATOM      5  N   LIG    1       27.080 -19.420   4.850  0.00  0.00    -0.275 N 
ATOM      6  H   LIG    1       27.692 -20.027   5.370  0.00  0.00    +0.173 HD
ATOM      7  C   LIG    1       27.593 -18.204   4.474  0.00  0.00    +0.332 C 
ATOM      8  O   LIG    1       28.747 -17.912   4.773  0.00  0.00    -0.246 OA
ATOM      9  N   LIG    1       26.732 -17.388   3.757  0.00  0.00    -0.270 N 
ATOM     10  C   LIG    1       25.450 -17.798   3.429  0.00  0.00    +0.102 C 
ENDROOT
BRANCH   9  11
ATOM     11  C   LIG    1       27.229 -16.086   3.344  0.00  0.00    +0.248 C 
ATOM     12  O   LIG    1       27.712 -15.359   4.498  0.00  0.00    -0.343 OA
ATOM     13  C   LIG    1       27.309 -13.978   4.331  0.00  0.00    +0.169 C 
ATOM     14  C   LIG    1       26.163 -14.037   3.379  0.00  0.00    +0.007 C 
ATOM     15  C   LIG    1       26.132 -15.237   2.798  0.00  0.00    +0.025 C 
BRANCH  13  16
ATOM     16  C   LIG    1       26.998 -13.368   5.702  0.00  0.00    +0.191 C 
BRANCH  16  17
ATOM     17  O   LIG    1       25.810 -12.575   5.677  0.00  0.00    -0.392 OA
ATOM     18  H   LIG    1       25.314 -12.834   6.476  0.00  0.00    +0.209 HD
ENDBRANCH  16  17
ENDBRANCH  13  16
ENDBRANCH   9  11
TORSDOF 3
ENDMDL
MODEL 9
REMARK VINA RESULT:      -3.0      2.088      5.947
REMARK  Name = *****
REMARK                            x       y       z     vdW  Elec       q    Type
REMARK                         _______ _______ _______ _____ _____    ______ ____
ROOT
ATOM      1  C   LIG    1       21.984 -17.976   4.199  0.00  0.00    +0.051 C 
ATOM      2  C   LIG    1       23.435 -17.717   3.965  0.00  0.00    +0.030 C 
ATOM      3  C   LIG    1       24.297 -18.873   3.633  0.00  0.00    +0.257 C 
ATOM      4  O   LIG    1       23.850 -20.015   3.544  0.00  0.00    -0.267 OA
ATOM      5  N   LIG    1       25.616 -18.593   3.424  0.00  0.00    -0.275 N 
ATOM      6  H   LIG    1       26.216 -19.367   3.188  0.00  0.00    +0.173 HD
ATOM      7  C   LIG    1       26.201 -17.352   3.468  0.00  0.00    +0.332 C 
ATOM      8  O   LIG    1       27.398 -17.235   3.220  0.00  0.00    -0.246 OA
ATOM      9  N   LIG    1       25.355 -16.304   3.792  0.00  0.00    -0.270 N 
ATOM     10  C   LIG    1       24.005 -16.508   4.030  0.00  0.00    +0.102 C 
ENDROOT
BRANCH   9  11
ATOM     11  C   LIG    1       25.932 -14.971   3.859  0.00  0.00    +0.248 C 
ATOM     12  O   LIG    1       24.940 -14.034   4.338  0.00  0.00    -0.343 OA
ATOM     13  C   LIG    1       25.103 -12.815   3.573  0.00  0.00    +0.169 C 
ATOM     14  C   LIG    1       25.803 -13.246   2.329  0.00  0.00    +0.007 C 
ATOM     15  C   LIG    1       26.297 -14.472   2.503  0.00  0.00    +0.025 C 
BRANCH  13  16
ATOM     16  C   LIG    1       23.734 -12.156   3.365  0.00  0.00    +0.191 C 
BRANCH  16  17
ATOM     17  O   LIG    1       23.665 -11.448   2.127  0.00  0.00    -0.392 OA
ATOM     18  H   LIG    1       24.378 -10.784   2.172  0.00  0.00    +0.209 HD
ENDBRANCH  16  17
ENDBRANCH  13  16
ENDBRANCH   9  11
TORSDOF 3
ENDMDL
