MODEL 1
REMARK VINA RESULT:      -7.5      0.000      0.000
REMARK  Name = *****
REMARK                            x       y       z     vdW  Elec       q    Type
REMARK                         _______ _______ _______ _____ _____    ______ ____
ROOT
ATOM      1  C   LIG    1       27.653 -21.818   7.530  0.00  0.00    +0.240 C 
ENDROOT
BRANCH   1   2
ATOM      2  O   LIG    1       27.191 -23.349   6.844  0.00  0.00    -0.456 OA
BRANCH   2   3
ATOM      3  C   LIG    1       25.921 -24.070   6.561  0.00  0.00    +0.307 C 
ATOM      4  O   LIG    1       24.866 -23.920   7.191  0.00  0.00    -0.251 OA
BRANCH   3   5
ATOM      5  C   LIG    1       25.829 -25.447   5.791  0.00  0.00    +0.120 C 
BRANCH   5   6
ATOM      6  C   LIG    1       24.618 -26.335   6.208  0.00  0.00    +0.011 C 
BRANCH   6   7
ATOM      7  C   LIG    1       24.955 -27.785   5.908  0.00  0.00    +0.000 C 
BRANCH   7   8
ATOM      8  C   LIG    1       24.151 -28.894   6.666  0.00  0.00    +0.000 C 
BRANCH   8   9
ATOM      9  C   LIG    1       24.844 -29.643   7.902  0.00  0.00    -0.000 C 
BRANCH   9  10
ATOM     10  C   LIG    1       25.925 -28.740   8.582  0.00  0.00    -0.000 C 
BRANCH  10  11
ATOM     11  C   LIG    1       26.454 -28.959  10.027  0.00  0.00    -0.000 C 
BRANCH  11  12
ATOM     12  C   LIG    1       25.650 -29.662  11.157  0.00  0.00    -0.000 C 
BRANCH  12  13
ATOM     13  C   LIG    1       24.299 -29.104  11.674  0.00  0.00    -0.000 C 
BRANCH  13  14
ATOM     14  C   LIG    1       24.341 -28.562  13.094  0.00  0.00    -0.000 C 
BRANCH  14  15
ATOM     15  C   LIG    1       23.957 -26.972  13.172  0.00  0.00    -0.000 C 
BRANCH  15  16
ATOM     16  C   LIG    1       22.516 -26.455  13.403  0.00  0.00    -0.003 C 
ATOM     17  C   LIG    1       21.075 -26.788  13.110  0.00  0.00    +0.004 C 
ENDBRANCH  15  16
ENDBRANCH  14  15
ENDBRANCH  13  14
ENDBRANCH  12  13
ENDBRANCH  11  12
ENDBRANCH  10  11
ENDBRANCH   9  10
ENDBRANCH   8   9
ENDBRANCH   7   8
ENDBRANCH   6   7
ENDBRANCH   5   6
ENDBRANCH   3   5
ENDBRANCH   2   3
ENDBRANCH   1   2
BRANCH   1  18
ATOM     18  C   LIG    1       27.217 -20.391   6.990  0.00  0.00    +0.279 C 
BRANCH  18  19
ATOM     19  O   LIG    1       25.904 -20.215   7.167  0.00  0.00    -0.461 OA
BRANCH  19  20
ATOM     20  C   LIG    1       25.403 -20.715   8.284  0.00  0.00    +0.307 C 
ATOM     21  O   LIG    1       26.005 -20.303   9.520  0.00  0.00    -0.251 OA
BRANCH  20  22
ATOM     22  C   LIG    1       24.191 -21.364   8.256  0.00  0.00    +0.120 C 
BRANCH  22  23
ATOM     23  C   LIG    1       23.313 -20.655   7.225  0.00  0.00    +0.011 C 
BRANCH  23  24
ATOM     24  C   LIG    1       22.844 -21.526   5.994  0.00  0.00    +0.000 C 
BRANCH  24  25
ATOM     25  C   LIG    1       23.632 -21.467   4.638  0.00  0.00    +0.000 C 
BRANCH  25  26
ATOM     26  C   LIG    1       24.399 -20.181   4.068  0.00  0.00    -0.000 C 
BRANCH  26  27
ATOM     27  C   LIG    1       23.779 -18.810   3.656  0.00  0.00    -0.000 C 
BRANCH  27  28
ATOM     28  C   LIG    1       22.468 -18.401   4.483  0.00  0.00    -0.000 C 
BRANCH  28  29
ATOM     29  C   LIG    1       22.238 -16.870   4.748  0.00  0.00    -0.000 C 
BRANCH  29  30
ATOM     30  C   LIG    1       23.225 -15.886   4.012  0.00  0.00    -0.000 C 
BRANCH  30  31
ATOM     31  C   LIG    1       23.585 -14.571   4.775  0.00  0.00    -0.000 C 
BRANCH  31  32
ATOM     32  C   LIG    1       24.557 -13.579   4.042  0.00  0.00    -0.000 C 
BRANCH  32  34
ATOM     33  C   LIG    1       27.039 -13.899   4.768  0.00  0.00    +0.004 C 
ATOM     34  C   LIG    1       25.958 -14.118   3.697  0.00  0.00    -0.003 C 
ENDBRANCH  32  34
ENDBRANCH  31  32
ENDBRANCH  30  31
ENDBRANCH  29  30
ENDBRANCH  28  29
ENDBRANCH  27  28
ENDBRANCH  26  27
ENDBRANCH  25  26
ENDBRANCH  24  25
ENDBRANCH  23  24
ENDBRANCH  22  23
ENDBRANCH  20  22
ENDBRANCH  19  20
ENDBRANCH  18  19
ENDBRANCH   1  18
BRANCH   1  35
ATOM     35  C   LIG    1       29.187 -21.780   7.591  0.00  0.00    +0.220 C 
BRANCH  35  36
ATOM     36  O   LIG    1       29.636 -21.119   8.774  0.00  0.00    -0.283 OA
BRANCH  36  37
ATOM     37  P   LIG    1       31.133 -21.523   9.129  0.00  0.00    +0.475 P 
ATOM     38  O   LIG    1       30.700 -22.330  10.332  0.00  0.00    -0.227 OA
BRANCH  37  39
ATOM     39  O   LIG    1       32.069 -22.617   8.443  0.00  0.00    -0.302 OA
ATOM     40  H   LIG    1       31.684 -23.434   8.074  0.00  0.00    +0.222 HD
ENDBRANCH  37  39
BRANCH  37  41
ATOM     41  O   LIG    1       31.905 -20.029   8.927  0.00  0.00    -0.284 OA
BRANCH  41  42
ATOM     42  C   LIG    1       31.729 -18.571   8.479  0.00  0.00    +0.205 C 
BRANCH  42  43
ATOM     43  C   LIG    1       31.491 -17.497   9.584  0.00  0.00    +0.166 C 
BRANCH  43  44
ATOM     44  O   LIG    1       32.659 -17.542  10.391  0.00  0.00    -0.387 OA
ATOM     45  H   LIG    1       33.160 -18.348  10.212  0.00  0.00    +0.210 HD
ENDBRANCH  43  44
BRANCH  43  46
ATOM     46  C   LIG    1       30.383 -17.422  10.663  0.00  0.00    +0.189 C 
BRANCH  46  47
ATOM     47  O   LIG    1       30.421 -16.244  11.461  0.00  0.00    -0.392 OA
ATOM     48  H   LIG    1       31.093 -16.424  12.154  0.00  0.00    +0.209 HD
ENDBRANCH  46  47
ENDBRANCH  43  46
ENDBRANCH  42  43
ENDBRANCH  41  42
ENDBRANCH  37  41
ENDBRANCH  36  37
ENDBRANCH  35  36
ENDBRANCH   1  35
TORSDOF 39
ENDMDL
MODEL 2
REMARK VINA RESULT:      -7.5      1.473      2.499
REMARK  Name = *****
REMARK                            x       y       z     vdW  Elec       q    Type
REMARK                         _______ _______ _______ _____ _____    ______ ____
ROOT
ATOM      1  C   LIG    1       26.909 -21.811   7.597  0.00  0.00    +0.240 C 
ENDROOT
BRANCH   1   2
ATOM      2  O   LIG    1       26.662 -23.315   6.757  0.00  0.00    -0.456 OA
BRANCH   2   3
ATOM      3  C   LIG    1       25.502 -24.159   6.366  0.00  0.00    +0.307 C 
ATOM      4  O   LIG    1       24.388 -24.127   6.908  0.00  0.00    -0.251 OA
BRANCH   3   5
ATOM      5  C   LIG    1       25.616 -25.528   5.585  0.00  0.00    +0.120 C 
BRANCH   5   6
ATOM      6  C   LIG    1       24.348 -26.429   5.679  0.00  0.00    +0.011 C 
BRANCH   6   7
ATOM      7  C   LIG    1       24.775 -27.881   5.551  0.00  0.00    +0.000 C 
BRANCH   7   8
ATOM      8  C   LIG    1       23.990 -28.949   6.384  0.00  0.00    +0.000 C 
BRANCH   8   9
ATOM      9  C   LIG    1       24.706 -30.341   6.727  0.00  0.00    -0.000 C 
BRANCH   9  10
ATOM     10  C   LIG    1       25.702 -30.190   7.924  0.00  0.00    -0.000 C 
BRANCH  10  11
ATOM     11  C   LIG    1       25.590 -29.083   9.010  0.00  0.00    -0.000 C 
BRANCH  11  12
ATOM     12  C   LIG    1       26.778 -28.591   9.885  0.00  0.00    -0.000 C 
BRANCH  12  13
ATOM     13  C   LIG    1       26.799 -28.778  11.423  0.00  0.00    -0.000 C 
BRANCH  13  14
ATOM     14  C   LIG    1       25.562 -28.261  12.140  0.00  0.00    -0.000 C 
BRANCH  14  15
ATOM     15  C   LIG    1       24.439 -29.429  12.380  0.00  0.00    -0.000 C 
BRANCH  15  16
ATOM     16  C   LIG    1       23.290 -29.721  11.385  0.00  0.00    -0.003 C 
ATOM     17  C   LIG    1       22.783 -30.775  10.432  0.00  0.00    +0.004 C 
ENDBRANCH  15  16
ENDBRANCH  14  15
ENDBRANCH  13  14
ENDBRANCH  12  13
ENDBRANCH  11  12
ENDBRANCH  10  11
ENDBRANCH   9  10
ENDBRANCH   8   9
ENDBRANCH   7   8
ENDBRANCH   6   7
ENDBRANCH   5   6
ENDBRANCH   3   5
ENDBRANCH   2   3
ENDBRANCH   1   2
BRANCH   1  18
ATOM     18  C   LIG    1       26.274 -20.412   7.199  0.00  0.00    +0.279 C 
BRANCH  18  19
ATOM     19  O   LIG    1       25.374 -20.577   6.225  0.00  0.00    -0.461 OA
BRANCH  19  20
ATOM     20  C   LIG    1       24.142 -20.842   6.621  0.00  0.00    +0.307 C 
ATOM     21  O   LIG    1       23.849 -20.687   8.018  0.00  0.00    -0.251 OA
BRANCH  20  22
ATOM     22  C   LIG    1       23.140 -20.975   5.688  0.00  0.00    +0.120 C 
BRANCH  22  23
ATOM     23  C   LIG    1       22.482 -19.605   5.522  0.00  0.00    +0.011 C 
BRANCH  23  24
ATOM     24  C   LIG    1       22.764 -18.860   4.158  0.00  0.00    +0.000 C 
BRANCH  24  25
ATOM     25  C   LIG    1       24.043 -19.206   3.318  0.00  0.00    +0.000 C 
BRANCH  25  26
ATOM     26  C   LIG    1       25.478 -18.511   3.486  0.00  0.00    -0.000 C 
BRANCH  26  27
ATOM     27  C   LIG    1       25.832 -17.005   3.288  0.00  0.00    -0.000 C 
BRANCH  27  28
ATOM     28  C   LIG    1       27.282 -16.589   3.828  0.00  0.00    -0.000 C 
BRANCH  28  29
ATOM     29  C   LIG    1       27.654 -15.064   3.778  0.00  0.00    -0.000 C 
BRANCH  29  30
ATOM     30  C   LIG    1       26.500 -14.058   4.155  0.00  0.00    -0.000 C 
BRANCH  30  31
ATOM     31  C   LIG    1       25.588 -13.581   2.980  0.00  0.00    -0.000 C 
BRANCH  31  32
ATOM     32  C   LIG    1       24.039 -13.714   3.197  0.00  0.00    -0.000 C 
BRANCH  32  34
ATOM     33  C   LIG    1       22.833 -15.473   4.696  0.00  0.00    +0.004 C 
ATOM     34  C   LIG    1       23.576 -14.129   4.606  0.00  0.00    -0.003 C 
ENDBRANCH  32  34
ENDBRANCH  31  32
ENDBRANCH  30  31
ENDBRANCH  29  30
ENDBRANCH  28  29
ENDBRANCH  27  28
ENDBRANCH  26  27
ENDBRANCH  25  26
ENDBRANCH  24  25
ENDBRANCH  23  24
ENDBRANCH  22  23
ENDBRANCH  20  22
ENDBRANCH  19  20
ENDBRANCH  18  19
ENDBRANCH   1  18
BRANCH   1  35
ATOM     35  C   LIG    1       28.423 -21.565   7.675  0.00  0.00    +0.220 C 
BRANCH  35  36
ATOM     36  O   LIG    1       28.703 -20.220   8.061  0.00  0.00    -0.283 OA
BRANCH  36  37
ATOM     37  P   LIG    1       30.256 -20.009   8.335  0.00  0.00    +0.475 P 
ATOM     38  O   LIG    1       30.442 -21.448   8.761  0.00  0.00    -0.227 OA
BRANCH  37  39
ATOM     39  O   LIG    1       31.458 -19.920   7.291  0.00  0.00    -0.302 OA
ATOM     40  H   LIG    1       31.697 -19.066   6.885  0.00  0.00    +0.222 HD
ENDBRANCH  37  39
BRANCH  37  41
ATOM     41  O   LIG    1       30.220 -18.531   9.161  0.00  0.00    -0.284 OA
BRANCH  41  42
ATOM     42  C   LIG    1       30.715 -17.077   9.163  0.00  0.00    +0.205 C 
BRANCH  42  43
ATOM     43  C   LIG    1       32.227 -16.827   9.446  0.00  0.00    +0.166 C 
BRANCH  43  44
ATOM     44  O   LIG    1       32.580 -17.801  10.416  0.00  0.00    -0.387 OA
ATOM     45  H   LIG    1       33.479 -18.118  10.262  0.00  0.00    +0.210 HD
ENDBRANCH  43  44
BRANCH  43  46
ATOM     46  C   LIG    1       32.927 -15.569  10.015  0.00  0.00    +0.189 C 
BRANCH  46  47
ATOM     47  O   LIG    1       32.801 -15.413  11.424  0.00  0.00    -0.392 OA
ATOM     48  H   LIG    1       32.264 -16.179  11.720  0.00  0.00    +0.209 HD
ENDBRANCH  46  47
ENDBRANCH  43  46
ENDBRANCH  42  43
ENDBRANCH  41  42
ENDBRANCH  37  41
ENDBRANCH  36  37
ENDBRANCH  35  36
ENDBRANCH   1  35
TORSDOF 39
ENDMDL
MODEL 3
REMARK VINA RESULT:      -7.4      1.420      9.976
REMARK  Name = *****
REMARK                            x       y       z     vdW  Elec       q    Type
REMARK                         _______ _______ _______ _____ _____    ______ ____
ROOT
ATOM      1  C   LIG    1       26.526 -21.762   6.872  0.00  0.00    +0.240 C 
ENDROOT
BRANCH   1   2
ATOM      2  O   LIG    1       25.237 -20.628   7.157  0.00  0.00    -0.456 OA
BRANCH   2   3
ATOM      3  C   LIG    1       23.750 -20.665   7.194  0.00  0.00    +0.307 C 
ATOM      4  O   LIG    1       23.078 -21.420   7.909  0.00  0.00    -0.251 OA
BRANCH   3   5
ATOM      5  C   LIG    1       22.816 -20.148   6.029  0.00  0.00    +0.120 C 
BRANCH   5   6
ATOM      6  C   LIG    1       23.254 -20.602   4.605  0.00  0.00    +0.011 C 
BRANCH   6   7
ATOM      7  C   LIG    1       24.034 -19.473   3.955  0.00  0.00    +0.000 C 
BRANCH   7   8
ATOM      8  C   LIG    1       25.549 -19.715   3.644  0.00  0.00    +0.000 C 
BRANCH   8   9
ATOM      9  C   LIG    1       26.593 -18.529   3.915  0.00  0.00    -0.000 C 
BRANCH   9  10
ATOM     10  C   LIG    1       26.014 -17.147   3.465  0.00  0.00    -0.000 C 
BRANCH  10  11
ATOM     11  C   LIG    1       26.891 -15.915   3.104  0.00  0.00    -0.000 C 
BRANCH  11  12
ATOM     12  C   LIG    1       27.350 -14.836   4.125  0.00  0.00    -0.000 C 
BRANCH  12  13
ATOM     13  C   LIG    1       26.365 -13.798   4.721  0.00  0.00    -0.000 C 
BRANCH  13  14
ATOM     14  C   LIG    1       25.104 -13.578   3.901  0.00  0.00    -0.000 C 
BRANCH  14  15
ATOM     15  C   LIG    1       23.755 -14.101   4.668  0.00  0.00    -0.000 C 
BRANCH  15  16
ATOM     16  C   LIG    1       23.026 -15.418   4.304  0.00  0.00    -0.003 C 
ATOM     17  C   LIG    1       22.239 -16.548   4.918  0.00  0.00    +0.004 C 
ENDBRANCH  15  16
ENDBRANCH  14  15
ENDBRANCH  13  14
ENDBRANCH  12  13
ENDBRANCH  11  12
ENDBRANCH  10  11
ENDBRANCH   9  10
ENDBRANCH   8   9
ENDBRANCH   7   8
ENDBRANCH   6   7
ENDBRANCH   5   6
ENDBRANCH   3   5
ENDBRANCH   2   3
ENDBRANCH   1   2
BRANCH   1  18
ATOM     18  C   LIG    1       26.399 -23.343   6.932  0.00  0.00    +0.279 C 
BRANCH  18  19
ATOM     19  O   LIG    1       25.183 -23.690   7.363  0.00  0.00    -0.461 OA
BRANCH  19  20
ATOM     20  C   LIG    1       24.488 -24.470   6.553  0.00  0.00    +0.307 C 
ATOM     21  O   LIG    1       23.065 -24.508   6.733  0.00  0.00    -0.251 OA
BRANCH  20  22
ATOM     22  C   LIG    1       25.083 -24.981   5.424  0.00  0.00    +0.120 C 
BRANCH  22  23
ATOM     23  C   LIG    1       24.738 -26.469   5.356  0.00  0.00    +0.011 C 
BRANCH  23  24
ATOM     24  C   LIG    1       25.434 -27.393   6.431  0.00  0.00    +0.000 C 
BRANCH  24  25
ATOM     25  C   LIG    1       24.756 -28.737   6.876  0.00  0.00    +0.000 C 
BRANCH  25  26
ATOM     26  C   LIG    1       24.868 -29.393   8.334  0.00  0.00    -0.000 C 
BRANCH  26  27
ATOM     27  C   LIG    1       25.989 -30.338   8.867  0.00  0.00    -0.000 C 
BRANCH  27  28
ATOM     28  C   LIG    1       27.004 -29.647   9.897  0.00  0.00    -0.000 C 
BRANCH  28  29
ATOM     29  C   LIG    1       26.515 -28.339  10.616  0.00  0.00    -0.000 C 
BRANCH  29  30
ATOM     30  C   LIG    1       27.080 -28.096  12.068  0.00  0.00    -0.000 C 
BRANCH  30  31
ATOM     31  C   LIG    1       26.045 -27.645  13.146  0.00  0.00    -0.000 C 
BRANCH  31  32
ATOM     32  C   LIG    1       24.532 -27.694  12.729  0.00  0.00    -0.000 C 
BRANCH  32  34
ATOM     33  C   LIG    1       22.084 -26.946  13.221  0.00  0.00    +0.004 C 
ATOM     34  C   LIG    1       23.587 -26.720  13.457  0.00  0.00    -0.003 C 
ENDBRANCH  32  34
ENDBRANCH  31  32
ENDBRANCH  30  31
ENDBRANCH  29  30
ENDBRANCH  28  29
ENDBRANCH  27  28
ENDBRANCH  26  27
ENDBRANCH  25  26
ENDBRANCH  24  25
ENDBRANCH  23  24
ENDBRANCH  22  23
ENDBRANCH  20  22
ENDBRANCH  19  20
ENDBRANCH  18  19
ENDBRANCH   1  18
BRANCH   1  35
ATOM     35  C   LIG    1       27.676 -21.409   7.826  0.00  0.00    +0.220 C 
BRANCH  35  36
ATOM     36  O   LIG    1       28.611 -20.532   7.197  0.00  0.00    -0.283 OA
BRANCH  36  37
ATOM     37  P   LIG    1       29.913 -20.340   8.090  0.00  0.00    +0.475 P 
ATOM     38  O   LIG    1       29.791 -21.726   8.682  0.00  0.00    -0.227 OA
BRANCH  37  39
ATOM     39  O   LIG    1       31.447 -20.408   7.659  0.00  0.00    -0.302 OA
ATOM     40  H   LIG    1       31.758 -21.102   7.048  0.00  0.00    +0.222 HD
ENDBRANCH  37  39
BRANCH  37  41
ATOM     41  O   LIG    1       29.645 -18.777   8.684  0.00  0.00    -0.284 OA
BRANCH  41  42
ATOM     42  C   LIG    1       30.292 -17.419   8.993  0.00  0.00    +0.205 C 
BRANCH  42  43
ATOM     43  C   LIG    1       31.013 -17.254  10.365  0.00  0.00    +0.166 C 
BRANCH  43  44
ATOM     44  O   LIG    1       30.070 -16.588  11.192  0.00  0.00    -0.387 OA
ATOM     45  H   LIG    1       29.295 -17.145  11.334  0.00  0.00    +0.210 HD
ENDBRANCH  43  44
BRANCH  43  46
ATOM     46  C   LIG    1       32.311 -16.485  10.710  0.00  0.00    +0.189 C 
BRANCH  46  47
ATOM     47  O   LIG    1       32.266 -15.781  11.946  0.00  0.00    -0.392 OA
ATOM     48  H   LIG    1       31.625 -15.051  11.802  0.00  0.00    +0.209 HD
ENDBRANCH  46  47
ENDBRANCH  43  46
ENDBRANCH  42  43
ENDBRANCH  41  42
ENDBRANCH  37  41
ENDBRANCH  36  37
ENDBRANCH  35  36
ENDBRANCH   1  35
TORSDOF 39
ENDMDL
MODEL 4
REMARK VINA RESULT:      -7.3      1.453      3.812
REMARK  Name = *****
REMARK                            x       y       z     vdW  Elec       q    Type
REMARK                         _______ _______ _______ _____ _____    ______ ____
ROOT
ATOM      1  C   LIG    1       28.164 -20.606   6.938  0.00  0.00    +0.240 C 
ENDROOT
BRANCH   1   2
ATOM      2  O   LIG    1       27.532 -22.227   6.987  0.00  0.00    -0.456 OA
BRANCH   2   3
ATOM      3  C   LIG    1       26.271 -22.885   7.421  0.00  0.00    +0.307 C 
ATOM      4  O   LIG    1       25.656 -22.619   8.462  0.00  0.00    -0.251 OA
BRANCH   3   5
ATOM      5  C   LIG    1       25.791 -24.308   6.930  0.00  0.00    +0.120 C 
BRANCH   5   6
ATOM      6  C   LIG    1       24.263 -24.406   6.641  0.00  0.00    +0.011 C 
BRANCH   6   7
ATOM      7  C   LIG    1       23.983 -25.734   5.959  0.00  0.00    +0.000 C 
BRANCH   7   8
ATOM      8  C   LIG    1       25.142 -26.784   5.903  0.00  0.00    +0.000 C 
BRANCH   8   9
ATOM      9  C   LIG    1       24.788 -28.336   6.094  0.00  0.00    -0.000 C 
BRANCH   9  10
ATOM     10  C   LIG    1       25.034 -28.800   7.568  0.00  0.00    -0.000 C 
BRANCH  10  11
ATOM     11  C   LIG    1       26.197 -28.280   8.458  0.00  0.00    -0.000 C 
BRANCH  11  12
ATOM     12  C   LIG    1       26.780 -29.051   9.677  0.00  0.00    -0.000 C 
BRANCH  12  13
ATOM     13  C   LIG    1       25.869 -29.717  10.740  0.00  0.00    -0.000 C 
BRANCH  13  14
ATOM     14  C   LIG    1       25.310 -28.761  11.782  0.00  0.00    -0.000 C 
BRANCH  14  15
ATOM     15  C   LIG    1       23.888 -29.277  12.410  0.00  0.00    -0.000 C 
BRANCH  15  16
ATOM     16  C   LIG    1       22.667 -29.669  11.543  0.00  0.00    -0.003 C 
ATOM     17  C   LIG    1       22.263 -30.560  10.395  0.00  0.00    +0.004 C 
ENDBRANCH  15  16
ENDBRANCH  14  15
ENDBRANCH  13  14
ENDBRANCH  12  13
ENDBRANCH  11  12
ENDBRANCH  10  11
ENDBRANCH   9  10
ENDBRANCH   8   9
ENDBRANCH   7   8
ENDBRANCH   6   7
ENDBRANCH   5   6
ENDBRANCH   3   5
ENDBRANCH   2   3
ENDBRANCH   1   2
BRANCH   1  18
ATOM     18  C   LIG    1       28.128 -19.634   5.685  0.00  0.00    +0.279 C 
BRANCH  18  19
ATOM     19  O   LIG    1       26.927 -19.684   5.100  0.00  0.00    -0.461 OA
BRANCH  19  20
ATOM     20  C   LIG    1       26.705 -18.774   4.168  0.00  0.00    +0.307 C 
ATOM     21  O   LIG    1       25.522 -18.922   3.368  0.00  0.00    -0.251 OA
BRANCH  20  22
ATOM     22  C   LIG    1       27.424 -17.602   4.175  0.00  0.00    +0.120 C 
BRANCH  22  23
ATOM     23  C   LIG    1       26.583 -16.542   3.464  0.00  0.00    +0.011 C 
BRANCH  23  24
ATOM     24  C   LIG    1       27.183 -15.081   3.437  0.00  0.00    +0.000 C 
BRANCH  24  25
ATOM     25  C   LIG    1       26.638 -13.984   4.417  0.00  0.00    +0.000 C 
BRANCH  25  26
ATOM     26  C   LIG    1       25.090 -13.653   4.668  0.00  0.00    -0.000 C 
BRANCH  26  27
ATOM     27  C   LIG    1       23.860 -14.229   3.901  0.00  0.00    -0.000 C 
BRANCH  27  28
ATOM     28  C   LIG    1       23.030 -15.333   4.714  0.00  0.00    -0.000 C 
BRANCH  28  29
ATOM     29  C   LIG    1       23.022 -16.793   4.135  0.00  0.00    -0.000 C 
BRANCH  29  30
ATOM     30  C   LIG    1       22.216 -17.862   4.967  0.00  0.00    -0.000 C 
BRANCH  30  31
ATOM     31  C   LIG    1       21.804 -19.163   4.206  0.00  0.00    -0.000 C 
BRANCH  31  32
ATOM     32  C   LIG    1       22.420 -20.507   4.734  0.00  0.00    -0.000 C 
BRANCH  32  34
ATOM     33  C   LIG    1       23.239 -20.762   7.195  0.00  0.00    +0.004 C 
ATOM     34  C   LIG    1       23.577 -20.384   5.743  0.00  0.00    -0.003 C 
ENDBRANCH  32  34
ENDBRANCH  31  32
ENDBRANCH  30  31
ENDBRANCH  29  30
ENDBRANCH  28  29
ENDBRANCH  27  28
ENDBRANCH  26  27
ENDBRANCH  25  26
ENDBRANCH  24  25
ENDBRANCH  23  24
ENDBRANCH  22  23
ENDBRANCH  20  22
ENDBRANCH  19  20
ENDBRANCH  18  19
ENDBRANCH   1  18
BRANCH   1  35
ATOM     35  C   LIG    1       29.639 -20.669   7.363  0.00  0.00    +0.220 C 
BRANCH  35  36
ATOM     36  O   LIG    1       29.758 -20.946   8.758  0.00  0.00    -0.283 OA
BRANCH  36  37
ATOM     37  P   LIG    1       31.242 -21.379   9.136  0.00  0.00    +0.475 P 
ATOM     38  O   LIG    1       30.765 -22.266  10.264  0.00  0.00    -0.227 OA
BRANCH  37  39
ATOM     39  O   LIG    1       32.200 -22.426   8.409  0.00  0.00    -0.302 OA
ATOM     40  H   LIG    1       32.957 -22.116   7.878  0.00  0.00    +0.222 HD
ENDBRANCH  37  39
BRANCH  37  41
ATOM     41  O   LIG    1       32.022 -19.877   9.066  0.00  0.00    -0.284 OA
BRANCH  41  42
ATOM     42  C   LIG    1       31.902 -18.416   8.610  0.00  0.00    +0.205 C 
BRANCH  42  43
ATOM     43  C   LIG    1       31.700 -17.328   9.708  0.00  0.00    +0.166 C 
BRANCH  43  44
ATOM     44  O   LIG    1       32.659 -17.640  10.708  0.00  0.00    -0.387 OA
ATOM     45  H   LIG    1       33.524 -17.284  10.467  0.00  0.00    +0.210 HD
ENDBRANCH  43  44
BRANCH  43  46
ATOM     46  C   LIG    1       30.454 -17.021  10.574  0.00  0.00    +0.189 C 
BRANCH  46  47
ATOM     47  O   LIG    1       30.720 -16.230  11.727  0.00  0.00    -0.392 OA
ATOM     48  H   LIG    1       29.907 -16.290  12.273  0.00  0.00    +0.209 HD
ENDBRANCH  46  47
ENDBRANCH  43  46
ENDBRANCH  42  43
ENDBRANCH  41  42
ENDBRANCH  37  41
ENDBRANCH  36  37
ENDBRANCH  35  36
ENDBRANCH   1  35
TORSDOF 39
ENDMDL
MODEL 5
REMARK VINA RESULT:      -7.3      4.788     11.881
REMARK  Name = *****
REMARK                            x       y       z     vdW  Elec       q    Type
REMARK                         _______ _______ _______ _____ _____    ______ ____
ROOT
ATOM      1  C   LIG    1       25.369 -28.742   7.980  0.00  0.00    +0.240 C 
ENDROOT
BRANCH   1   2
ATOM      2  O   LIG    1       25.980 -27.313   7.196  0.00  0.00    -0.456 OA
BRANCH   2   3
ATOM      3  C   LIG    1       25.542 -26.409   6.099  0.00  0.00    +0.307 C 
ATOM      4  O   LIG    1       26.294 -25.903   5.255  0.00  0.00    -0.251 OA
BRANCH   3   5
ATOM      5  C   LIG    1       24.204 -25.568   6.115  0.00  0.00    +0.120 C 
BRANCH   5   6
ATOM      6  C   LIG    1       24.378 -24.096   6.597  0.00  0.00    +0.011 C 
BRANCH   6   7
ATOM      7  C   LIG    1       23.001 -23.488   6.803  0.00  0.00    +0.000 C 
BRANCH   7   8
ATOM      8  C   LIG    1       22.888 -21.927   6.823  0.00  0.00    +0.000 C 
BRANCH   8   9
ATOM      9  C   LIG    1       22.516 -21.162   5.465  0.00  0.00    -0.000 C 
BRANCH   9  10
ATOM     10  C   LIG    1       23.514 -19.991   5.178  0.00  0.00    -0.000 C 
BRANCH  10  11
ATOM     11  C   LIG    1       24.991 -20.199   4.741  0.00  0.00    -0.000 C 
BRANCH  11  12
ATOM     12  C   LIG    1       26.110 -20.752   5.669  0.00  0.00    -0.000 C 
BRANCH  12  13
ATOM     13  C   LIG    1       26.145 -20.445   7.188  0.00  0.00    -0.000 C 
BRANCH  13  14
ATOM     14  C   LIG    1       27.534 -20.463   7.805  0.00  0.00    -0.000 C 
BRANCH  14  15
ATOM     15  C   LIG    1       28.663 -19.779   6.835  0.00  0.00    -0.000 C 
BRANCH  15  16
ATOM     16  C   LIG    1       29.837 -18.923   7.369  0.00  0.00    -0.003 C 
ATOM     17  C   LIG    1       30.274 -18.126   8.573  0.00  0.00    +0.004 C 
ENDBRANCH  15  16
ENDBRANCH  14  15
ENDBRANCH  13  14
ENDBRANCH  12  13
ENDBRANCH  11  12
ENDBRANCH  10  11
ENDBRANCH   9  10
ENDBRANCH   8   9
ENDBRANCH   7   8
ENDBRANCH   6   7
ENDBRANCH   5   6
ENDBRANCH   3   5
ENDBRANCH   2   3
ENDBRANCH   1   2
BRANCH   1  18
ATOM     18  C   LIG    1       25.990 -29.429   9.268  0.00  0.00    +0.279 C 
BRANCH  18  19
ATOM     19  O   LIG    1       27.135 -28.826   9.603  0.00  0.00    -0.461 OA
BRANCH  19  20
ATOM     20  C   LIG    1       27.457 -28.876  10.884  0.00  0.00    +0.307 C 
ATOM     21  O   LIG    1       28.598 -29.668  11.248  0.00  0.00    -0.251 OA
BRANCH  20  22
ATOM     22  C   LIG    1       26.893 -27.983  11.764  0.00  0.00    +0.120 C 
BRANCH  22  23
ATOM     23  C   LIG    1       27.018 -28.577  13.167  0.00  0.00    +0.011 C 
BRANCH  23  24
ATOM     24  C   LIG    1       26.079 -29.807  13.486  0.00  0.00    +0.000 C 
BRANCH  24  25
ATOM     25  C   LIG    1       24.522 -29.619  13.542  0.00  0.00    +0.000 C 
BRANCH  25  26
ATOM     26  C   LIG    1       23.617 -29.028  12.359  0.00  0.00    -0.000 C 
BRANCH  26  27
ATOM     27  C   LIG    1       22.060 -29.018  12.269  0.00  0.00    -0.000 C 
BRANCH  27  28
ATOM     28  C   LIG    1       21.371 -27.700  12.867  0.00  0.00    -0.000 C 
BRANCH  28  29
ATOM     29  C   LIG    1       22.320 -26.515  13.267  0.00  0.00    -0.000 C 
BRANCH  29  30
ATOM     30  C   LIG    1       22.748 -26.455  14.784  0.00  0.00    -0.000 C 
BRANCH  30  31
ATOM     31  C   LIG    1       24.225 -26.036  15.069  0.00  0.00    -0.000 C 
BRANCH  31  32
ATOM     32  C   LIG    1       25.023 -25.418  13.866  0.00  0.00    -0.000 C 
BRANCH  32  34
ATOM     33  C   LIG    1       27.602 -25.133  14.110  0.00  0.00    +0.004 C 
ATOM     34  C   LIG    1       26.206 -24.499  14.226  0.00  0.00    -0.003 C 
ENDBRANCH  32  34
ENDBRANCH  31  32
ENDBRANCH  30  31
ENDBRANCH  29  30
ENDBRANCH  28  29
ENDBRANCH  27  28
ENDBRANCH  26  27
ENDBRANCH  25  26
ENDBRANCH  24  25
ENDBRANCH  23  24
ENDBRANCH  22  23
ENDBRANCH  20  22
ENDBRANCH  19  20
ENDBRANCH  18  19
ENDBRANCH   1  18
BRANCH   1  35
ATOM     35  C   LIG    1       25.289 -29.853   6.923  0.00  0.00    +0.220 C 
BRANCH  35  36
ATOM     36  O   LIG    1       25.211 -31.139   7.538  0.00  0.00    -0.283 OA
BRANCH  36  37
ATOM     37  P   LIG    1       24.223 -32.101   6.744  0.00  0.00    +0.475 P 
ATOM     38  O   LIG    1       23.280 -32.211   7.921  0.00  0.00    -0.227 OA
BRANCH  37  39
ATOM     39  O   LIG    1       23.150 -31.735   5.623  0.00  0.00    -0.302 OA
ATOM     40  H   LIG    1       23.400 -31.175   4.864  0.00  0.00    +0.222 HD
ENDBRANCH  37  39
BRANCH  37  41
ATOM     41  O   LIG    1       25.338 -33.152   6.024  0.00  0.00    -0.284 OA
BRANCH  41  42
ATOM     42  C   LIG    1       26.505 -33.264   5.032  0.00  0.00    +0.205 C 
BRANCH  42  43
ATOM     43  C   LIG    1       26.254 -32.807   3.564  0.00  0.00    +0.166 C 
BRANCH  43  44
ATOM     44  O   LIG    1       24.859 -32.984   3.362  0.00  0.00    -0.387 OA
ATOM     45  H   LIG    1       24.699 -33.571   2.613  0.00  0.00    +0.210 HD
ENDBRANCH  43  44
BRANCH  43  46
ATOM     46  C   LIG    1       26.822 -33.379   2.242  0.00  0.00    +0.189 C 
BRANCH  46  47
ATOM     47  O   LIG    1       26.306 -32.764   1.066  0.00  0.00    -0.392 OA
ATOM     48  H   LIG    1       27.092 -32.575   0.509  0.00  0.00    +0.209 HD
ENDBRANCH  46  47
ENDBRANCH  43  46
ENDBRANCH  42  43
ENDBRANCH  41  42
ENDBRANCH  37  41
ENDBRANCH  36  37
ENDBRANCH  35  36
ENDBRANCH   1  35
TORSDOF 39
ENDMDL
MODEL 6
REMARK VINA RESULT:      -7.3      1.515      2.767
REMARK  Name = *****
REMARK                            x       y       z     vdW  Elec       q    Type
REMARK                         _______ _______ _______ _____ _____    ______ ____
ROOT
ATOM      1  C   LIG    1       26.917 -21.842   7.832  0.00  0.00    +0.240 C 
ENDROOT
BRANCH   1   2
ATOM      2  O   LIG    1       26.590 -23.321   6.976  0.00  0.00    -0.456 OA
BRANCH   2   3
ATOM      3  C   LIG    1       25.394 -24.012   6.426  0.00  0.00    +0.307 C 
ATOM      4  O   LIG    1       24.259 -23.964   6.920  0.00  0.00    -0.251 OA
BRANCH   3   5
ATOM      5  C   LIG    1       25.449 -25.270   5.471  0.00  0.00    +0.120 C 
BRANCH   5   6
ATOM      6  C   LIG    1       25.809 -26.605   6.189  0.00  0.00    +0.011 C 
BRANCH   6   7
ATOM      7  C   LIG    1       25.412 -27.762   5.288  0.00  0.00    +0.000 C 
BRANCH   7   8
ATOM      8  C   LIG    1       24.491 -28.874   5.891  0.00  0.00    +0.000 C 
BRANCH   8   9
ATOM      9  C   LIG    1       25.116 -30.321   6.183  0.00  0.00    -0.000 C 
BRANCH   9  10
ATOM     10  C   LIG    1       25.423 -30.513   7.705  0.00  0.00    -0.000 C 
BRANCH  10  11
ATOM     11  C   LIG    1       25.387 -29.361   8.749  0.00  0.00    -0.000 C 
BRANCH  11  12
ATOM     12  C   LIG    1       26.650 -28.650   9.312  0.00  0.00    -0.000 C 
BRANCH  12  13
ATOM     13  C   LIG    1       27.047 -28.743  10.807  0.00  0.00    -0.000 C 
BRANCH  13  14
ATOM     14  C   LIG    1       26.644 -27.540  11.645  0.00  0.00    -0.000 C 
BRANCH  14  15
ATOM     15  C   LIG    1       25.370 -27.853  12.625  0.00  0.00    -0.000 C 
BRANCH  15  16
ATOM     16  C   LIG    1       24.573 -26.750  13.363  0.00  0.00    -0.003 C 
ATOM     17  C   LIG    1       23.164 -26.306  13.667  0.00  0.00    +0.004 C 
ENDBRANCH  15  16
ENDBRANCH  14  15
ENDBRANCH  13  14
ENDBRANCH  12  13
ENDBRANCH  11  12
ENDBRANCH  10  11
ENDBRANCH   9  10
ENDBRANCH   8   9
ENDBRANCH   7   8
ENDBRANCH   6   7
ENDBRANCH   5   6
ENDBRANCH   3   5
ENDBRANCH   2   3
ENDBRANCH   1   2
BRANCH   1  18
ATOM     18  C   LIG    1       26.084 -20.497   7.710  0.00  0.00    +0.279 C 
BRANCH  18  19
ATOM     19  O   LIG    1       25.593 -20.372   6.474  0.00  0.00    -0.461 OA
BRANCH  19  20
ATOM     20  C   LIG    1       24.302 -20.620   6.341  0.00  0.00    +0.307 C 
ATOM     21  O   LIG    1       23.508 -20.645   7.536  0.00  0.00    -0.251 OA
BRANCH  20  22
ATOM     22  C   LIG    1       23.722 -20.566   5.095  0.00  0.00    +0.120 C 
BRANCH  22  23
ATOM     23  C   LIG    1       22.591 -19.539   5.158  0.00  0.00    +0.011 C 
BRANCH  23  24
ATOM     24  C   LIG    1       22.797 -18.225   4.305  0.00  0.00    +0.000 C 
BRANCH  24  25
ATOM     25  C   LIG    1       22.076 -16.894   4.719  0.00  0.00    +0.000 C 
BRANCH  25  26
ATOM     26  C   LIG    1       22.804 -15.492   4.990  0.00  0.00    -0.000 C 
BRANCH  26  27
ATOM     27  C   LIG    1       23.551 -14.594   3.955  0.00  0.00    -0.000 C 
BRANCH  27  28
ATOM     28  C   LIG    1       24.863 -13.874   4.528  0.00  0.00    -0.000 C 
BRANCH  28  29
ATOM     29  C   LIG    1       26.066 -13.685   3.537  0.00  0.00    -0.000 C 
BRANCH  29  30
ATOM     30  C   LIG    1       26.922 -14.974   3.234  0.00  0.00    -0.000 C 
BRANCH  30  31
ATOM     31  C   LIG    1       26.212 -16.345   3.470  0.00  0.00    -0.000 C 
BRANCH  31  32
ATOM     32  C   LIG    1       27.144 -17.583   3.723  0.00  0.00    -0.000 C 
BRANCH  32  34
ATOM     33  C   LIG    1       28.877 -18.512   5.434  0.00  0.00    +0.004 C 
ATOM     34  C   LIG    1       28.406 -17.330   4.570  0.00  0.00    -0.003 C 
ENDBRANCH  32  34
ENDBRANCH  31  32
ENDBRANCH  30  31
ENDBRANCH  29  30
ENDBRANCH  28  29
ENDBRANCH  27  28
ENDBRANCH  26  27
ENDBRANCH  25  26
ENDBRANCH  24  25
ENDBRANCH  23  24
ENDBRANCH  22  23
ENDBRANCH  20  22
ENDBRANCH  19  20
ENDBRANCH  18  19
ENDBRANCH   1  18
BRANCH   1  35
ATOM     35  C   LIG    1       28.373 -21.447   7.539  0.00  0.00    +0.220 C 
BRANCH  35  36
ATOM     36  O   LIG    1       28.787 -20.365   8.373  0.00  0.00    -0.283 OA
BRANCH  36  37
ATOM     37  P   LIG    1       30.361 -20.384   8.604  0.00  0.00    +0.475 P 
ATOM     38  O   LIG    1       30.337 -21.814   9.095  0.00  0.00    -0.227 OA
BRANCH  37  39
ATOM     39  O   LIG    1       31.532 -20.527   7.532  0.00  0.00    -0.302 OA
ATOM     40  H   LIG    1       31.961 -21.391   7.381  0.00  0.00    +0.222 HD
ENDBRANCH  37  39
BRANCH  37  41
ATOM     41  O   LIG    1       30.574 -18.882   9.358  0.00  0.00    -0.284 OA
BRANCH  41  42
ATOM     42  C   LIG    1       30.406 -17.363   9.209  0.00  0.00    +0.205 C 
BRANCH  42  43
ATOM     43  C   LIG    1       31.524 -16.450   9.796  0.00  0.00    +0.166 C 
BRANCH  43  44
ATOM     44  O   LIG    1       32.466 -16.307   8.743  0.00  0.00    -0.387 OA
ATOM     45  H   LIG    1       32.016 -16.292   7.889  0.00  0.00    +0.210 HD
ENDBRANCH  43  44
BRANCH  43  46
ATOM     46  C   LIG    1       32.461 -16.692  11.005  0.00  0.00    +0.189 C 
BRANCH  46  47
ATOM     47  O   LIG    1       32.730 -15.530  11.782  0.00  0.00    -0.392 OA
ATOM     48  H   LIG    1       33.246 -15.849  12.552  0.00  0.00    +0.209 HD
ENDBRANCH  46  47
ENDBRANCH  43  46
ENDBRANCH  42  43
ENDBRANCH  41  42
ENDBRANCH  37  41
ENDBRANCH  36  37
ENDBRANCH  35  36
ENDBRANCH   1  35
TORSDOF 39
ENDMDL
MODEL 7
REMARK VINA RESULT:      -7.3      1.986      3.691
REMARK  Name = *****
REMARK                            x       y       z     vdW  Elec       q    Type
REMARK                         _______ _______ _______ _____ _____    ______ ____
ROOT
ATOM      1  C   LIG    1       24.982 -23.991   6.999  0.00  0.00    +0.240 C 
ENDROOT
BRANCH   1   2
ATOM      2  O   LIG    1       25.205 -25.715   6.934  0.00  0.00    -0.456 OA
BRANCH   2   3
ATOM      3  C   LIG    1       25.974 -26.677   6.099  0.00  0.00    +0.307 C 
ATOM      4  O   LIG    1       26.934 -26.376   5.376  0.00  0.00    -0.251 OA
BRANCH   3   5
ATOM      5  C   LIG    1       25.423 -28.075   5.610  0.00  0.00    +0.120 C 
BRANCH   5   6
ATOM      6  C   LIG    1       24.309 -28.678   6.517  0.00  0.00    +0.011 C 
BRANCH   6   7
ATOM      7  C   LIG    1       24.346 -30.191   6.388  0.00  0.00    +0.000 C 
BRANCH   7   8
ATOM      8  C   LIG    1       24.046 -31.040   7.668  0.00  0.00    +0.000 C 
BRANCH   8   9
ATOM      9  C   LIG    1       23.782 -30.282   9.055  0.00  0.00    -0.000 C 
BRANCH   9  10
ATOM     10  C   LIG    1       24.597 -30.929  10.223  0.00  0.00    -0.000 C 
BRANCH  10  11
ATOM     11  C   LIG    1       26.149 -30.983  10.272  0.00  0.00    -0.000 C 
BRANCH  11  12
ATOM     12  C   LIG    1       27.080 -29.804   9.868  0.00  0.00    -0.000 C 
BRANCH  12  13
ATOM     13  C   LIG    1       26.636 -28.325   9.997  0.00  0.00    -0.000 C 
BRANCH  13  14
ATOM     14  C   LIG    1       26.786 -27.739  11.392  0.00  0.00    -0.000 C 
BRANCH  14  15
ATOM     15  C   LIG    1       25.566 -28.177  12.393  0.00  0.00    -0.000 C 
BRANCH  15  16
ATOM     16  C   LIG    1       24.998 -27.253  13.497  0.00  0.00    -0.003 C 
ATOM     17  C   LIG    1       24.501 -25.848  13.730  0.00  0.00    +0.004 C 
ENDBRANCH  15  16
ENDBRANCH  14  15
ENDBRANCH  13  14
ENDBRANCH  12  13
ENDBRANCH  11  12
ENDBRANCH  10  11
ENDBRANCH   9  10
ENDBRANCH   8   9
ENDBRANCH   7   8
ENDBRANCH   6   7
ENDBRANCH   5   6
ENDBRANCH   3   5
ENDBRANCH   2   3
ENDBRANCH   1   2
BRANCH   1  18
ATOM     18  C   LIG    1       24.311 -23.100   5.872  0.00  0.00    +0.279 C 
BRANCH  18  19
ATOM     19  O   LIG    1       23.097 -22.700   6.264  0.00  0.00    -0.461 OA
BRANCH  19  20
ATOM     20  C   LIG    1       22.914 -21.392   6.320  0.00  0.00    +0.307 C 
ATOM     21  O   LIG    1       23.408 -20.706   7.480  0.00  0.00    -0.251 OA
BRANCH  20  22
ATOM     22  C   LIG    1       22.531 -20.709   5.190  0.00  0.00    +0.120 C 
BRANCH  22  23
ATOM     23  C   LIG    1       22.542 -19.218   5.528  0.00  0.00    +0.011 C 
BRANCH  23  24
ATOM     24  C   LIG    1       22.126 -18.238   4.361  0.00  0.00    +0.000 C 
BRANCH  24  25
ATOM     25  C   LIG    1       21.920 -16.709   4.649  0.00  0.00    +0.000 C 
BRANCH  25  26
ATOM     26  C   LIG    1       23.095 -15.643   4.878  0.00  0.00    -0.000 C 
BRANCH  26  27
ATOM     27  C   LIG    1       23.496 -14.458   3.946  0.00  0.00    -0.000 C 
BRANCH  27  28
ATOM     28  C   LIG    1       24.991 -13.922   4.161  0.00  0.00    -0.000 C 
BRANCH  28  29
ATOM     29  C   LIG    1       26.035 -14.239   3.031  0.00  0.00    -0.000 C 
BRANCH  29  30
ATOM     30  C   LIG    1       27.374 -14.926   3.500  0.00  0.00    -0.000 C 
BRANCH  30  31
ATOM     31  C   LIG    1       27.282 -16.440   3.871  0.00  0.00    -0.000 C 
BRANCH  31  32
ATOM     32  C   LIG    1       26.107 -17.251   3.217  0.00  0.00    -0.000 C 
BRANCH  32  34
ATOM     33  C   LIG    1       25.180 -19.678   3.010  0.00  0.00    +0.004 C 
ATOM     34  C   LIG    1       25.695 -18.555   3.925  0.00  0.00    -0.003 C 
ENDBRANCH  32  34
ENDBRANCH  31  32
ENDBRANCH  30  31
ENDBRANCH  29  30
ENDBRANCH  28  29
ENDBRANCH  27  28
ENDBRANCH  26  27
ENDBRANCH  25  26
ENDBRANCH  24  25
ENDBRANCH  23  24
ENDBRANCH  22  23
ENDBRANCH  20  22
ENDBRANCH  19  20
ENDBRANCH  18  19
ENDBRANCH   1  18
BRANCH   1  35
ATOM     35  C   LIG    1       26.356 -23.354   7.258  0.00  0.00    +0.220 C 
BRANCH  35  36
ATOM     36  O   LIG    1       26.378 -21.993   6.829  0.00  0.00    -0.283 OA
BRANCH  36  37
ATOM     37  P   LIG    1       27.427 -21.140   7.668  0.00  0.00    +0.475 P 
ATOM     38  O   LIG    1       26.560 -21.170   8.906  0.00  0.00    -0.227 OA
BRANCH  37  39
ATOM     39  O   LIG    1       28.797 -21.607   8.335  0.00  0.00    -0.302 OA
ATOM     40  H   LIG    1       29.624 -21.609   7.816  0.00  0.00    +0.222 HD
ENDBRANCH  37  39
BRANCH  37  41
ATOM     41  O   LIG    1       27.821 -19.945   6.534  0.00  0.00    -0.284 OA
BRANCH  41  42
ATOM     42  C   LIG    1       28.968 -19.209   5.827  0.00  0.00    +0.205 C 
BRANCH  42  43
ATOM     43  C   LIG    1       30.235 -18.865   6.667  0.00  0.00    +0.166 C 
BRANCH  43  44
ATOM     44  O   LIG    1       30.879 -20.113   6.880  0.00  0.00    -0.387 OA
ATOM     45  H   LIG    1       31.182 -20.482   6.041  0.00  0.00    +0.210 HD
ENDBRANCH  43  44
BRANCH  43  46
ATOM     46  C   LIG    1       30.341 -18.229   8.075  0.00  0.00    +0.189 C 
BRANCH  46  47
ATOM     47  O   LIG    1       29.559 -18.877   9.072  0.00  0.00    -0.392 OA
ATOM     48  H   LIG    1       30.192 -19.105   9.787  0.00  0.00    +0.209 HD
ENDBRANCH  46  47
ENDBRANCH  43  46
ENDBRANCH  42  43
ENDBRANCH  41  42
ENDBRANCH  37  41
ENDBRANCH  36  37
ENDBRANCH  35  36
ENDBRANCH   1  35
TORSDOF 39
ENDMDL
MODEL 8
REMARK VINA RESULT:      -7.2      2.253      4.638
REMARK  Name = *****
REMARK                            x       y       z     vdW  Elec       q    Type
REMARK                         _______ _______ _______ _____ _____    ______ ____
ROOT
ATOM      1  C   LIG    1       27.718 -21.289   7.367  0.00  0.00    +0.240 C 
ENDROOT
BRANCH   1   2
ATOM      2  O   LIG    1       26.775 -22.748   7.473  0.00  0.00    -0.456 OA
BRANCH   2   3
ATOM      3  C   LIG    1       26.016 -23.617   6.534  0.00  0.00    +0.307 C 
ATOM      4  O   LIG    1       25.352 -23.209   5.571  0.00  0.00    -0.251 OA
BRANCH   3   5
ATOM      5  C   LIG    1       25.522 -25.079   6.873  0.00  0.00    +0.120 C 
BRANCH   5   6
ATOM      6  C   LIG    1       24.169 -25.470   6.206  0.00  0.00    +0.011 C 
BRANCH   6   7
ATOM      7  C   LIG    1       24.371 -26.751   5.416  0.00  0.00    +0.000 C 
BRANCH   7   8
ATOM      8  C   LIG    1       25.538 -27.700   5.850  0.00  0.00    +0.000 C 
BRANCH   8   9
ATOM      9  C   LIG    1       25.365 -29.281   5.647  0.00  0.00    -0.000 C 
BRANCH   9  10
ATOM     10  C   LIG    1       24.077 -29.809   6.361  0.00  0.00    -0.000 C 
BRANCH  10  11
ATOM     11  C   LIG    1       24.093 -30.657   7.664  0.00  0.00    -0.000 C 
BRANCH  11  12
ATOM     12  C   LIG    1       25.100 -30.449   8.831  0.00  0.00    -0.000 C 
BRANCH  12  13
ATOM     13  C   LIG    1       26.585 -30.879   8.722  0.00  0.00    -0.000 C 
BRANCH  13  14
ATOM     14  C   LIG    1       26.837 -32.356   8.980  0.00  0.00    -0.000 C 
BRANCH  14  15
ATOM     15  C   LIG    1       27.472 -33.123   7.679  0.00  0.00    -0.000 C 
BRANCH  15  16
ATOM     16  C   LIG    1       27.159 -32.720   6.218  0.00  0.00    -0.003 C 
ATOM     17  C   LIG    1       26.085 -32.816   5.164  0.00  0.00    +0.004 C 
ENDBRANCH  15  16
ENDBRANCH  14  15
ENDBRANCH  13  14
ENDBRANCH  12  13
ENDBRANCH  11  12
ENDBRANCH  10  11
ENDBRANCH   9  10
ENDBRANCH   8   9
ENDBRANCH   7   8
ENDBRANCH   6   7
ENDBRANCH   5   6
ENDBRANCH   3   5
ENDBRANCH   2   3
ENDBRANCH   1   2
BRANCH   1  18
ATOM     18  C   LIG    1       27.777 -20.313   6.118  0.00  0.00    +0.279 C 
BRANCH  18  19
ATOM     19  O   LIG    1       26.541 -20.049   5.682  0.00  0.00    -0.461 OA
BRANCH  19  20
ATOM     20  C   LIG    1       26.461 -19.509   4.478  0.00  0.00    +0.307 C 
ATOM     21  O   LIG    1       25.435 -19.999   3.602  0.00  0.00    -0.251 OA
BRANCH  20  22
ATOM     22  C   LIG    1       27.141 -18.345   4.206  0.00  0.00    +0.120 C 
BRANCH  22  23
ATOM     23  C   LIG    1       26.187 -17.419   3.453  0.00  0.00    +0.011 C 
BRANCH  23  24
ATOM     24  C   LIG    1       26.636 -15.910   3.328  0.00  0.00    +0.000 C 
BRANCH  24  25
ATOM     25  C   LIG    1       25.578 -14.758   3.448  0.00  0.00    +0.000 C 
BRANCH  25  26
ATOM     26  C   LIG    1       24.349 -14.733   4.476  0.00  0.00    -0.000 C 
BRANCH  26  27
ATOM     27  C   LIG    1       22.875 -15.167   4.205  0.00  0.00    -0.000 C 
BRANCH  27  28
ATOM     28  C   LIG    1       22.443 -16.532   4.926  0.00  0.00    -0.000 C 
BRANCH  28  29
ATOM     29  C   LIG    1       22.884 -17.874   4.241  0.00  0.00    -0.000 C 
BRANCH  29  30
ATOM     30  C   LIG    1       21.827 -19.044   4.269  0.00  0.00    -0.000 C 
BRANCH  30  31
ATOM     31  C   LIG    1       22.244 -20.333   5.046  0.00  0.00    -0.000 C 
BRANCH  31  32
ATOM     32  C   LIG    1       23.199 -20.132   6.276  0.00  0.00    -0.000 C 
BRANCH  32  34
ATOM     33  C   LIG    1       22.486 -22.559   6.902  0.00  0.00    +0.004 C 
ATOM     34  C   LIG    1       23.297 -21.305   7.269  0.00  0.00    -0.003 C 
ENDBRANCH  32  34
ENDBRANCH  31  32
ENDBRANCH  30  31
ENDBRANCH  29  30
ENDBRANCH  28  29
ENDBRANCH  27  28
ENDBRANCH  26  27
ENDBRANCH  25  26
ENDBRANCH  24  25
ENDBRANCH  23  24
ENDBRANCH  22  23
ENDBRANCH  20  22
ENDBRANCH  19  20
ENDBRANCH  18  19
ENDBRANCH   1  18
BRANCH   1  35
ATOM     35  C   LIG    1       29.178 -21.657   7.666  0.00  0.00    +0.220 C 
BRANCH  35  36
ATOM     36  O   LIG    1       29.676 -20.912   8.777  0.00  0.00    -0.283 OA
BRANCH  36  37
ATOM     37  P   LIG    1       31.155 -21.358   9.156  0.00  0.00    +0.475 P 
ATOM     38  O   LIG    1       30.681 -22.135  10.364  0.00  0.00    -0.227 OA
BRANCH  37  39
ATOM     39  O   LIG    1       32.064 -22.490   8.497  0.00  0.00    -0.302 OA
ATOM     40  H   LIG    1       31.922 -22.759   7.570  0.00  0.00    +0.222 HD
ENDBRANCH  37  39
BRANCH  37  41
ATOM     41  O   LIG    1       31.977 -19.892   8.947  0.00  0.00    -0.284 OA
BRANCH  41  42
ATOM     42  C   LIG    1       31.886 -18.468   8.381  0.00  0.00    +0.205 C 
BRANCH  42  43
ATOM     43  C   LIG    1       31.890 -17.284   9.395  0.00  0.00    +0.166 C 
BRANCH  43  44
ATOM     44  O   LIG    1       32.368 -17.847  10.608  0.00  0.00    -0.387 OA
ATOM     45  H   LIG    1       31.743 -18.502  10.943  0.00  0.00    +0.210 HD
ENDBRANCH  43  44
BRANCH  43  46
ATOM     46  C   LIG    1       30.711 -16.422   9.908  0.00  0.00    +0.189 C 
BRANCH  46  47
ATOM     47  O   LIG    1       30.152 -16.866  11.140  0.00  0.00    -0.392 OA
ATOM     48  H   LIG    1       30.890 -17.306  11.614  0.00  0.00    +0.209 HD
ENDBRANCH  46  47
ENDBRANCH  43  46
ENDBRANCH  42  43
ENDBRANCH  41  42
ENDBRANCH  37  41
ENDBRANCH  36  37
ENDBRANCH  35  36
ENDBRANCH   1  35
TORSDOF 39
ENDMDL
MODEL 9
REMARK VINA RESULT:      -7.0      3.345      7.227
REMARK  Name = *****
REMARK                            x       y       z     vdW  Elec       q    Type
REMARK                         _______ _______ _______ _____ _____    ______ ____
ROOT
ATOM      1  C   LIG    1       24.974 -24.257   6.097  0.00  0.00    +0.240 C 
ENDROOT
BRANCH   1   2
ATOM      2  O   LIG    1       24.493 -25.869   5.649  0.00  0.00    -0.456 OA
BRANCH   2   3
ATOM      3  C   LIG    1       25.073 -27.236   5.736  0.00  0.00    +0.307 C 
ATOM      4  O   LIG    1       24.937 -28.119   4.879  0.00  0.00    -0.251 OA
BRANCH   3   5
ATOM      5  C   LIG    1       25.506 -27.938   7.085  0.00  0.00    +0.120 C 
BRANCH   5   6
ATOM      6  C   LIG    1       24.969 -29.391   7.252  0.00  0.00    +0.011 C 
BRANCH   6   7
ATOM      7  C   LIG    1       25.260 -29.855   8.669  0.00  0.00    +0.000 C 
BRANCH   7   8
ATOM      8  C   LIG    1       26.478 -29.210   9.412  0.00  0.00    +0.000 C 
BRANCH   8   9
ATOM      9  C   LIG    1       26.380 -28.974  10.995  0.00  0.00    -0.000 C 
BRANCH   9  10
ATOM     10  C   LIG    1       26.749 -27.502  11.375  0.00  0.00    -0.000 C 
BRANCH  10  11
ATOM     11  C   LIG    1       26.989 -27.017  12.832  0.00  0.00    -0.000 C 
BRANCH  11  12
ATOM     12  C   LIG    1       26.130 -25.937  13.549  0.00  0.00    -0.000 C 
BRANCH  12  13
ATOM     13  C   LIG    1       25.001 -26.312  14.543  0.00  0.00    -0.000 C 
BRANCH  13  14
ATOM     14  C   LIG    1       23.596 -26.014  14.046  0.00  0.00    -0.000 C 
BRANCH  14  15
ATOM     15  C   LIG    1       22.920 -27.289  13.270  0.00  0.00    -0.000 C 
BRANCH  15  16
ATOM     16  C   LIG    1       21.411 -27.377  12.933  0.00  0.00    -0.003 C 
ATOM     17  C   LIG    1       20.148 -26.553  12.921  0.00  0.00    +0.004 C 
ENDBRANCH  15  16
ENDBRANCH  14  15
ENDBRANCH  13  14
ENDBRANCH  12  13
ENDBRANCH  11  12
ENDBRANCH  10  11
ENDBRANCH   9  10
ENDBRANCH   8   9
ENDBRANCH   7   8
ENDBRANCH   6   7
ENDBRANCH   5   6
ENDBRANCH   3   5
ENDBRANCH   2   3
ENDBRANCH   1   2
BRANCH   1  18
ATOM     18  C   LIG    1       26.016 -23.883   7.233  0.00  0.00    +0.279 C 
BRANCH  18  19
ATOM     19  O   LIG    1       26.644 -22.745   6.923  0.00  0.00    -0.461 OA
BRANCH  19  20
ATOM     20  C   LIG    1       26.849 -21.911   7.927  0.00  0.00    +0.307 C 
ATOM     21  O   LIG    1       26.082 -22.117   9.123  0.00  0.00    -0.251 OA
BRANCH  20  22
ATOM     22  C   LIG    1       27.945 -21.081   7.911  0.00  0.00    +0.120 C 
BRANCH  22  23
ATOM     23  C   LIG    1       28.445 -21.007   6.469  0.00  0.00    +0.011 C 
BRANCH  23  24
ATOM     24  C   LIG    1       28.859 -19.574   5.949  0.00  0.00    +0.000 C 
BRANCH  24  25
ATOM     25  C   LIG    1       29.811 -18.668   6.806  0.00  0.00    +0.000 C 
BRANCH  25  26
ATOM     26  C   LIG    1       31.130 -19.168   7.567  0.00  0.00    -0.000 C 
BRANCH  26  27
ATOM     27  C   LIG    1       31.531 -18.897   9.050  0.00  0.00    -0.000 C 
BRANCH  27  28
ATOM     28  C   LIG    1       30.401 -18.161   9.918  0.00  0.00    -0.000 C 
BRANCH  28  29
ATOM     29  C   LIG    1       30.773 -16.771  10.546  0.00  0.00    -0.000 C 
BRANCH  29  30
ATOM     30  C   LIG    1       31.890 -16.792  11.658  0.00  0.00    -0.000 C 
BRANCH  30  31
ATOM     31  C   LIG    1       31.671 -15.839  12.876  0.00  0.00    -0.000 C 
BRANCH  31  32
ATOM     32  C   LIG    1       32.759 -15.886  14.008  0.00  0.00    -0.000 C 
BRANCH  32  34
ATOM     33  C   LIG    1       32.341 -18.044  15.409  0.00  0.00    +0.004 C 
ATOM     34  C   LIG    1       32.327 -16.507  15.350  0.00  0.00    -0.003 C 
ENDBRANCH  32  34
ENDBRANCH  31  32
ENDBRANCH  30  31
ENDBRANCH  29  30
ENDBRANCH  28  29
ENDBRANCH  27  28
ENDBRANCH  26  27
ENDBRANCH  25  26
ENDBRANCH  24  25
ENDBRANCH  23  24
ENDBRANCH  22  23
ENDBRANCH  20  22
ENDBRANCH  19  20
ENDBRANCH  18  19
ENDBRANCH   1  18
BRANCH   1  35
ATOM     35  C   LIG    1       23.700 -23.470   6.438  0.00  0.00    +0.220 C 
BRANCH  35  36
ATOM     36  O   LIG    1       23.727 -22.172   5.846  0.00  0.00    -0.283 OA
BRANCH  36  37
ATOM     37  P   LIG    1       23.306 -21.050   6.893  0.00  0.00    +0.475 P 
ATOM     38  O   LIG    1       22.610 -22.053   7.785  0.00  0.00    -0.227 OA
BRANCH  37  39
ATOM     39  O   LIG    1       24.193 -20.329   8.005  0.00  0.00    -0.302 OA
ATOM     40  H   LIG    1       24.481 -19.405   7.884  0.00  0.00    +0.222 HD
ENDBRANCH  37  39
BRANCH  37  41
ATOM     41  O   LIG    1       22.769 -19.839   5.839  0.00  0.00    -0.284 OA
BRANCH  41  42
ATOM     42  C   LIG    1       22.707 -19.379   4.375  0.00  0.00    +0.205 C 
BRANCH  42  43
ATOM     43  C   LIG    1       23.999 -19.525   3.515  0.00  0.00    +0.166 C 
BRANCH  43  44
ATOM     44  O   LIG    1       24.074 -20.909   3.205  0.00  0.00    -0.387 OA
ATOM     45  H   LIG    1       24.910 -21.278   3.516  0.00  0.00    +0.210 HD
ENDBRANCH  43  44
BRANCH  43  46
ATOM     46  C   LIG    1       25.470 -19.220   3.887  0.00  0.00    +0.189 C 
BRANCH  46  47
ATOM     47  O   LIG    1       25.988 -18.027   3.306  0.00  0.00    -0.392 OA
ATOM     48  H   LIG    1       26.930 -17.997   3.579  0.00  0.00    +0.209 HD
ENDBRANCH  46  47
ENDBRANCH  43  46
ENDBRANCH  42  43
ENDBRANCH  41  42
ENDBRANCH  37  41
ENDBRANCH  36  37
ENDBRANCH  35  36
ENDBRANCH   1  35
TORSDOF 39
ENDMDL
