MODEL 1
REMARK VINA RESULT:      -6.1      0.000      0.000
REMARK  Name = *****
REMARK                            x       y       z     vdW  Elec       q    Type
REMARK                         _______ _______ _______ _____ _____    ______ ____
ROOT
ATOM      1  C   LIG    1       25.755 -27.463   7.107  0.00  0.00    -0.043 A 
ATOM      2  C   LIG    1       25.013 -28.532   6.593  0.00  0.00    +0.021 A 
ATOM      3  C   LIG    1       24.854 -29.723   7.319  0.00  0.00    +0.057 A 
ATOM      4  I   LIG    1       24.127 -31.373   6.230  0.00  0.00    -0.040 I 
ATOM      5  C   LIG    1       25.304 -29.818   8.648  0.00  0.00    +0.154 A 
ATOM      6  C   LIG    1       26.087 -28.765   9.147  0.00  0.00    +0.057 A 
ATOM      7  I   LIG    1       27.066 -28.895  11.001  0.00  0.00    -0.040 I 
ATOM      8  C   LIG    1       26.312 -27.600   8.386  0.00  0.00    +0.021 A 
ENDROOT
BRANCH   1   9
ATOM      9  C   LIG    1       26.018 -26.243   6.242  0.00  0.00    +0.065 C 
BRANCH   9  10
ATOM     10  CA  LIG    1       24.734 -25.602   5.676  0.00  0.00    +0.165 C 
BRANCH  10  11
ATOM     11  N   LIG    1       24.931 -25.055   4.294  0.00  0.00    -0.318 NA
ATOM     12  H1  LIG    1       24.067 -25.199   3.759  0.00  0.00    +0.119 HD
ATOM     13  H2  LIG    1       24.992 -24.036   4.386  0.00  0.00    +0.119 HD
ENDBRANCH  10  11
BRANCH  10  14
ATOM     14  C   LIG    1       24.260 -24.450   6.588  0.00  0.00    +0.322 C 
ATOM     15  O   LIG    1       25.001 -23.693   7.202  0.00  0.00    -0.249 OA
BRANCH  14  16
ATOM     16  OXT LIG    1       22.910 -24.380   6.642  0.00  0.00    -0.479 OA
ATOM     17  HXT LIG    1       22.692 -23.871   7.462  0.00  0.00    +0.295 HD
ENDBRANCH  14  16
ENDBRANCH  10  14
ENDBRANCH   9  10
ENDBRANCH   1   9
BRANCH   5  18
ATOM     18  O   LIG    1       25.054 -30.926   9.443  0.00  0.00    -0.454 OA
BRANCH  18  19
ATOM     19  C   LIG    1       23.836 -30.988  10.112  0.00  0.00    +0.131 A 
ATOM     20  C   LIG    1       22.978 -32.054   9.786  0.00  0.00    +0.064 A 
ATOM     21  C   LIG    1       21.722 -32.157  10.385  0.00  0.00    +0.059 A 
ATOM     22  I   LIG    1       20.531 -33.824   9.923  0.00  0.00    -0.040 I 
ATOM     23  C   LIG    1       21.276 -31.168  11.276  0.00  0.00    +0.143 A 
ATOM     24  C   LIG    1       22.131 -30.122  11.601  0.00  0.00    +0.059 A 
ATOM     25  I   LIG    1       21.516 -28.567  12.863  0.00  0.00    -0.040 I 
ATOM     26  C   LIG    1       23.422 -30.050  11.064  0.00  0.00    +0.064 A 
BRANCH  23  27
ATOM     27  O   LIG    1       20.003 -31.246  11.789  0.00  0.00    -0.505 OA
ATOM     28  H   LIG    1       19.377 -31.191  11.039  0.00  0.00    +0.292 HD
ENDBRANCH  23  27
ENDBRANCH  18  19
ENDBRANCH   5  18
TORSDOF 8
ENDMDL
MODEL 2
REMARK VINA RESULT:      -6.0      0.118      2.021
REMARK  Name = *****
REMARK                            x       y       z     vdW  Elec       q    Type
REMARK                         _______ _______ _______ _____ _____    ______ ____
ROOT
ATOM      1  C   LIG    1       25.780 -27.405   7.054  0.00  0.00    -0.043 A 
ATOM      2  C   LIG    1       25.044 -28.470   6.522  0.00  0.00    +0.021 A 
ATOM      3  C   LIG    1       24.876 -29.667   7.236  0.00  0.00    +0.057 A 
ATOM      4  I   LIG    1       24.162 -31.308   6.125  0.00  0.00    -0.040 I 
ATOM      5  C   LIG    1       25.309 -29.773   8.570  0.00  0.00    +0.154 A 
ATOM      6  C   LIG    1       26.087 -28.724   9.087  0.00  0.00    +0.057 A 
ATOM      7  I   LIG    1       27.043 -28.870  10.952  0.00  0.00    -0.040 I 
ATOM      8  C   LIG    1       26.321 -27.553   8.339  0.00  0.00    +0.021 A 
ENDROOT
BRANCH   1   9
ATOM      9  C   LIG    1       26.054 -26.178   6.203  0.00  0.00    +0.065 C 
BRANCH   9  10
ATOM     10  CA  LIG    1       24.776 -25.526   5.634  0.00  0.00    +0.165 C 
BRANCH  10  11
ATOM     11  N   LIG    1       25.000 -24.912   4.286  0.00  0.00    -0.318 NA
ATOM     12  H1  LIG    1       25.377 -23.966   4.415  0.00  0.00    +0.119 HD
ATOM     13  H2  LIG    1       25.777 -25.425   3.854  0.00  0.00    +0.119 HD
ENDBRANCH  10  11
BRANCH  10  14
ATOM     14  C   LIG    1       24.265 -24.424   6.588  0.00  0.00    +0.322 C 
ATOM     15  O   LIG    1       24.981 -23.668   7.232  0.00  0.00    -0.249 OA
BRANCH  14  16
ATOM     16  OXT LIG    1       22.913 -24.398   6.640  0.00  0.00    -0.479 OA
ATOM     17  HXT LIG    1       22.678 -24.150   7.569  0.00  0.00    +0.295 HD
ENDBRANCH  14  16
ENDBRANCH  10  14
ENDBRANCH   9  10
ENDBRANCH   1   9
BRANCH   5  18
ATOM     18  O   LIG    1       25.050 -30.887   9.353  0.00  0.00    -0.454 OA
BRANCH  18  19
ATOM     19  C   LIG    1       23.784 -31.009   9.915  0.00  0.00    +0.131 A 
ATOM     20  C   LIG    1       23.411 -30.049  10.874  0.00  0.00    +0.064 A 
ATOM     21  C   LIG    1       22.173 -30.133  11.512  0.00  0.00    +0.059 A 
ATOM     22  I   LIG    1       21.643 -28.613  12.861  0.00  0.00    -0.040 I 
ATOM     23  C   LIG    1       21.310 -31.209  11.251  0.00  0.00    +0.143 A 
ATOM     24  C   LIG    1       21.680 -32.150  10.297  0.00  0.00    +0.059 A 
ATOM     25  I   LIG    1       20.484 -33.824   9.902  0.00  0.00    -0.040 I 
ATOM     26  C   LIG    1       22.885 -32.034   9.596  0.00  0.00    +0.064 A 
BRANCH  23  27
ATOM     27  O   LIG    1       20.134 -31.317  11.953  0.00  0.00    -0.505 OA
ATOM     28  H   LIG    1       19.398 -31.195  11.320  0.00  0.00    +0.292 HD
ENDBRANCH  23  27
ENDBRANCH  18  19
ENDBRANCH   5  18
TORSDOF 8
ENDMDL
MODEL 3
REMARK VINA RESULT:      -5.6      2.230      2.594
REMARK  Name = *****
REMARK                            x       y       z     vdW  Elec       q    Type
REMARK                         _______ _______ _______ _____ _____    ______ ____
ROOT
ATOM      1  C   LIG    1       25.472 -28.709   8.012  0.00  0.00    -0.043 A 
ATOM      2  C   LIG    1       24.485 -29.696   8.117  0.00  0.00    +0.021 A 
ATOM      3  C   LIG    1       24.390 -30.510   9.257  0.00  0.00    +0.057 A 
ATOM      4  I   LIG    1       23.182 -32.225   9.063  0.00  0.00    -0.040 I 
ATOM      5  C   LIG    1       25.183 -30.253  10.390  0.00  0.00    +0.154 A 
ATOM      6  C   LIG    1       26.202 -29.294  10.267  0.00  0.00    +0.057 A 
ATOM      7  I   LIG    1       27.643 -29.013  11.770  0.00  0.00    -0.040 I 
ATOM      8  C   LIG    1       26.347 -28.531   9.092  0.00  0.00    +0.021 A 
ENDROOT
BRANCH   1   9
ATOM      9  C   LIG    1       25.630 -27.937   6.713  0.00  0.00    +0.065 C 
BRANCH   9  10
ATOM     10  CA  LIG    1       24.287 -27.518   6.079  0.00  0.00    +0.165 C 
BRANCH  10  11
ATOM     11  N   LIG    1       23.872 -28.434   4.967  0.00  0.00    -0.318 NA
ATOM     12  H1  LIG    1       23.752 -27.879   4.113  0.00  0.00    +0.119 HD
ATOM     13  H2  LIG    1       24.680 -29.029   4.758  0.00  0.00    +0.119 HD
ENDBRANCH  10  11
BRANCH  10  14
ATOM     14  C   LIG    1       24.383 -26.085   5.513  0.00  0.00    +0.322 C 
ATOM     15  O   LIG    1       25.180 -25.722   4.658  0.00  0.00    -0.249 OA
BRANCH  14  16
ATOM     16  OXT LIG    1       23.479 -25.260   6.090  0.00  0.00    -0.479 OA
ATOM     17  HXT LIG    1       23.919 -24.889   6.895  0.00  0.00    +0.295 HD
ENDBRANCH  14  16
ENDBRANCH  10  14
ENDBRANCH   9  10
ENDBRANCH   1   9
BRANCH   5  18
ATOM     18  O   LIG    1       25.032 -30.948  11.580  0.00  0.00    -0.454 OA
BRANCH  18  19
ATOM     19  C   LIG    1       24.018 -30.549  12.445  0.00  0.00    +0.131 A 
ATOM     20  C   LIG    1       23.306 -31.564  13.111  0.00  0.00    +0.064 A 
ATOM     21  C   LIG    1       22.248 -31.241  13.961  0.00  0.00    +0.059 A 
ATOM     22  I   LIG    1       21.290 -32.798  14.995  0.00  0.00    -0.040 I 
ATOM     23  C   LIG    1       21.842 -29.906  14.115  0.00  0.00    +0.143 A 
ATOM     24  C   LIG    1       22.554 -28.907  13.462  0.00  0.00    +0.059 A 
ATOM     25  I   LIG    1       21.969 -26.899  13.581  0.00  0.00    -0.040 I 
ATOM     26  C   LIG    1       23.665 -29.214  12.667  0.00  0.00    +0.064 A 
BRANCH  23  27
ATOM     27  O   LIG    1       20.744 -29.619  14.891  0.00  0.00    -0.505 OA
ATOM     28  H   LIG    1       21.013 -28.948  15.550  0.00  0.00    +0.292 HD
ENDBRANCH  23  27
ENDBRANCH  18  19
ENDBRANCH   5  18
TORSDOF 8
ENDMDL
MODEL 4
REMARK VINA RESULT:      -5.6      4.112      5.942
REMARK  Name = *****
REMARK                            x       y       z     vdW  Elec       q    Type
REMARK                         _______ _______ _______ _____ _____    ______ ____
ROOT
ATOM      1  C   LIG    1       25.615 -32.197   5.667  0.00  0.00    -0.043 A 
ATOM      2  C   LIG    1       25.626 -30.799   5.738  0.00  0.00    +0.021 A 
ATOM      3  C   LIG    1       24.800 -30.111   6.640  0.00  0.00    +0.057 A 
ATOM      4  I   LIG    1       24.590 -28.043   6.300  0.00  0.00    -0.040 I 
ATOM      5  C   LIG    1       24.053 -30.810   7.605  0.00  0.00    +0.154 A 
ATOM      6  C   LIG    1       24.006 -32.210   7.504  0.00  0.00    +0.057 A 
ATOM      7  I   LIG    1       22.707 -33.363   8.686  0.00  0.00    -0.040 I 
ATOM      8  C   LIG    1       24.777 -32.897   6.545  0.00  0.00    +0.021 A 
ENDROOT
BRANCH   1   9
ATOM      9  C   LIG    1       26.421 -32.904   4.591  0.00  0.00    +0.065 C 
BRANCH   9  10
ATOM     10  CA  LIG    1       25.824 -32.752   3.175  0.00  0.00    +0.165 C 
BRANCH  10  11
ATOM     11  N   LIG    1       24.542 -33.511   3.013  0.00  0.00    -0.318 NA
ATOM     12  H1  LIG    1       23.794 -32.997   3.494  0.00  0.00    +0.119 HD
ATOM     13  H2  LIG    1       24.282 -33.443   2.023  0.00  0.00    +0.119 HD
ENDBRANCH  10  11
BRANCH  10  14
ATOM     14  C   LIG    1       26.824 -33.258   2.113  0.00  0.00    +0.322 C 
ATOM     15  O   LIG    1       27.917 -33.750   2.359  0.00  0.00    -0.249 OA
BRANCH  14  16
ATOM     16  OXT LIG    1       26.349 -33.081   0.859  0.00  0.00    -0.479 OA
ATOM     17  HXT LIG    1       26.093 -33.979   0.531  0.00  0.00    +0.295 HD
ENDBRANCH  14  16
ENDBRANCH  10  14
ENDBRANCH   9  10
ENDBRANCH   1   9
BRANCH   5  18
ATOM     18  O   LIG    1       23.326 -30.167   8.595  0.00  0.00    -0.454 OA
BRANCH  18  19
ATOM     19  C   LIG    1       23.902 -30.049   9.856  0.00  0.00    +0.131 A 
ATOM     20  C   LIG    1       23.035 -30.079  10.964  0.00  0.00    +0.064 A 
ATOM     21  C   LIG    1       23.537 -29.923  12.256  0.00  0.00    +0.059 A 
ATOM     22  I   LIG    1       22.200 -30.073  13.869  0.00  0.00    -0.040 I 
ATOM     23  C   LIG    1       24.903 -29.675  12.463  0.00  0.00    +0.143 A 
ATOM     24  C   LIG    1       25.756 -29.654  11.366  0.00  0.00    +0.059 A 
ATOM     25  I   LIG    1       27.793 -29.217  11.581  0.00  0.00    -0.040 I 
ATOM     26  C   LIG    1       25.275 -29.886  10.072  0.00  0.00    +0.064 A 
BRANCH  23  27
ATOM     27  O   LIG    1       25.361 -29.440  13.738  0.00  0.00    -0.505 OA
ATOM     28  H   LIG    1       24.793 -28.749  14.135  0.00  0.00    +0.292 HD
ENDBRANCH  23  27
ENDBRANCH  18  19
ENDBRANCH   5  18
TORSDOF 8
ENDMDL
MODEL 5
REMARK VINA RESULT:      -5.5      2.216      3.143
REMARK  Name = *****
REMARK                            x       y       z     vdW  Elec       q    Type
REMARK                         _______ _______ _______ _____ _____    ______ ____
ROOT
ATOM      1  C   LIG    1       25.454 -28.843   8.004  0.00  0.00    -0.043 A 
ATOM      2  C   LIG    1       24.465 -29.828   8.112  0.00  0.00    +0.021 A 
ATOM      3  C   LIG    1       24.345 -30.614   9.269  0.00  0.00    +0.057 A 
ATOM      4  I   LIG    1       23.142 -32.334   9.090  0.00  0.00    -0.040 I 
ATOM      5  C   LIG    1       25.112 -30.329  10.412  0.00  0.00    +0.154 A 
ATOM      6  C   LIG    1       26.133 -29.373  10.289  0.00  0.00    +0.057 A 
ATOM      7  I   LIG    1       27.540 -29.053  11.817  0.00  0.00    -0.040 I 
ATOM      8  C   LIG    1       26.304 -28.638   9.099  0.00  0.00    +0.021 A 
ENDROOT
BRANCH   1   9
ATOM      9  C   LIG    1       25.642 -28.103   6.691  0.00  0.00    +0.065 C 
BRANCH   9  10
ATOM     10  CA  LIG    1       24.324 -27.561   6.097  0.00  0.00    +0.165 C 
BRANCH  10  11
ATOM     11  N   LIG    1       23.774 -28.451   5.024  0.00  0.00    -0.318 NA
ATOM     12  H1  LIG    1       22.797 -28.190   4.851  0.00  0.00    +0.119 HD
ATOM     13  H2  LIG    1       24.251 -28.194   4.154  0.00  0.00    +0.119 HD
ENDBRANCH  10  11
BRANCH  10  14
ATOM     14  C   LIG    1       24.545 -26.156   5.494  0.00  0.00    +0.322 C 
ATOM     15  O   LIG    1       25.510 -25.830   4.816  0.00  0.00    -0.249 OA
BRANCH  14  16
ATOM     16  OXT LIG    1       23.539 -25.312   5.818  0.00  0.00    -0.479 OA
ATOM     17  HXT LIG    1       22.785 -25.538   5.218  0.00  0.00    +0.295 HD
ENDBRANCH  14  16
ENDBRANCH  10  14
ENDBRANCH   9  10
ENDBRANCH   1   9
BRANCH   5  18
ATOM     18  O   LIG    1       24.934 -30.994  11.615  0.00  0.00    -0.454 OA
BRANCH  18  19
ATOM     19  C   LIG    1       23.839 -30.646  12.398  0.00  0.00    +0.131 A 
ATOM     20  C   LIG    1       23.588 -29.274  12.579  0.00  0.00    +0.064 A 
ATOM     21  C   LIG    1       22.532 -28.850  13.387  0.00  0.00    +0.059 A 
ATOM     22  I   LIG    1       22.157 -26.789  13.536  0.00  0.00    -0.040 I 
ATOM     23  C   LIG    1       21.745 -29.785  14.077  0.00  0.00    +0.143 A 
ATOM     24  C   LIG    1       21.992 -31.140  13.889  0.00  0.00    +0.059 A 
ATOM     25  I   LIG    1       20.913 -32.597  14.937  0.00  0.00    -0.040 I 
ATOM     26  C   LIG    1       22.999 -31.577  13.021  0.00  0.00    +0.064 A 
BRANCH  23  27
ATOM     27  O   LIG    1       20.766 -29.342  14.934  0.00  0.00    -0.505 OA
ATOM     28  H   LIG    1       20.895 -28.380  15.060  0.00  0.00    +0.292 HD
ENDBRANCH  23  27
ENDBRANCH  18  19
ENDBRANCH   5  18
TORSDOF 8
ENDMDL
MODEL 6
REMARK VINA RESULT:      -5.4      2.049      2.282
REMARK  Name = *****
REMARK                            x       y       z     vdW  Elec       q    Type
REMARK                         _______ _______ _______ _____ _____    ______ ____
ROOT
ATOM      1  C   LIG    1       24.603 -28.260   6.335  0.00  0.00    -0.043 A 
ATOM      2  C   LIG    1       24.280 -29.564   5.941  0.00  0.00    +0.021 A 
ATOM      3  C   LIG    1       24.653 -30.672   6.719  0.00  0.00    +0.057 A 
ATOM      4  I   LIG    1       24.513 -32.548   5.771  0.00  0.00    -0.040 I 
ATOM      5  C   LIG    1       25.225 -30.495   7.991  0.00  0.00    +0.154 A 
ATOM      6  C   LIG    1       25.590 -29.191   8.366  0.00  0.00    +0.057 A 
ATOM      7  I   LIG    1       26.710 -28.811  10.102  0.00  0.00    -0.040 I 
ATOM      8  C   LIG    1       25.284 -28.085   7.547  0.00  0.00    +0.021 A 
ENDROOT
BRANCH   1   9
ATOM      9  C   LIG    1       24.302 -27.096   5.408  0.00  0.00    +0.065 C 
BRANCH   9  10
ATOM     10  CA  LIG    1       25.560 -26.310   4.979  0.00  0.00    +0.165 C 
BRANCH  10  11
ATOM     11  N   LIG    1       26.828 -27.026   5.333  0.00  0.00    -0.318 NA
ATOM     12  H1  LIG    1       27.074 -26.794   6.302  0.00  0.00    +0.119 HD
ATOM     13  H2  LIG    1       26.601 -28.025   5.374  0.00  0.00    +0.119 HD
ENDBRANCH  10  11
BRANCH  10  14
ATOM     14  C   LIG    1       25.582 -24.922   5.655  0.00  0.00    +0.322 C 
ATOM     15  O   LIG    1       26.067 -24.687   6.754  0.00  0.00    -0.249 OA
BRANCH  14  16
ATOM     16  OXT LIG    1       24.985 -23.983   4.885  0.00  0.00    -0.479 OA
ATOM     17  HXT LIG    1       25.494 -23.957   4.037  0.00  0.00    +0.295 HD
ENDBRANCH  14  16
ENDBRANCH  10  14
ENDBRANCH   9  10
ENDBRANCH   1   9
BRANCH   5  18
ATOM     18  O   LIG    1       25.489 -31.555   8.845  0.00  0.00    -0.454 OA
BRANCH  18  19
ATOM     19  C   LIG    1       24.603 -31.788   9.891  0.00  0.00    +0.131 A 
ATOM     20  C   LIG    1       25.089 -32.513  10.995  0.00  0.00    +0.064 A 
ATOM     21  C   LIG    1       24.245 -32.822  12.062  0.00  0.00    +0.059 A 
ATOM     22  I   LIG    1       25.060 -33.824  13.718  0.00  0.00    -0.040 I 
ATOM     23  C   LIG    1       22.888 -32.465  12.022  0.00  0.00    +0.143 A 
ATOM     24  C   LIG    1       22.415 -31.742  10.934  0.00  0.00    +0.059 A 
ATOM     25  I   LIG    1       20.390 -31.235  10.762  0.00  0.00    -0.040 I 
ATOM     26  C   LIG    1       23.271 -31.361   9.893  0.00  0.00    +0.064 A 
BRANCH  23  27
ATOM     27  O   LIG    1       22.057 -32.854  13.046  0.00  0.00    -0.505 OA
ATOM     28  H   LIG    1       21.209 -32.379  12.936  0.00  0.00    +0.292 HD
ENDBRANCH  23  27
ENDBRANCH  18  19
ENDBRANCH   5  18
TORSDOF 8
ENDMDL
MODEL 7
REMARK VINA RESULT:      -5.3      3.582      6.805
REMARK  Name = *****
REMARK                            x       y       z     vdW  Elec       q    Type
REMARK                         _______ _______ _______ _____ _____    ______ ____
ROOT
ATOM      1  C   LIG    1       22.542 -28.262  13.059  0.00  0.00    -0.043 A 
ATOM      2  C   LIG    1       23.892 -27.963  12.844  0.00  0.00    +0.021 A 
ATOM      3  C   LIG    1       24.710 -28.806  12.075  0.00  0.00    +0.057 A 
ATOM      4  I   LIG    1       26.783 -28.474  12.240  0.00  0.00    -0.040 I 
ATOM      5  C   LIG    1       24.159 -29.890  11.370  0.00  0.00    +0.154 A 
ATOM      6  C   LIG    1       22.817 -30.217  11.621  0.00  0.00    +0.057 A 
ATOM      7  I   LIG    1       21.945 -31.974  10.869  0.00  0.00    -0.040 I 
ATOM      8  C   LIG    1       22.016 -29.413  12.457  0.00  0.00    +0.021 A 
ENDROOT
BRANCH   1   9
ATOM      9  C   LIG    1       21.720 -27.402  14.003  0.00  0.00    +0.065 C 
BRANCH   9  10
ATOM     10  CA  LIG    1       20.209 -27.411  13.685  0.00  0.00    +0.165 C 
BRANCH  10  11
ATOM     11  N   LIG    1       19.832 -26.367  12.678  0.00  0.00    -0.318 NA
ATOM     12  H1  LIG    1       19.857 -25.448  13.134  0.00  0.00    +0.119 HD
ATOM     13  H2  LIG    1       20.600 -26.321  11.999  0.00  0.00    +0.119 HD
ENDBRANCH  10  11
BRANCH  10  14
ATOM     14  C   LIG    1       19.388 -27.162  14.970  0.00  0.00    +0.322 C 
ATOM     15  O   LIG    1       18.590 -27.953  15.454  0.00  0.00    -0.249 OA
BRANCH  14  16
ATOM     16  OXT LIG    1       19.650 -25.945  15.500  0.00  0.00    -0.479 OA
ATOM     17  HXT LIG    1       20.427 -26.067  16.100  0.00  0.00    +0.295 HD
ENDBRANCH  14  16
ENDBRANCH  10  14
ENDBRANCH   9  10
ENDBRANCH   1   9
BRANCH   5  18
ATOM     18  O   LIG    1       24.905 -30.669  10.498  0.00  0.00    -0.454 OA
BRANCH  18  19
ATOM     19  C   LIG    1       24.786 -30.420   9.135  0.00  0.00    +0.131 A 
ATOM     20  C   LIG    1       24.487 -31.516   8.305  0.00  0.00    +0.064 A 
ATOM     21  C   LIG    1       24.396 -31.349   6.922  0.00  0.00    +0.059 A 
ATOM     22  I   LIG    1       23.853 -33.007   5.753  0.00  0.00    -0.040 I 
ATOM     23  C   LIG    1       24.660 -30.100   6.338  0.00  0.00    +0.143 A 
ATOM     24  C   LIG    1       24.946 -29.019   7.163  0.00  0.00    +0.059 A 
ATOM     25  I   LIG    1       25.424 -27.141   6.368  0.00  0.00    -0.040 I 
ATOM     26  C   LIG    1       24.966 -29.158   8.556  0.00  0.00    +0.064 A 
BRANCH  23  27
ATOM     27  O   LIG    1       24.647 -29.979   4.969  0.00  0.00    -0.505 OA
ATOM     28  H   LIG    1       24.889 -30.849   4.592  0.00  0.00    +0.292 HD
ENDBRANCH  23  27
ENDBRANCH  18  19
ENDBRANCH   5  18
TORSDOF 8
ENDMDL
MODEL 8
REMARK VINA RESULT:      -5.3      4.121      5.981
REMARK  Name = *****
REMARK                            x       y       z     vdW  Elec       q    Type
REMARK                         _______ _______ _______ _____ _____    ______ ____
ROOT
ATOM      1  C   LIG    1       25.602 -32.183   5.678  0.00  0.00    -0.043 A 
ATOM      2  C   LIG    1       25.624 -30.786   5.760  0.00  0.00    +0.021 A 
ATOM      3  C   LIG    1       24.797 -30.097   6.661  0.00  0.00    +0.057 A 
ATOM      4  I   LIG    1       24.608 -28.025   6.335  0.00  0.00    -0.040 I 
ATOM      5  C   LIG    1       24.037 -30.797   7.615  0.00  0.00    +0.154 A 
ATOM      6  C   LIG    1       23.979 -32.195   7.503  0.00  0.00    +0.057 A 
ATOM      7  I   LIG    1       22.661 -33.346   8.667  0.00  0.00    -0.040 I 
ATOM      8  C   LIG    1       24.751 -32.882   6.545  0.00  0.00    +0.021 A 
ENDROOT
BRANCH   1   9
ATOM      9  C   LIG    1       26.410 -32.888   4.603  0.00  0.00    +0.065 C 
BRANCH   9  10
ATOM     10  CA  LIG    1       25.808 -32.746   3.188  0.00  0.00    +0.165 C 
BRANCH  10  11
ATOM     11  N   LIG    1       24.533 -33.518   3.031  0.00  0.00    -0.318 NA
ATOM     12  H1  LIG    1       24.539 -33.976   2.113  0.00  0.00    +0.119 HD
ATOM     13  H2  LIG    1       24.579 -34.300   3.692  0.00  0.00    +0.119 HD
ENDBRANCH  10  11
BRANCH  10  14
ATOM     14  C   LIG    1       26.810 -33.245   2.125  0.00  0.00    +0.322 C 
ATOM     15  O   LIG    1       27.897 -33.751   2.371  0.00  0.00    -0.249 OA
BRANCH  14  16
ATOM     16  OXT LIG    1       26.347 -33.044   0.870  0.00  0.00    -0.479 OA
ATOM     17  HXT LIG    1       27.145 -32.949   0.293  0.00  0.00    +0.295 HD
ENDBRANCH  14  16
ENDBRANCH  10  14
ENDBRANCH   9  10
ENDBRANCH   1   9
BRANCH   5  18
ATOM     18  O   LIG    1       23.308 -30.155   8.605  0.00  0.00    -0.454 OA
BRANCH  18  19
ATOM     19  C   LIG    1       23.827 -30.145   9.895  0.00  0.00    +0.131 A 
ATOM     20  C   LIG    1       25.190 -29.827  10.038  0.00  0.00    +0.064 A 
ATOM     21  C   LIG    1       25.789 -29.839  11.298  0.00  0.00    +0.059 A 
ATOM     22  I   LIG    1       27.803 -29.262  11.448  0.00  0.00    -0.040 I 
ATOM     23  C   LIG    1       25.056 -30.227  12.430  0.00  0.00    +0.143 A 
ATOM     24  C   LIG    1       23.708 -30.533  12.285  0.00  0.00    +0.059 A 
ATOM     25  I   LIG    1       22.562 -31.191  13.910  0.00  0.00    -0.040 I 
ATOM     26  C   LIG    1       23.078 -30.449  11.038  0.00  0.00    +0.064 A 
BRANCH  23  27
ATOM     27  O   LIG    1       25.689 -30.314  13.647  0.00  0.00    -0.505 OA
ATOM     28  H   LIG    1       25.487 -31.193  14.025  0.00  0.00    +0.292 HD
ENDBRANCH  23  27
ENDBRANCH  18  19
ENDBRANCH   5  18
TORSDOF 8
ENDMDL
MODEL 9
REMARK VINA RESULT:      -5.3      3.002      4.274
REMARK  Name = *****
REMARK                            x       y       z     vdW  Elec       q    Type
REMARK                         _______ _______ _______ _____ _____    ______ ____
ROOT
ATOM      1  C   LIG    1       25.257 -29.438   8.086  0.00  0.00    -0.043 A 
ATOM      2  C   LIG    1       24.051 -29.985   8.540  0.00  0.00    +0.021 A 
ATOM      3  C   LIG    1       23.853 -30.278   9.898  0.00  0.00    +0.057 A 
ATOM      4  I   LIG    1       22.202 -31.510  10.340  0.00  0.00    -0.040 I 
ATOM      5  C   LIG    1       24.799 -29.886  10.862  0.00  0.00    +0.154 A 
ATOM      6  C   LIG    1       26.025 -29.381  10.403  0.00  0.00    +0.057 A 
ATOM      7  I   LIG    1       27.636 -29.029  11.706  0.00  0.00    -0.040 I 
ATOM      8  C   LIG    1       26.254 -29.159   9.030  0.00  0.00    +0.021 A 
ENDROOT
BRANCH   1   9
ATOM      9  C   LIG    1       25.488 -29.257   6.595  0.00  0.00    +0.065 C 
BRANCH   9  10
ATOM     10  CA  LIG    1       24.604 -28.160   5.964  0.00  0.00    +0.165 C 
BRANCH  10  11
ATOM     11  N   LIG    1       23.629 -28.716   4.971  0.00  0.00    -0.318 NA
ATOM     12  H1  LIG    1       23.362 -29.661   5.268  0.00  0.00    +0.119 HD
ATOM     13  H2  LIG    1       22.763 -28.176   5.073  0.00  0.00    +0.119 HD
ENDBRANCH  10  11
BRANCH  10  14
ATOM     14  C   LIG    1       25.479 -27.110   5.248  0.00  0.00    +0.322 C 
ATOM     15  O   LIG    1       25.073 -26.042   4.808  0.00  0.00    -0.249 OA
BRANCH  14  16
ATOM     16  OXT LIG    1       26.766 -27.516   5.150  0.00  0.00    -0.479 OA
ATOM     17  HXT LIG    1       26.736 -28.496   5.012  0.00  0.00    +0.295 HD
ENDBRANCH  14  16
ENDBRANCH  10  14
ENDBRANCH   9  10
ENDBRANCH   1   9
BRANCH   5  18
ATOM     18  O   LIG    1       24.584 -30.040  12.223  0.00  0.00    -0.454 OA
BRANCH  18  19
ATOM     19  C   LIG    1       23.874 -29.046  12.889  0.00  0.00    +0.131 A 
ATOM     20  C   LIG    1       24.595 -27.913  13.309  0.00  0.00    +0.064 A 
ATOM     21  C   LIG    1       23.958 -26.895  14.020  0.00  0.00    +0.059 A 
ATOM     22  I   LIG    1       25.072 -25.190  14.533  0.00  0.00    -0.040 I 
ATOM     23  C   LIG    1       22.606 -27.016  14.377  0.00  0.00    +0.143 A 
ATOM     24  C   LIG    1       21.897 -28.134  13.952  0.00  0.00    +0.059 A 
ATOM     25  I   LIG    1       19.897 -28.426  14.504  0.00  0.00    -0.040 I 
ATOM     26  C   LIG    1       22.506 -29.124  13.173  0.00  0.00    +0.064 A 
BRANCH  23  27
ATOM     27  O   LIG    1       22.022 -26.042  15.150  0.00  0.00    -0.505 OA
ATOM     28  H   LIG    1       21.053 -26.103  15.023  0.00  0.00    +0.292 HD
ENDBRANCH  23  27
ENDBRANCH  18  19
ENDBRANCH   5  18
TORSDOF 8
ENDMDL
