MODEL 1
REMARK VINA RESULT:      -7.2      0.000      0.000
REMARK  Name = *****
REMARK                            x       y       z     vdW  Elec       q    Type
REMARK                         _______ _______ _______ _____ _____    ______ ____
ROOT
ATOM      1  C   LIG    1       27.054 -21.004   6.747  0.00  0.00    +0.258 A 
ATOM      2  N   LIG    1       27.760 -21.614   7.723  0.00  0.00    -0.175 NA
ATOM      3  C   LIG    1       29.001 -21.158   7.940  0.00  0.00    +0.219 A 
ATOM      4  C   LIG    1       29.579 -20.134   7.229  0.00  0.00    +0.090 A 
ATOM      5  C   LIG    1       28.801 -19.575   6.240  0.00  0.00    +0.047 A 
ATOM      6  C   LIG    1       29.343 -18.477   5.376  0.00  0.00    +0.066 C 
ATOM      7  N   LIG    1       27.543 -19.991   5.995  0.00  0.00    -0.216 NA
ENDROOT
BRANCH   1   9
ATOM      8  C   LIG    1       25.182 -22.739   6.779  0.00  0.00    +0.221 A 
ATOM      9  N   LIG    1       25.713 -21.478   6.494  0.00  0.00    -0.165 N 
ATOM     10  N   LIG    1       24.778 -20.667   5.898  0.00  0.00    -0.166 NA
ATOM     11  C   LIG    1       23.662 -21.395   5.862  0.00  0.00    +0.064 A 
ATOM     12  C   LIG    1       22.423 -20.825   5.280  0.00  0.00    +0.067 C 
ATOM     13  C   LIG    1       23.851 -22.678   6.409  0.00  0.00    +0.092 A 
BRANCH   8  15
ATOM     14  C   LIG    1       25.902 -24.968   6.618  0.00  0.00    +0.278 C 
ATOM     15  O   LIG    1       25.937 -23.719   7.290  0.00  0.00    -0.479 OA
ENDBRANCH   8  15
ENDBRANCH   1   9
BRANCH   3  16
ATOM     16  O   LIG    1       29.781 -21.732   8.926  0.00  0.00    -0.479 OA
ATOM     17  C   LIG    1       31.139 -21.300   8.878  0.00  0.00    +0.278 C 
ENDBRANCH   3  16
TORSDOF 3
ENDMDL
MODEL 2
REMARK VINA RESULT:      -7.0      1.480      2.484
REMARK  Name = *****
REMARK                            x       y       z     vdW  Elec       q    Type
REMARK                         _______ _______ _______ _____ _____    ______ ____
ROOT
ATOM      1  C   LIG    1       26.626 -21.841   6.876  0.00  0.00    +0.258 A 
ATOM      2  N   LIG    1       27.553 -22.090   7.826  0.00  0.00    -0.175 NA
ATOM      3  C   LIG    1       28.600 -21.257   7.874  0.00  0.00    +0.219 A 
ATOM      4  C   LIG    1       28.779 -20.195   7.020  0.00  0.00    +0.090 A 
ATOM      5  C   LIG    1       27.799 -20.018   6.068  0.00  0.00    +0.047 A 
ATOM      6  C   LIG    1       27.910 -18.916   5.060  0.00  0.00    +0.066 C 
ATOM      7  N   LIG    1       26.721 -20.823   5.990  0.00  0.00    -0.216 NA
ENDROOT
BRANCH   1   9
ATOM      8  C   LIG    1       24.148 -22.424   7.070  0.00  0.00    +0.221 A 
ATOM      9  N   LIG    1       25.487 -22.726   6.804  0.00  0.00    -0.165 N 
ATOM     10  N   LIG    1       25.637 -24.044   6.447  0.00  0.00    -0.166 NA
ATOM     11  C   LIG    1       24.402 -24.544   6.438  0.00  0.00    +0.064 A 
ATOM     12  C   LIG    1       24.179 -25.966   6.084  0.00  0.00    +0.067 C 
ATOM     13  C   LIG    1       23.441 -23.580   6.799  0.00  0.00    +0.092 A 
BRANCH   8  15
ATOM     14  C   LIG    1       23.172 -20.348   6.566  0.00  0.00    +0.278 C 
ATOM     15  O   LIG    1       23.777 -21.216   7.512  0.00  0.00    -0.479 OA
ENDBRANCH   8  15
ENDBRANCH   1   9
BRANCH   3  16
ATOM     16  O   LIG    1       29.586 -21.447   8.823  0.00  0.00    -0.479 OA
ATOM     17  C   LIG    1       30.794 -20.754   8.514  0.00  0.00    +0.278 C 
ENDBRANCH   3  16
TORSDOF 3
ENDMDL
MODEL 3
REMARK VINA RESULT:      -6.9      2.325      3.375
REMARK  Name = *****
REMARK                            x       y       z     vdW  Elec       q    Type
REMARK                         _______ _______ _______ _____ _____    ______ ____
ROOT
ATOM      1  C   LIG    1       28.954 -20.083   7.484  0.00  0.00    +0.258 A 
ATOM      2  N   LIG    1       29.538 -18.866   7.489  0.00  0.00    -0.175 NA
ATOM      3  C   LIG    1       30.739 -18.780   8.078  0.00  0.00    +0.219 A 
ATOM      4  C   LIG    1       31.382 -19.841   8.670  0.00  0.00    +0.090 A 
ATOM      5  C   LIG    1       30.713 -21.044   8.638  0.00  0.00    +0.047 A 
ATOM      6  C   LIG    1       31.303 -22.259   9.287  0.00  0.00    +0.066 C 
ATOM      7  N   LIG    1       29.511 -21.180   8.046  0.00  0.00    -0.216 NA
ENDROOT
BRANCH   1   9
ATOM      8  C   LIG    1       26.451 -20.585   7.445  0.00  0.00    +0.221 A 
ATOM      9  N   LIG    1       27.659 -20.200   6.855  0.00  0.00    -0.165 N 
ATOM     10  N   LIG    1       27.495 -19.932   5.518  0.00  0.00    -0.166 NA
ATOM     11  C   LIG    1       26.192 -20.093   5.289  0.00  0.00    +0.064 A 
ATOM     12  C   LIG    1       25.645 -19.874   3.929  0.00  0.00    +0.067 C 
ATOM     13  C   LIG    1       25.497 -20.480   6.451  0.00  0.00    +0.092 A 
BRANCH   8  15
ATOM     14  C   LIG    1       25.875 -22.270   8.976  0.00  0.00    +0.278 C 
ATOM     15  O   LIG    1       26.388 -20.970   8.725  0.00  0.00    -0.479 OA
ENDBRANCH   8  15
ENDBRANCH   1   9
BRANCH   3  16
ATOM     16  O   LIG    1       31.400 -17.568   8.118  0.00  0.00    -0.479 OA
ATOM     17  C   LIG    1       32.114 -17.366   9.335  0.00  0.00    +0.278 C 
ENDBRANCH   3  16
TORSDOF 3
ENDMDL
MODEL 4
REMARK VINA RESULT:      -6.9      1.484      2.317
REMARK  Name = *****
REMARK                            x       y       z     vdW  Elec       q    Type
REMARK                         _______ _______ _______ _____ _____    ______ ____
ROOT
ATOM      1  C   LIG    1       27.253 -21.016   6.671  0.00  0.00    +0.258 A 
ATOM      2  N   LIG    1       27.899 -21.628   7.686  0.00  0.00    -0.175 NA
ATOM      3  C   LIG    1       29.101 -21.137   8.014  0.00  0.00    +0.219 A 
ATOM      4  C   LIG    1       29.698 -20.076   7.378  0.00  0.00    +0.090 A 
ATOM      5  C   LIG    1       28.984 -19.516   6.342  0.00  0.00    +0.047 A 
ATOM      6  C   LIG    1       29.555 -18.379   5.552  0.00  0.00    +0.066 C 
ATOM      7  N   LIG    1       27.766 -19.968   5.985  0.00  0.00    -0.216 NA
ENDROOT
BRANCH   1   9
ATOM      8  C   LIG    1       25.080 -21.022   5.330  0.00  0.00    +0.221 A 
ATOM      9  N   LIG    1       25.955 -21.526   6.298  0.00  0.00    -0.165 N 
ATOM     10  N   LIG    1       25.425 -22.632   6.917  0.00  0.00    -0.166 NA
ATOM     11  C   LIG    1       24.261 -22.848   6.307  0.00  0.00    +0.064 A 
ATOM     12  C   LIG    1       23.406 -23.986   6.720  0.00  0.00    +0.067 C 
ATOM     13  C   LIG    1       24.006 -21.892   5.306  0.00  0.00    +0.092 A 
BRANCH   8  15
ATOM     14  C   LIG    1       24.381 -19.463   3.720  0.00  0.00    +0.278 C 
ATOM     15  O   LIG    1       25.355 -19.900   4.655  0.00  0.00    -0.479 OA
ENDBRANCH   8  15
ENDBRANCH   1   9
BRANCH   3  16
ATOM     16  O   LIG    1       29.819 -21.710   9.046  0.00  0.00    -0.479 OA
ATOM     17  C   LIG    1       31.226 -21.517   8.917  0.00  0.00    +0.278 C 
ENDBRANCH   3  16
TORSDOF 3
ENDMDL
MODEL 5
REMARK VINA RESULT:      -6.8      1.750      5.926
REMARK  Name = *****
REMARK                            x       y       z     vdW  Elec       q    Type
REMARK                         _______ _______ _______ _____ _____    ______ ____
ROOT
ATOM      1  C   LIG    1       26.766 -21.638   7.201  0.00  0.00    +0.258 A 
ATOM      2  N   LIG    1       25.751 -20.748   7.241  0.00  0.00    -0.175 NA
ATOM      3  C   LIG    1       24.514 -21.244   7.111  0.00  0.00    +0.219 A 
ATOM      4  C   LIG    1       24.235 -22.578   6.933  0.00  0.00    +0.090 A 
ATOM      5  C   LIG    1       25.323 -23.419   6.887  0.00  0.00    +0.047 A 
ATOM      6  C   LIG    1       25.140 -24.888   6.658  0.00  0.00    +0.066 C 
ATOM      7  N   LIG    1       26.585 -22.968   7.026  0.00  0.00    -0.216 NA
ENDROOT
BRANCH   1   9
ATOM      8  C   LIG    1       28.737 -20.145   6.567  0.00  0.00    +0.221 A 
ATOM      9  N   LIG    1       28.110 -21.128   7.339  0.00  0.00    -0.165 N 
ATOM     10  N   LIG    1       28.953 -21.609   8.311  0.00  0.00    -0.166 NA
ATOM     11  C   LIG    1       30.073 -20.898   8.182  0.00  0.00    +0.064 A 
ATOM     12  C   LIG    1       31.219 -21.148   9.089  0.00  0.00    +0.067 C 
ATOM     13  C   LIG    1       29.987 -19.966   7.130  0.00  0.00    +0.092 A 
BRANCH   8  15
ATOM     14  C   LIG    1       28.635 -18.339   5.069  0.00  0.00    +0.278 C 
ATOM     15  O   LIG    1       28.131 -19.591   5.511  0.00  0.00    -0.479 OA
ENDBRANCH   8  15
ENDBRANCH   1   9
BRANCH   3  16
ATOM     16  O   LIG    1       23.425 -20.394   7.146  0.00  0.00    -0.479 OA
ATOM     17  C   LIG    1       22.869 -20.153   5.855  0.00  0.00    +0.278 C 
ENDBRANCH   3  16
TORSDOF 3
ENDMDL
MODEL 6
REMARK VINA RESULT:      -6.7      1.532      5.674
REMARK  Name = *****
REMARK                            x       y       z     vdW  Elec       q    Type
REMARK                         _______ _______ _______ _____ _____    ______ ____
ROOT
ATOM      1  C   LIG    1       26.786 -21.677   7.113  0.00  0.00    +0.258 A 
ATOM      2  N   LIG    1       26.654 -23.021   7.095  0.00  0.00    -0.175 NA
ATOM      3  C   LIG    1       25.412 -23.500   6.943  0.00  0.00    +0.219 A 
ATOM      4  C   LIG    1       24.294 -22.711   6.819  0.00  0.00    +0.090 A 
ATOM      5  C   LIG    1       24.509 -21.352   6.864  0.00  0.00    +0.047 A 
ATOM      6  C   LIG    1       23.357 -20.397   6.778  0.00  0.00    +0.066 C 
ATOM      7  N   LIG    1       25.741 -20.824   7.002  0.00  0.00    -0.216 NA
ENDROOT
BRANCH   1   9
ATOM      8  C   LIG    1       28.732 -20.137   6.518  0.00  0.00    +0.221 A 
ATOM      9  N   LIG    1       28.115 -21.137   7.275  0.00  0.00    -0.165 N 
ATOM     10  N   LIG    1       28.953 -21.603   8.259  0.00  0.00    -0.166 NA
ATOM     11  C   LIG    1       30.057 -20.865   8.152  0.00  0.00    +0.064 A 
ATOM     12  C   LIG    1       31.193 -21.092   9.077  0.00  0.00    +0.067 C 
ATOM     13  C   LIG    1       29.968 -19.931   7.102  0.00  0.00    +0.092 A 
BRANCH   8  15
ATOM     14  C   LIG    1       28.594 -18.315   5.042  0.00  0.00    +0.278 C 
ATOM     15  O   LIG    1       28.131 -19.592   5.453  0.00  0.00    -0.479 OA
ENDBRANCH   8  15
ENDBRANCH   1   9
BRANCH   3  16
ATOM     16  O   LIG    1       25.201 -24.865   6.911  0.00  0.00    -0.479 OA
ATOM     17  C   LIG    1       24.009 -25.225   6.218  0.00  0.00    +0.278 C 
ENDBRANCH   3  16
TORSDOF 3
ENDMDL
MODEL 7
REMARK VINA RESULT:      -6.6      2.169      3.735
REMARK  Name = *****
REMARK                            x       y       z     vdW  Elec       q    Type
REMARK                         _______ _______ _______ _____ _____    ______ ____
ROOT
ATOM      1  C   LIG    1       25.671 -22.986   6.218  0.00  0.00    +0.258 A 
ATOM      2  N   LIG    1       26.555 -22.727   7.205  0.00  0.00    -0.175 NA
ATOM      3  C   LIG    1       26.960 -21.456   7.328  0.00  0.00    +0.219 A 
ATOM      4  C   LIG    1       26.539 -20.432   6.514  0.00  0.00    +0.090 A 
ATOM      5  C   LIG    1       25.651 -20.780   5.521  0.00  0.00    +0.047 A 
ATOM      6  C   LIG    1       25.155 -19.752   4.551  0.00  0.00    +0.066 C 
ATOM      7  N   LIG    1       25.205 -22.042   5.367  0.00  0.00    -0.216 NA
ENDROOT
BRANCH   1   9
ATOM      8  C   LIG    1       23.980 -24.887   6.422  0.00  0.00    +0.221 A 
ATOM      9  N   LIG    1       25.220 -24.349   6.064  0.00  0.00    -0.165 N 
ATOM     10  N   LIG    1       26.038 -25.308   5.519  0.00  0.00    -0.166 NA
ATOM     11  C   LIG    1       25.300 -26.417   5.486  0.00  0.00    +0.064 A 
ATOM     12  C   LIG    1       25.870 -27.673   4.943  0.00  0.00    +0.067 C 
ATOM     13  C   LIG    1       24.012 -26.208   6.017  0.00  0.00    +0.092 A 
BRANCH   8  15
ATOM     14  C   LIG    1       22.295 -23.262   6.238  0.00  0.00    +0.278 C 
ATOM     15  O   LIG    1       23.050 -24.152   7.044  0.00  0.00    -0.479 OA
ENDBRANCH   8  15
ENDBRANCH   1   9
BRANCH   3  16
ATOM     16  O   LIG    1       27.861 -21.115   8.319  0.00  0.00    -0.479 OA
ATOM     17  C   LIG    1       29.192 -20.965   7.829  0.00  0.00    +0.278 C 
ENDBRANCH   3  16
TORSDOF 3
ENDMDL
MODEL 8
REMARK VINA RESULT:      -6.6      2.783      5.164
REMARK  Name = *****
REMARK                            x       y       z     vdW  Elec       q    Type
REMARK                         _______ _______ _______ _____ _____    ______ ____
ROOT
ATOM      1  C   LIG    1       24.714 -20.590   5.080  0.00  0.00    +0.258 A 
ATOM      2  N   LIG    1       25.670 -19.905   4.416  0.00  0.00    -0.175 NA
ATOM      3  C   LIG    1       25.265 -18.838   3.716  0.00  0.00    +0.219 A 
ATOM      4  C   LIG    1       23.957 -18.423   3.633  0.00  0.00    +0.090 A 
ATOM      5  C   LIG    1       23.040 -19.183   4.323  0.00  0.00    +0.047 A 
ATOM      6  C   LIG    1       21.581 -18.847   4.273  0.00  0.00    +0.066 C 
ATOM      7  N   LIG    1       23.402 -20.257   5.052  0.00  0.00    -0.216 NA
ENDROOT
BRANCH   1   9
ATOM      8  C   LIG    1       25.737 -21.770   7.100  0.00  0.00    +0.221 A 
ATOM      9  N   LIG    1       25.125 -21.745   5.843  0.00  0.00    -0.165 N 
ATOM     10  N   LIG    1       24.944 -23.017   5.354  0.00  0.00    -0.166 NA
ATOM     11  C   LIG    1       25.386 -23.825   6.317  0.00  0.00    +0.064 A 
ATOM     12  C   LIG    1       25.336 -25.295   6.133  0.00  0.00    +0.067 C 
ATOM     13  C   LIG    1       25.871 -23.106   7.426  0.00  0.00    +0.092 A 
BRANCH   8  15
ATOM     14  C   LIG    1       27.458 -20.296   7.715  0.00  0.00    +0.278 C 
ATOM     15  O   LIG    1       26.082 -20.642   7.733  0.00  0.00    -0.479 OA
ENDBRANCH   8  15
ENDBRANCH   1   9
BRANCH   3  16
ATOM     16  O   LIG    1       26.187 -18.086   3.015  0.00  0.00    -0.479 OA
ATOM     17  C   LIG    1       26.111 -16.694   3.316  0.00  0.00    +0.278 C 
ENDBRANCH   3  16
TORSDOF 3
ENDMDL
MODEL 9
REMARK VINA RESULT:      -6.5      2.061      5.674
REMARK  Name = *****
REMARK                            x       y       z     vdW  Elec       q    Type
REMARK                         _______ _______ _______ _____ _____    ______ ____
ROOT
ATOM      1  C   LIG    1       27.223 -20.528   6.917  0.00  0.00    +0.258 A 
ATOM      2  N   LIG    1       26.253 -20.926   7.768  0.00  0.00    -0.175 NA
ATOM      3  C   LIG    1       25.006 -20.962   7.281  0.00  0.00    +0.219 A 
ATOM      4  C   LIG    1       24.673 -20.612   5.994  0.00  0.00    +0.090 A 
ATOM      5  C   LIG    1       25.715 -20.202   5.194  0.00  0.00    +0.047 A 
ATOM      6  C   LIG    1       25.462 -19.761   3.784  0.00  0.00    +0.066 C 
ATOM      7  N   LIG    1       26.987 -20.162   5.636  0.00  0.00    -0.216 NA
ENDROOT
BRANCH   1   9
ATOM      8  C   LIG    1       29.506 -19.446   7.283  0.00  0.00    +0.221 A 
ATOM      9  N   LIG    1       28.576 -20.481   7.419  0.00  0.00    -0.165 N 
ATOM     10  N   LIG    1       29.108 -21.537   8.120  0.00  0.00    -0.166 NA
ATOM     11  C   LIG    1       30.334 -21.142   8.464  0.00  0.00    +0.064 A 
ATOM     12  C   LIG    1       31.209 -22.044   9.250  0.00  0.00    +0.067 C 
ATOM     13  C   LIG    1       30.625 -19.851   7.986  0.00  0.00    +0.092 A 
BRANCH   8  15
ATOM     14  C   LIG    1       29.725 -18.315   5.236  0.00  0.00    +0.278 C 
ATOM     15  O   LIG    1       29.232 -18.349   6.567  0.00  0.00    -0.479 OA
ENDBRANCH   8  15
ENDBRANCH   1   9
BRANCH   3  16
ATOM     16  O   LIG    1       23.962 -21.363   8.093  0.00  0.00    -0.479 OA
ATOM     17  C   LIG    1       22.998 -22.156   7.404  0.00  0.00    +0.278 C 
ENDBRANCH   3  16
TORSDOF 3
ENDMDL
