MODEL 1
REMARK VINA RESULT:     -10.5      0.000      0.000
REMARK  Name = *****
REMARK                            x       y       z     vdW  Elec       q    Type
REMARK                         _______ _______ _______ _____ _____    ______ ____
ROOT
ATOM      1  N   LIG    1       26.955 -20.986   5.404  0.00  0.00    -0.311 N 
ATOM      2  H   LIG    1       27.463 -21.587   4.762  0.00  0.00    +0.152 HD
ENDROOT
BRANCH   1   3
ATOM      3  C   LIG    1       25.543 -21.238   5.464  0.00  0.00    +0.050 A 
ATOM      4  C   LIG    1       24.571 -20.294   4.995  0.00  0.00    +0.022 A 
ATOM      5  C   LIG    1       23.212 -20.621   5.182  0.00  0.00    +0.073 A 
ATOM      6  C   LIG    1       22.224 -19.699   4.863  0.00  0.00    +0.028 A 
ATOM      7  C   LIG    1       22.522 -18.459   4.301  0.00  0.00    +0.002 A 
ATOM      8  C   LIG    1       23.838 -18.158   3.998  0.00  0.00    +0.001 A 
ATOM      9  N   LIG    1       22.797 -21.803   5.642  0.00  0.00    -0.247 NA
ATOM     10  C   LIG    1       23.694 -22.718   6.011  0.00  0.00    +0.073 A 
ATOM     11  C   LIG    1       23.201 -23.961   6.388  0.00  0.00    +0.028 A 
ATOM     12  C   LIG    1       24.035 -24.978   6.847  0.00  0.00    +0.002 A 
ATOM     13  C   LIG    1       25.390 -24.725   6.987  0.00  0.00    +0.001 A 
ATOM     14  C   LIG    1       25.908 -23.485   6.596  0.00  0.00    +0.012 A 
ATOM     15  C   LIG    1       24.841 -19.074   4.317  0.00  0.00    +0.012 A 
ATOM     16  C   LIG    1       25.083 -22.476   6.030  0.00  0.00    +0.022 A 
ENDBRANCH   1   3
BRANCH   1  18
ATOM     17  C   LIG    1       27.902 -20.264   7.579  0.00  0.00    +0.143 A 
ATOM     18  C   LIG    1       27.828 -20.166   6.162  0.00  0.00    +0.074 A 
ATOM     19  C   LIG    1       28.693 -19.264   5.518  0.00  0.00    +0.029 A 
ATOM     20  C   LIG    1       29.587 -18.470   6.235  0.00  0.00    +0.026 A 
ATOM     21  C   LIG    1       29.616 -18.548   7.619  0.00  0.00    +0.051 A 
ATOM     22  C   LIG    1       28.810 -19.462   8.286  0.00  0.00    +0.072 A 
BRANCH  17  24
ATOM     23  C   LIG    1       25.960 -20.587   8.912  0.00  0.00    +0.277 C 
ATOM     24  O   LIG    1       27.079 -21.166   8.224  0.00  0.00    -0.493 OA
ENDBRANCH  17  24
BRANCH  21  25
ATOM     25  N   LIG    1       30.493 -17.705   8.360  0.00  0.00    -0.221 N 
ATOM     26  H   LIG    1       30.073 -16.837   8.698  0.00  0.00    +0.173 HD
BRANCH  25  27
ATOM     27  S   LIG    1       31.372 -18.416   9.615  0.00  0.00    +0.040 S 
ATOM     28  O   LIG    1       32.098 -19.553   9.130  0.00  0.00    -0.155 OA
ATOM     29  O   LIG    1       30.420 -18.540  10.715  0.00  0.00    -0.155 OA
ATOM     30  C   LIG    1       32.502 -17.108  10.032  0.00  0.00    +0.218 C 
ENDBRANCH  25  27
ENDBRANCH  21  25
ENDBRANCH   1  18
TORSDOF 5
ENDMDL
MODEL 2
REMARK VINA RESULT:     -10.1      0.057      3.427
REMARK  Name = *****
REMARK                            x       y       z     vdW  Elec       q    Type
REMARK                         _______ _______ _______ _____ _____    ______ ____
ROOT
ATOM      1  N   LIG    1       26.956 -20.924   5.323  0.00  0.00    -0.311 N 
ATOM      2  H   LIG    1       27.459 -21.436   4.605  0.00  0.00    +0.152 HD
ENDROOT
BRANCH   1   3
ATOM      3  C   LIG    1       25.567 -21.265   5.437  0.00  0.00    +0.050 A 
ATOM      4  C   LIG    1       25.122 -22.511   5.991  0.00  0.00    +0.022 A 
ATOM      5  C   LIG    1       23.735 -22.765   5.975  0.00  0.00    +0.073 A 
ATOM      6  C   LIG    1       23.249 -24.001   6.381  0.00  0.00    +0.028 A 
ATOM      7  C   LIG    1       24.087 -25.002   6.867  0.00  0.00    +0.002 A 
ATOM      8  C   LIG    1       25.439 -24.740   7.003  0.00  0.00    +0.001 A 
ATOM      9  N   LIG    1       22.826 -21.861   5.603  0.00  0.00    -0.247 NA
ATOM     10  C   LIG    1       23.227 -20.670   5.157  0.00  0.00    +0.073 A 
ATOM     11  C   LIG    1       22.232 -19.740   4.878  0.00  0.00    +0.028 A 
ATOM     12  C   LIG    1       22.524 -18.483   4.354  0.00  0.00    +0.002 A 
ATOM     13  C   LIG    1       23.838 -18.169   4.047  0.00  0.00    +0.001 A 
ATOM     14  C   LIG    1       24.855 -19.086   4.337  0.00  0.00    +0.012 A 
ATOM     15  C   LIG    1       25.941 -23.503   6.595  0.00  0.00    +0.012 A 
ATOM     16  C   LIG    1       24.582 -20.331   4.966  0.00  0.00    +0.022 A 
ENDBRANCH   1   3
BRANCH   1  18
ATOM     17  C   LIG    1       27.882 -20.238   7.519  0.00  0.00    +0.143 A 
ATOM     18  C   LIG    1       27.825 -20.119   6.103  0.00  0.00    +0.074 A 
ATOM     19  C   LIG    1       28.702 -19.213   5.481  0.00  0.00    +0.029 A 
ATOM     20  C   LIG    1       29.592 -18.434   6.220  0.00  0.00    +0.026 A 
ATOM     21  C   LIG    1       29.606 -18.532   7.602  0.00  0.00    +0.051 A 
ATOM     22  C   LIG    1       28.787 -19.451   8.248  0.00  0.00    +0.072 A 
BRANCH  17  24
ATOM     23  C   LIG    1       25.957 -20.566   8.875  0.00  0.00    +0.277 C 
ATOM     24  O   LIG    1       27.047 -21.144   8.141  0.00  0.00    -0.493 OA
ENDBRANCH  17  24
BRANCH  21  25
ATOM     25  N   LIG    1       30.479 -17.704   8.365  0.00  0.00    -0.221 N 
ATOM     26  H   LIG    1       30.055 -16.846   8.724  0.00  0.00    +0.173 HD
BRANCH  25  27
ATOM     27  S   LIG    1       31.358 -18.444   9.604  0.00  0.00    +0.040 S 
ATOM     28  O   LIG    1       32.072 -19.578   9.097  0.00  0.00    -0.155 OA
ATOM     29  O   LIG    1       30.411 -18.577  10.707  0.00  0.00    -0.155 OA
ATOM     30  C   LIG    1       32.502 -17.151  10.036  0.00  0.00    +0.218 C 
ENDBRANCH  25  27
ENDBRANCH  21  25
ENDBRANCH   1  18
TORSDOF 5
ENDMDL
MODEL 3
REMARK VINA RESULT:      -9.4      1.325      3.922
REMARK  Name = *****
REMARK                            x       y       z     vdW  Elec       q    Type
REMARK                         _______ _______ _______ _____ _____    ______ ____
ROOT
ATOM      1  N   LIG    1       26.942 -20.413   5.055  0.00  0.00    -0.311 N 
ATOM      2  H   LIG    1       27.245 -20.506   4.091  0.00  0.00    +0.152 HD
ENDROOT
BRANCH   1   3
ATOM      3  C   LIG    1       25.592 -20.837   5.300  0.00  0.00    +0.050 A 
ATOM      4  C   LIG    1       25.280 -22.071   5.961  0.00  0.00    +0.022 A 
ATOM      5  C   LIG    1       23.917 -22.416   6.071  0.00  0.00    +0.073 A 
ATOM      6  C   LIG    1       23.552 -23.652   6.589  0.00  0.00    +0.028 A 
ATOM      7  C   LIG    1       24.493 -24.562   7.067  0.00  0.00    +0.002 A 
ATOM      8  C   LIG    1       25.829 -24.202   7.079  0.00  0.00    +0.001 A 
ATOM      9  N   LIG    1       22.921 -21.601   5.718  0.00  0.00    -0.247 NA
ATOM     10  C   LIG    1       23.201 -20.418   5.171  0.00  0.00    +0.073 A 
ATOM     11  C   LIG    1       22.126 -19.577   4.915  0.00  0.00    +0.028 A 
ATOM     12  C   LIG    1       22.287 -18.340   4.294  0.00  0.00    +0.002 A 
ATOM     13  C   LIG    1       23.549 -17.961   3.866  0.00  0.00    +0.001 A 
ATOM     14  C   LIG    1       24.647 -18.788   4.129  0.00  0.00    +0.012 A 
ATOM     15  C   LIG    1       26.210 -22.965   6.558  0.00  0.00    +0.012 A 
ATOM     16  C   LIG    1       24.511 -20.003   4.853  0.00  0.00    +0.022 A 
ENDBRANCH   1   3
BRANCH   1  18
ATOM     17  C   LIG    1       28.838 -18.911   5.599  0.00  0.00    +0.143 A 
ATOM     18  C   LIG    1       28.006 -20.023   5.907  0.00  0.00    +0.074 A 
ATOM     19  C   LIG    1       28.230 -20.699   7.118  0.00  0.00    +0.029 A 
ATOM     20  C   LIG    1       29.247 -20.316   7.992  0.00  0.00    +0.026 A 
ATOM     21  C   LIG    1       30.076 -19.256   7.657  0.00  0.00    +0.051 A 
ATOM     22  C   LIG    1       29.854 -18.534   6.491  0.00  0.00    +0.072 A 
BRANCH  17  24
ATOM     23  C   LIG    1       28.108 -16.885   4.593  0.00  0.00    +0.277 C 
ATOM     24  O   LIG    1       28.612 -18.219   4.426  0.00  0.00    -0.493 OA
ENDBRANCH  17  24
BRANCH  21  25
ATOM     25  N   LIG    1       31.147 -18.890   8.523  0.00  0.00    -0.221 N 
ATOM     26  H   LIG    1       31.981 -18.537   8.050  0.00  0.00    +0.173 HD
BRANCH  25  27
ATOM     27  S   LIG    1       30.778 -17.874   9.821  0.00  0.00    +0.040 S 
ATOM     28  O   LIG    1       30.498 -18.649  10.994  0.00  0.00    -0.155 OA
ATOM     29  O   LIG    1       29.802 -16.927   9.289  0.00  0.00    -0.155 OA
ATOM     30  C   LIG    1       32.313 -16.999  10.024  0.00  0.00    +0.218 C 
ENDBRANCH  25  27
ENDBRANCH  21  25
ENDBRANCH   1  18
TORSDOF 5
ENDMDL
MODEL 4
REMARK VINA RESULT:      -9.3      1.312      1.914
REMARK  Name = *****
REMARK                            x       y       z     vdW  Elec       q    Type
REMARK                         _______ _______ _______ _____ _____    ______ ____
ROOT
ATOM      1  N   LIG    1       26.949 -20.608   4.958  0.00  0.00    -0.311 N 
ATOM      2  H   LIG    1       27.261 -20.921   4.044  0.00  0.00    +0.152 HD
ENDROOT
BRANCH   1   3
ATOM      3  C   LIG    1       25.571 -20.887   5.244  0.00  0.00    +0.050 A 
ATOM      4  C   LIG    1       24.509 -20.001   4.862  0.00  0.00    +0.022 A 
ATOM      5  C   LIG    1       23.204 -20.345   5.271  0.00  0.00    +0.073 A 
ATOM      6  C   LIG    1       22.150 -19.470   5.041  0.00  0.00    +0.028 A 
ATOM      7  C   LIG    1       22.322 -18.267   4.360  0.00  0.00    +0.002 A 
ATOM      8  C   LIG    1       23.568 -17.958   3.845  0.00  0.00    +0.001 A 
ATOM      9  N   LIG    1       22.900 -21.500   5.865  0.00  0.00    -0.247 NA
ATOM     10  C   LIG    1       23.871 -22.366   6.158  0.00  0.00    +0.073 A 
ATOM     11  C   LIG    1       23.479 -23.590   6.686  0.00  0.00    +0.028 A 
ATOM     12  C   LIG    1       24.405 -24.552   7.083  0.00  0.00    +0.002 A 
ATOM     13  C   LIG    1       25.757 -24.260   7.002  0.00  0.00    +0.001 A 
ATOM     14  C   LIG    1       26.171 -23.039   6.457  0.00  0.00    +0.012 A 
ATOM     15  C   LIG    1       24.637 -18.827   4.072  0.00  0.00    +0.012 A 
ATOM     16  C   LIG    1       25.239 -22.092   5.954  0.00  0.00    +0.022 A 
ENDBRANCH   1   3
BRANCH   1  18
ATOM     17  C   LIG    1       28.638 -18.863   5.456  0.00  0.00    +0.143 A 
ATOM     18  C   LIG    1       28.022 -20.113   5.740  0.00  0.00    +0.074 A 
ATOM     19  C   LIG    1       28.471 -20.829   6.864  0.00  0.00    +0.029 A 
ATOM     20  C   LIG    1       29.502 -20.350   7.672  0.00  0.00    +0.026 A 
ATOM     21  C   LIG    1       30.119 -19.149   7.356  0.00  0.00    +0.051 A 
ATOM     22  C   LIG    1       29.670 -18.391   6.282  0.00  0.00    +0.072 A 
BRANCH  17  24
ATOM     23  C   LIG    1       28.148 -16.712   4.568  0.00  0.00    +0.277 C 
ATOM     24  O   LIG    1       28.189 -18.134   4.373  0.00  0.00    -0.493 OA
ENDBRANCH  17  24
BRANCH  21  25
ATOM     25  N   LIG    1       31.204 -18.678   8.150  0.00  0.00    -0.221 N 
ATOM     26  H   LIG    1       31.889 -18.108   7.649  0.00  0.00    +0.173 HD
BRANCH  25  27
ATOM     27  S   LIG    1       30.821 -17.921   9.611  0.00  0.00    +0.040 S 
ATOM     28  O   LIG    1       30.633 -18.899  10.642  0.00  0.00    -0.155 OA
ATOM     29  O   LIG    1       29.770 -16.966   9.273  0.00  0.00    -0.155 OA
ATOM     30  C   LIG    1       32.307 -16.993   9.920  0.00  0.00    +0.218 C 
ENDBRANCH  25  27
ENDBRANCH  21  25
ENDBRANCH   1  18
TORSDOF 5
ENDMDL
MODEL 5
REMARK VINA RESULT:      -9.3      4.034      7.315
REMARK  Name = *****
REMARK                            x       y       z     vdW  Elec       q    Type
REMARK                         _______ _______ _______ _____ _____    ______ ____
ROOT
ATOM      1  N   LIG    1       25.948 -22.444   7.213  0.00  0.00    -0.311 N 
ATOM      2  H   LIG    1       26.007 -22.363   8.223  0.00  0.00    +0.152 HD
ENDROOT
BRANCH   1   3
ATOM      3  C   LIG    1       26.490 -21.327   6.492  0.00  0.00    +0.050 A 
ATOM      4  C   LIG    1       25.741 -20.615   5.497  0.00  0.00    +0.022 A 
ATOM      5  C   LIG    1       26.409 -19.587   4.800  0.00  0.00    +0.073 A 
ATOM      6  C   LIG    1       25.781 -18.943   3.742  0.00  0.00    +0.028 A 
ATOM      7  C   LIG    1       24.472 -19.237   3.367  0.00  0.00    +0.002 A 
ATOM      8  C   LIG    1       23.753 -20.159   4.106  0.00  0.00    +0.001 A 
ATOM      9  N   LIG    1       27.634 -19.163   5.113  0.00  0.00    -0.247 NA
ATOM     10  C   LIG    1       28.312 -19.769   6.089  0.00  0.00    +0.073 A 
ATOM     11  C   LIG    1       29.541 -19.220   6.431  0.00  0.00    +0.028 A 
ATOM     12  C   LIG    1       30.365 -19.798   7.395  0.00  0.00    +0.002 A 
ATOM     13  C   LIG    1       29.974 -20.986   7.990  0.00  0.00    +0.001 A 
ATOM     14  C   LIG    1       28.731 -21.545   7.670  0.00  0.00    +0.012 A 
ATOM     15  C   LIG    1       24.372 -20.817   5.170  0.00  0.00    +0.012 A 
ATOM     16  C   LIG    1       27.837 -20.912   6.766  0.00  0.00    +0.022 A 
ENDBRANCH   1   3
BRANCH   1  18
ATOM     17  C   LIG    1       24.086 -24.027   6.796  0.00  0.00    +0.143 A 
ATOM     18  C   LIG    1       25.474 -23.719   6.813  0.00  0.00    +0.074 A 
ATOM     19  C   LIG    1       26.373 -24.703   6.366  0.00  0.00    +0.029 A 
ATOM     20  C   LIG    1       25.933 -25.954   5.935  0.00  0.00    +0.026 A 
ATOM     21  C   LIG    1       24.579 -26.252   5.963  0.00  0.00    +0.051 A 
ATOM     22  C   LIG    1       23.657 -25.288   6.354  0.00  0.00    +0.072 A 
BRANCH  17  24
ATOM     23  C   LIG    1       21.958 -23.019   6.465  0.00  0.00    +0.277 C 
ATOM     24  O   LIG    1       23.188 -23.061   7.205  0.00  0.00    -0.493 OA
ENDBRANCH  17  24
BRANCH  21  25
ATOM     25  N   LIG    1       24.127 -27.544   5.569  0.00  0.00    -0.221 N 
ATOM     26  H   LIG    1       24.255 -27.762   4.579  0.00  0.00    +0.173 HD
BRANCH  25  27
ATOM     27  S   LIG    1       24.647 -28.859   6.493  0.00  0.00    +0.040 S 
ATOM     28  O   LIG    1       23.537 -29.703   6.825  0.00  0.00    -0.155 OA
ATOM     29  O   LIG    1       25.492 -28.276   7.532  0.00  0.00    -0.155 OA
ATOM     30  C   LIG    1       25.717 -29.691   5.341  0.00  0.00    +0.218 C 
ENDBRANCH  25  27
ENDBRANCH  21  25
ENDBRANCH   1  18
TORSDOF 5
ENDMDL
MODEL 6
REMARK VINA RESULT:      -9.2      4.041      7.692
REMARK  Name = *****
REMARK                            x       y       z     vdW  Elec       q    Type
REMARK                         _______ _______ _______ _____ _____    ______ ____
ROOT
ATOM      1  N   LIG    1       25.934 -22.454   7.254  0.00  0.00    -0.311 N 
ATOM      2  H   LIG    1       25.911 -22.359   8.264  0.00  0.00    +0.152 HD
ENDROOT
BRANCH   1   3
ATOM      3  C   LIG    1       26.552 -21.358   6.565  0.00  0.00    +0.050 A 
ATOM      4  C   LIG    1       27.892 -20.926   6.847  0.00  0.00    +0.022 A 
ATOM      5  C   LIG    1       28.359 -19.786   6.161  0.00  0.00    +0.073 A 
ATOM      6  C   LIG    1       29.598 -19.244   6.477  0.00  0.00    +0.028 A 
ATOM      7  C   LIG    1       30.441 -19.824   7.423  0.00  0.00    +0.002 A 
ATOM      8  C   LIG    1       30.058 -21.009   8.027  0.00  0.00    +0.001 A 
ATOM      9  N   LIG    1       27.679 -19.186   5.183  0.00  0.00    -0.247 NA
ATOM     10  C   LIG    1       26.462 -19.626   4.861  0.00  0.00    +0.073 A 
ATOM     11  C   LIG    1       25.846 -19.022   3.772  0.00  0.00    +0.028 A 
ATOM     12  C   LIG    1       24.554 -19.358   3.375  0.00  0.00    +0.002 A 
ATOM     13  C   LIG    1       23.838 -20.280   4.122  0.00  0.00    +0.001 A 
ATOM     14  C   LIG    1       24.447 -20.911   5.212  0.00  0.00    +0.012 A 
ATOM     15  C   LIG    1       28.813 -21.562   7.722  0.00  0.00    +0.012 A 
ATOM     16  C   LIG    1       25.799 -20.654   5.565  0.00  0.00    +0.022 A 
ENDBRANCH   1   3
BRANCH   1  18
ATOM     17  C   LIG    1       24.086 -24.046   6.811  0.00  0.00    +0.143 A 
ATOM     18  C   LIG    1       25.471 -23.727   6.835  0.00  0.00    +0.074 A 
ATOM     19  C   LIG    1       26.379 -24.696   6.374  0.00  0.00    +0.029 A 
ATOM     20  C   LIG    1       25.950 -25.944   5.923  0.00  0.00    +0.026 A 
ATOM     21  C   LIG    1       24.599 -26.254   5.946  0.00  0.00    +0.051 A 
ATOM     22  C   LIG    1       23.668 -25.304   6.349  0.00  0.00    +0.072 A 
BRANCH  17  24
ATOM     23  C   LIG    1       21.947 -23.056   6.497  0.00  0.00    +0.277 C 
ATOM     24  O   LIG    1       23.179 -23.094   7.233  0.00  0.00    -0.493 OA
ENDBRANCH  17  24
BRANCH  21  25
ATOM     25  N   LIG    1       24.159 -27.544   5.531  0.00  0.00    -0.221 N 
ATOM     26  H   LIG    1       24.315 -27.756   4.544  0.00  0.00    +0.173 HD
BRANCH  25  27
ATOM     27  S   LIG    1       24.651 -28.865   6.463  0.00  0.00    +0.040 S 
ATOM     28  O   LIG    1       23.529 -29.704   6.766  0.00  0.00    -0.155 OA
ATOM     29  O   LIG    1       25.473 -28.289   7.523  0.00  0.00    -0.155 OA
ATOM     30  C   LIG    1       25.744 -29.697   5.333  0.00  0.00    +0.218 C 
ENDBRANCH  25  27
ENDBRANCH  21  25
ENDBRANCH   1  18
TORSDOF 5
ENDMDL
MODEL 7
REMARK VINA RESULT:      -7.5      9.820     11.535
REMARK  Name = *****
REMARK                            x       y       z     vdW  Elec       q    Type
REMARK                         _______ _______ _______ _____ _____    ______ ____
ROOT
ATOM      1  N   LIG    1       26.086 -28.676  12.393  0.00  0.00    -0.311 N 
ATOM      2  H   LIG    1       26.882 -28.907  12.979  0.00  0.00    +0.152 HD
ENDROOT
BRANCH   1   3
ATOM      3  C   LIG    1       25.228 -27.657  12.926  0.00  0.00    +0.050 A 
ATOM      4  C   LIG    1       23.798 -27.780  12.936  0.00  0.00    +0.022 A 
ATOM      5  C   LIG    1       23.060 -26.677  13.413  0.00  0.00    +0.073 A 
ATOM      6  C   LIG    1       21.673 -26.683  13.334  0.00  0.00    +0.028 A 
ATOM      7  C   LIG    1       20.964 -27.778  12.845  0.00  0.00    +0.002 A 
ATOM      8  C   LIG    1       21.656 -28.918  12.478  0.00  0.00    +0.001 A 
ATOM      9  N   LIG    1       23.620 -25.603  13.972  0.00  0.00    -0.247 NA
ATOM     10  C   LIG    1       24.949 -25.512  14.037  0.00  0.00    +0.073 A 
ATOM     11  C   LIG    1       25.468 -24.417  14.716  0.00  0.00    +0.028 A 
ATOM     12  C   LIG    1       26.839 -24.185  14.803  0.00  0.00    +0.002 A 
ATOM     13  C   LIG    1       27.709 -25.037  14.143  0.00  0.00    +0.001 A 
ATOM     14  C   LIG    1       27.206 -26.155  13.468  0.00  0.00    +0.012 A 
ATOM     15  C   LIG    1       23.050 -28.925  12.549  0.00  0.00    +0.012 A 
ATOM     16  C   LIG    1       25.818 -26.461  13.460  0.00  0.00    +0.022 A 
ENDBRANCH   1   3
BRANCH   1  18
ATOM     17  C   LIG    1       26.042 -30.751  11.037  0.00  0.00    +0.143 A 
ATOM     18  C   LIG    1       26.146 -29.336  11.140  0.00  0.00    +0.074 A 
ATOM     19  C   LIG    1       26.254 -28.595   9.951  0.00  0.00    +0.029 A 
ATOM     20  C   LIG    1       26.280 -29.215   8.702  0.00  0.00    +0.026 A 
ATOM     21  C   LIG    1       26.220 -30.598   8.622  0.00  0.00    +0.051 A 
ATOM     22  C   LIG    1       26.065 -31.361   9.773  0.00  0.00    +0.072 A 
BRANCH  17  24
ATOM     23  C   LIG    1       24.722 -32.299  12.267  0.00  0.00    +0.277 C 
ATOM     24  O   LIG    1       25.907 -31.491  12.194  0.00  0.00    -0.493 OA
ENDBRANCH  17  24
BRANCH  21  25
ATOM     25  N   LIG    1       26.295 -31.240   7.352  0.00  0.00    -0.221 N 
ATOM     26  H   LIG    1       26.471 -32.246   7.388  0.00  0.00    +0.173 HD
BRANCH  25  27
ATOM     27  S   LIG    1       25.042 -30.939   6.259  0.00  0.00    +0.040 S 
ATOM     28  O   LIG    1       25.386 -29.847   5.398  0.00  0.00    -0.155 OA
ATOM     29  O   LIG    1       23.832 -30.907   7.077  0.00  0.00    -0.155 OA
ATOM     30  C   LIG    1       25.019 -32.458   5.333  0.00  0.00    +0.218 C 
ENDBRANCH  25  27
ENDBRANCH  21  25
ENDBRANCH   1  18
TORSDOF 5
ENDMDL
MODEL 8
REMARK VINA RESULT:      -7.5      9.819     11.446
REMARK  Name = *****
REMARK                            x       y       z     vdW  Elec       q    Type
REMARK                         _______ _______ _______ _____ _____    ______ ____
ROOT
ATOM      1  N   LIG    1       26.025 -28.745  12.498  0.00  0.00    -0.311 N 
ATOM      2  H   LIG    1       26.757 -29.067  13.123  0.00  0.00    +0.152 HD
ENDROOT
BRANCH   1   3
ATOM      3  C   LIG    1       25.235 -27.663  13.012  0.00  0.00    +0.050 A 
ATOM      4  C   LIG    1       25.820 -26.466  13.544  0.00  0.00    +0.022 A 
ATOM      5  C   LIG    1       24.943 -25.508  14.094  0.00  0.00    +0.073 A 
ATOM      6  C   LIG    1       25.451 -24.386  14.735  0.00  0.00    +0.028 A 
ATOM      7  C   LIG    1       26.819 -24.132  14.810  0.00  0.00    +0.002 A 
ATOM      8  C   LIG    1       27.697 -24.994  14.179  0.00  0.00    +0.001 A 
ATOM      9  N   LIG    1       23.614 -25.601  14.020  0.00  0.00    -0.247 NA
ATOM     10  C   LIG    1       23.059 -26.676  13.458  0.00  0.00    +0.073 A 
ATOM     11  C   LIG    1       21.676 -26.668  13.324  0.00  0.00    +0.028 A 
ATOM     12  C   LIG    1       20.979 -27.756  12.805  0.00  0.00    +0.002 A 
ATOM     13  C   LIG    1       21.677 -28.904  12.467  0.00  0.00    +0.001 A 
ATOM     14  C   LIG    1       23.072 -28.925  12.579  0.00  0.00    +0.012 A 
ATOM     15  C   LIG    1       27.201 -26.128  13.534  0.00  0.00    +0.012 A 
ATOM     16  C   LIG    1       23.804 -27.786  13.009  0.00  0.00    +0.022 A 
ENDBRANCH   1   3
BRANCH   1  18
ATOM     17  C   LIG    1       25.992 -30.787  11.091  0.00  0.00    +0.143 A 
ATOM     18  C   LIG    1       26.100 -29.375  11.230  0.00  0.00    +0.074 A 
ATOM     19  C   LIG    1       26.227 -28.605  10.061  0.00  0.00    +0.029 A 
ATOM     20  C   LIG    1       26.268 -29.196   8.798  0.00  0.00    +0.026 A 
ATOM     21  C   LIG    1       26.204 -30.576   8.683  0.00  0.00    +0.051 A 
ATOM     22  C   LIG    1       26.030 -31.366   9.813  0.00  0.00    +0.072 A 
BRANCH  17  24
ATOM     23  C   LIG    1       24.660 -32.374  12.256  0.00  0.00    +0.277 C 
ATOM     24  O   LIG    1       25.838 -31.554  12.228  0.00  0.00    -0.493 OA
ENDBRANCH  17  24
BRANCH  21  25
ATOM     25  N   LIG    1       26.293 -31.188   7.400  0.00  0.00    -0.221 N 
ATOM     26  H   LIG    1       26.486 -32.191   7.413  0.00  0.00    +0.173 HD
BRANCH  25  27
ATOM     27  S   LIG    1       25.039 -30.882   6.309  0.00  0.00    +0.040 S 
ATOM     28  O   LIG    1       25.384 -29.789   5.449  0.00  0.00    -0.155 OA
ATOM     29  O   LIG    1       23.831 -30.849   7.129  0.00  0.00    -0.155 OA
ATOM     30  C   LIG    1       25.012 -32.399   5.380  0.00  0.00    +0.218 C 
ENDBRANCH  25  27
ENDBRANCH  21  25
ENDBRANCH   1  18
TORSDOF 5
ENDMDL
