MODEL 1
REMARK VINA RESULT:      -8.7      0.000      0.000
REMARK  Name = *****
REMARK                            x       y       z     vdW  Elec       q    Type
REMARK                         _______ _______ _______ _____ _____    ______ ____
ROOT
ATOM      1  C   LIG    1       23.860 -22.757   6.553  0.00  0.00    +0.131 A 
ATOM      2  C   LIG    1       25.258 -22.940   6.387  0.00  0.00    +0.061 A 
ATOM      3  C   LIG    1       25.764 -24.254   6.307  0.00  0.00    +0.043 A 
ATOM      4  C   LIG    1       24.900 -25.353   6.401  0.00  0.00    +0.106 A 
ATOM      5  C   LIG    1       23.537 -25.164   6.601  0.00  0.00    +0.032 A 
ATOM      6  C   LIG    1       23.029 -23.877   6.690  0.00  0.00    +0.048 A 
ENDROOT
BRANCH   2   7
ATOM      7  C   LIG    1       26.250 -21.798   6.252  0.00  0.00    +0.145 C 
ATOM      8  N   LIG    1       25.931 -20.835   5.301  0.00  0.00    -0.305 N 
ATOM      9  H   LIG    1       25.069 -20.916   4.777  0.00  0.00    +0.170 HD
ATOM     10  C   LIG    1       26.701 -19.744   4.994  0.00  0.00    +0.278 C 
ATOM     11  O   LIG    1       26.368 -18.906   4.162  0.00  0.00    -0.266 OA
ATOM     12  C   LIG    1       27.884 -19.720   5.767  0.00  0.00    +0.151 A 
ATOM     13  C   LIG    1       28.161 -20.650   6.724  0.00  0.00    +0.119 A 
ATOM     14  C   LIG    1       29.376 -20.243   7.312  0.00  0.00    +0.089 A 
ATOM     15  N   LIG    1       29.854 -19.136   6.707  0.00  0.00    -0.174 NA
ATOM     16  N   LIG    1       28.936 -18.862   5.752  0.00  0.00    -0.260 N 
ATOM     17  C   LIG    1       29.158 -17.776   4.828  0.00  0.00    +0.173 C 
ATOM     18  N   LIG    1       27.326 -21.746   6.997  0.00  0.00    -0.225 NA
BRANCH  14  19
ATOM     19  C   LIG    1       30.117 -20.841   8.457  0.00  0.00    +0.059 C 
BRANCH  19  20
ATOM     20  C   LIG    1       31.388 -20.067   8.803  0.00  0.00    +0.003 C 
ATOM     21  C   LIG    1       31.078 -18.828   9.629  0.00  0.00    +0.004 C 
ENDBRANCH  19  20
ENDBRANCH  14  19
ENDBRANCH   2   7
BRANCH   4  22
ATOM     22  S   LIG    1       25.457 -27.019   6.152  0.00  0.00    +0.058 S 
ATOM     23  O   LIG    1       26.383 -27.342   7.217  0.00  0.00    -0.153 OA
ATOM     24  O   LIG    1       25.824 -27.161   4.764  0.00  0.00    -0.153 OA
BRANCH  22  25
ATOM     25  N   LIG    1       24.063 -27.940   6.323  0.00  0.00    -0.190 NA
ATOM     26  H   LIG    1       23.246 -27.371   6.106  0.00  0.00    +0.148 HD
BRANCH  25  27
ATOM     27  C   LIG    1       24.088 -29.310   5.802  0.00  0.00    +0.107 C 
BRANCH  27  28
ATOM     28  C   LIG    1       24.627 -30.237   6.884  0.00  0.00    +0.036 C 
BRANCH  28  29
ATOM     29  C   LIG    1       24.073 -29.875   8.265  0.00  0.00    +0.058 C 
ATOM     30  N   LIG    1       23.035 -30.760   8.836  0.00  0.00    -0.302 NA
ATOM     31  C   LIG    1       23.353 -32.189   8.740  0.00  0.00    +0.105 C 
ATOM     32  C   LIG    1       22.980 -30.345  10.249  0.00  0.00    +0.084 C 
ATOM     33  C   LIG    1       24.425 -30.082  10.651  0.00  0.00    +0.017 C 
ATOM     34  C   LIG    1       25.157 -29.803   9.342  0.00  0.00    +0.020 C 
ENDBRANCH  28  29
ENDBRANCH  27  28
ENDBRANCH  25  27
ENDBRANCH  22  25
ENDBRANCH   4  22
BRANCH   1  35
ATOM     35  O   LIG    1       23.358 -21.478   6.547  0.00  0.00    -0.491 OA
BRANCH  35  36
ATOM     36  C   LIG    1       22.574 -21.036   5.430  0.00  0.00    +0.229 C 
BRANCH  36  38
ATOM     37  C   LIG    1       22.927 -18.958   4.030  0.00  0.00    +0.007 C 
ATOM     38  C   LIG    1       22.513 -19.511   5.388  0.00  0.00    +0.037 C 
ENDBRANCH  36  38
ENDBRANCH  35  36
ENDBRANCH   1  35
TORSDOF 11
ENDMDL
MODEL 2
REMARK VINA RESULT:      -8.6      1.251      1.783
REMARK  Name = *****
REMARK                            x       y       z     vdW  Elec       q    Type
REMARK                         _______ _______ _______ _____ _____    ______ ____
ROOT
ATOM      1  C   LIG    1       23.950 -23.067   6.596  0.00  0.00    +0.131 A 
ATOM      2  C   LIG    1       25.339 -23.188   6.325  0.00  0.00    +0.061 A 
ATOM      3  C   LIG    1       25.874 -24.473   6.098  0.00  0.00    +0.043 A 
ATOM      4  C   LIG    1       25.049 -25.604   6.149  0.00  0.00    +0.106 A 
ATOM      5  C   LIG    1       23.699 -25.479   6.453  0.00  0.00    +0.032 A 
ATOM      6  C   LIG    1       23.162 -24.221   6.688  0.00  0.00    +0.048 A 
ENDROOT
BRANCH   2   7
ATOM      7  C   LIG    1       26.287 -22.006   6.228  0.00  0.00    +0.145 C 
ATOM      8  N   LIG    1       25.928 -21.022   5.314  0.00  0.00    -0.305 N 
ATOM      9  H   LIG    1       25.067 -21.116   4.791  0.00  0.00    +0.170 HD
ATOM     10  C   LIG    1       26.656 -19.892   5.043  0.00  0.00    +0.278 C 
ATOM     11  O   LIG    1       26.288 -19.039   4.244  0.00  0.00    -0.266 OA
ATOM     12  C   LIG    1       27.841 -19.853   5.812  0.00  0.00    +0.151 A 
ATOM     13  C   LIG    1       28.157 -20.807   6.733  0.00  0.00    +0.119 A 
ATOM     14  C   LIG    1       29.360 -20.376   7.331  0.00  0.00    +0.089 A 
ATOM     15  N   LIG    1       29.794 -19.232   6.765  0.00  0.00    -0.174 NA
ATOM     16  N   LIG    1       28.861 -18.957   5.825  0.00  0.00    -0.260 N 
ATOM     17  C   LIG    1       29.038 -17.831   4.939  0.00  0.00    +0.173 C 
ATOM     18  N   LIG    1       27.364 -21.941   6.970  0.00  0.00    -0.225 NA
BRANCH  14  19
ATOM     19  C   LIG    1       30.128 -20.987   8.451  0.00  0.00    +0.059 C 
BRANCH  19  20
ATOM     20  C   LIG    1       31.380 -20.189   8.810  0.00  0.00    +0.003 C 
ATOM     21  C   LIG    1       31.037 -18.954   9.628  0.00  0.00    +0.004 C 
ENDBRANCH  19  20
ENDBRANCH  14  19
ENDBRANCH   2   7
BRANCH   4  22
ATOM     22  S   LIG    1       25.635 -27.223   5.720  0.00  0.00    +0.058 S 
ATOM     23  O   LIG    1       26.866 -27.068   4.975  0.00  0.00    -0.153 OA
ATOM     24  O   LIG    1       24.520 -27.970   5.189  0.00  0.00    -0.153 OA
BRANCH  22  25
ATOM     25  N   LIG    1       25.963 -27.939   7.203  0.00  0.00    -0.190 NA
ATOM     26  H   LIG    1       26.414 -27.263   7.818  0.00  0.00    +0.148 HD
BRANCH  25  27
ATOM     27  C   LIG    1       24.928 -28.797   7.786  0.00  0.00    +0.107 C 
BRANCH  27  28
ATOM     28  C   LIG    1       25.485 -30.207   7.934  0.00  0.00    +0.036 C 
BRANCH  28  29
ATOM     29  C   LIG    1       24.492 -31.262   7.439  0.00  0.00    +0.058 C 
ATOM     30  N   LIG    1       24.265 -31.354   5.980  0.00  0.00    -0.302 NA
ATOM     31  C   LIG    1       25.499 -31.359   5.186  0.00  0.00    +0.105 C 
ATOM     32  C   LIG    1       23.558 -32.638   5.830  0.00  0.00    +0.084 C 
ATOM     33  C   LIG    1       24.225 -33.586   6.816  0.00  0.00    +0.017 C 
ATOM     34  C   LIG    1       24.870 -32.683   7.862  0.00  0.00    +0.020 C 
ENDBRANCH  28  29
ENDBRANCH  27  28
ENDBRANCH  25  27
ENDBRANCH  22  25
ENDBRANCH   4  22
BRANCH   1  35
ATOM     35  O   LIG    1       23.413 -21.809   6.736  0.00  0.00    -0.491 OA
BRANCH  35  36
ATOM     36  C   LIG    1       22.654 -21.246   5.657  0.00  0.00    +0.229 C 
BRANCH  36  38
ATOM     37  C   LIG    1       22.624 -19.095   4.325  0.00  0.00    +0.007 C 
ATOM     38  C   LIG    1       22.695 -19.721   5.712  0.00  0.00    +0.037 C 
ENDBRANCH  36  38
ENDBRANCH  35  36
ENDBRANCH   1  35
TORSDOF 11
ENDMDL
MODEL 3
REMARK VINA RESULT:      -8.6      1.770      3.135
REMARK  Name = *****
REMARK                            x       y       z     vdW  Elec       q    Type
REMARK                         _______ _______ _______ _____ _____    ______ ____
ROOT
ATOM      1  C   LIG    1       24.487 -22.210   6.772  0.00  0.00    +0.131 A 
ATOM      2  C   LIG    1       25.860 -22.569   6.714  0.00  0.00    +0.061 A 
ATOM      3  C   LIG    1       26.198 -23.933   6.598  0.00  0.00    +0.043 A 
ATOM      4  C   LIG    1       25.196 -24.910   6.552  0.00  0.00    +0.106 A 
ATOM      5  C   LIG    1       23.856 -24.552   6.648  0.00  0.00    +0.032 A 
ATOM      6  C   LIG    1       23.511 -23.214   6.771  0.00  0.00    +0.048 A 
ENDROOT
BRANCH   2   7
ATOM      7  C   LIG    1       26.998 -21.563   6.733  0.00  0.00    +0.145 C 
ATOM      8  N   LIG    1       28.004 -21.813   7.659  0.00  0.00    -0.305 N 
ATOM      9  H   LIG    1       27.954 -22.638   8.241  0.00  0.00    +0.170 HD
ATOM     10  C   LIG    1       29.101 -21.016   7.867  0.00  0.00    +0.278 C 
ATOM     11  O   LIG    1       29.977 -21.289   8.681  0.00  0.00    -0.266 OA
ATOM     12  C   LIG    1       29.080 -19.887   7.018  0.00  0.00    +0.151 A 
ATOM     13  C   LIG    1       28.105 -19.679   6.087  0.00  0.00    +0.119 A 
ATOM     14  C   LIG    1       28.475 -18.503   5.403  0.00  0.00    +0.089 A 
ATOM     15  N   LIG    1       29.602 -17.979   5.926  0.00  0.00    -0.174 NA
ATOM     16  N   LIG    1       29.927 -18.830   6.925  0.00  0.00    -0.260 N 
ATOM     17  C   LIG    1       31.050 -18.541   7.784  0.00  0.00    +0.173 C 
ATOM     18  N   LIG    1       27.007 -20.538   5.917  0.00  0.00    -0.225 NA
BRANCH  14  19
ATOM     19  C   LIG    1       27.821 -17.843   4.240  0.00  0.00    +0.059 C 
BRANCH  19  20
ATOM     20  C   LIG    1       27.831 -16.319   4.345  0.00  0.00    +0.003 C 
ATOM     21  C   LIG    1       26.729 -15.695   3.504  0.00  0.00    +0.004 C 
ENDBRANCH  19  20
ENDBRANCH  14  19
ENDBRANCH   2   7
BRANCH   4  22
ATOM     22  S   LIG    1       25.555 -26.621   6.251  0.00  0.00    +0.058 S 
ATOM     23  O   LIG    1       26.050 -27.196   7.484  0.00  0.00    -0.153 OA
ATOM     24  O   LIG    1       26.309 -26.707   5.024  0.00  0.00    -0.153 OA
BRANCH  22  25
ATOM     25  N   LIG    1       24.059 -27.290   5.883  0.00  0.00    -0.190 NA
ATOM     26  H   LIG    1       23.448 -26.571   5.497  0.00  0.00    +0.148 HD
BRANCH  25  27
ATOM     27  C   LIG    1       24.045 -28.605   5.238  0.00  0.00    +0.107 C 
BRANCH  27  28
ATOM     28  C   LIG    1       24.022 -29.681   6.318  0.00  0.00    +0.036 C 
BRANCH  28  29
ATOM     29  C   LIG    1       25.343 -30.450   6.377  0.00  0.00    +0.058 C 
ATOM     30  N   LIG    1       25.500 -31.456   7.451  0.00  0.00    -0.302 NA
ATOM     31  C   LIG    1       24.346 -32.351   7.599  0.00  0.00    +0.105 C 
ATOM     32  C   LIG    1       26.686 -32.220   7.026  0.00  0.00    +0.084 C 
ATOM     33  C   LIG    1       26.560 -32.358   5.515  0.00  0.00    +0.017 C 
ATOM     34  C   LIG    1       25.649 -31.212   5.086  0.00  0.00    +0.020 C 
ENDBRANCH  28  29
ENDBRANCH  27  28
ENDBRANCH  25  27
ENDBRANCH  22  25
ENDBRANCH   4  22
BRANCH   1  35
ATOM     35  O   LIG    1       24.156 -20.876   6.801  0.00  0.00    -0.491 OA
BRANCH  35  36
ATOM     36  C   LIG    1       22.897 -20.453   6.257  0.00  0.00    +0.229 C 
BRANCH  36  38
ATOM     37  C   LIG    1       22.388 -18.708   4.497  0.00  0.00    +0.007 C 
ATOM     38  C   LIG    1       23.056 -20.044   4.795  0.00  0.00    +0.037 C 
ENDBRANCH  36  38
ENDBRANCH  35  36
ENDBRANCH   1  35
TORSDOF 11
ENDMDL
MODEL 4
REMARK VINA RESULT:      -8.4      2.818      9.657
REMARK  Name = *****
REMARK                            x       y       z     vdW  Elec       q    Type
REMARK                         _______ _______ _______ _____ _____    ______ ____
ROOT
ATOM      1  C   LIG    1       25.092 -21.966   7.567  0.00  0.00    +0.131 A 
ATOM      2  C   LIG    1       26.137 -22.849   7.186  0.00  0.00    +0.061 A 
ATOM      3  C   LIG    1       27.465 -22.376   7.212  0.00  0.00    +0.043 A 
ATOM      4  C   LIG    1       27.741 -21.058   7.597  0.00  0.00    +0.106 A 
ATOM      5  C   LIG    1       26.708 -20.190   7.932  0.00  0.00    +0.032 A 
ATOM      6  C   LIG    1       25.396 -20.640   7.901  0.00  0.00    +0.048 A 
ENDROOT
BRANCH   2   7
ATOM      7  C   LIG    1       25.915 -24.296   6.782  0.00  0.00    +0.145 C 
ATOM      8  N   LIG    1       25.507 -24.498   5.468  0.00  0.00    -0.305 N 
ATOM      9  H   LIG    1       25.407 -23.704   4.849  0.00  0.00    +0.170 HD
ATOM     10  C   LIG    1       25.219 -25.715   4.909  0.00  0.00    +0.278 C 
ATOM     11  O   LIG    1       24.884 -25.847   3.737  0.00  0.00    -0.266 OA
ATOM     12  C   LIG    1       25.378 -26.759   5.849  0.00  0.00    +0.151 A 
ATOM     13  C   LIG    1       25.818 -26.547   7.122  0.00  0.00    +0.119 A 
ATOM     14  C   LIG    1       25.913 -27.825   7.710  0.00  0.00    +0.089 A 
ATOM     15  N   LIG    1       25.499 -28.780   6.852  0.00  0.00    -0.174 NA
ATOM     16  N   LIG    1       25.153 -28.093   5.740  0.00  0.00    -0.260 N 
ATOM     17  C   LIG    1       24.570 -28.785   4.616  0.00  0.00    +0.173 C 
ATOM     18  N   LIG    1       26.105 -25.272   7.635  0.00  0.00    -0.225 NA
BRANCH  14  19
ATOM     19  C   LIG    1       26.407 -28.207   9.062  0.00  0.00    +0.059 C 
BRANCH  19  20
ATOM     20  C   LIG    1       25.857 -29.552   9.531  0.00  0.00    +0.003 C 
ATOM     21  C   LIG    1       26.909 -30.647   9.441  0.00  0.00    +0.004 C 
ENDBRANCH  19  20
ENDBRANCH  14  19
ENDBRANCH   2   7
BRANCH   4  22
ATOM     22  S   LIG    1       29.398 -20.458   7.798  0.00  0.00    +0.058 S 
ATOM     23  O   LIG    1       29.863 -19.995   6.508  0.00  0.00    -0.153 OA
ATOM     24  O   LIG    1       30.135 -21.438   8.558  0.00  0.00    -0.153 OA
BRANCH  22  25
ATOM     25  N   LIG    1       29.230 -19.148   8.835  0.00  0.00    -0.190 NA
ATOM     26  H   LIG    1       29.200 -19.476   9.800  0.00  0.00    +0.148 HD
BRANCH  25  27
ATOM     27  C   LIG    1       30.031 -17.953   8.554  0.00  0.00    +0.107 C 
BRANCH  27  28
ATOM     28  C   LIG    1       31.488 -18.251   8.885  0.00  0.00    +0.036 C 
BRANCH  28  29
ATOM     29  C   LIG    1       31.837 -17.840  10.317  0.00  0.00    +0.058 C 
ATOM     30  N   LIG    1       32.996 -16.940  10.506  0.00  0.00    -0.302 NA
ATOM     31  C   LIG    1       33.008 -15.789   9.597  0.00  0.00    +0.105 C 
ATOM     32  C   LIG    1       32.845 -16.486  11.900  0.00  0.00    +0.084 C 
ATOM     33  C   LIG    1       31.351 -16.275  12.099  0.00  0.00    +0.017 C 
ATOM     34  C   LIG    1       30.682 -17.141  11.036  0.00  0.00    +0.020 C 
ENDBRANCH  28  29
ENDBRANCH  27  28
ENDBRANCH  25  27
ENDBRANCH  22  25
ENDBRANCH   4  22
BRANCH   1  35
ATOM     35  O   LIG    1       23.807 -22.451   7.621  0.00  0.00    -0.491 OA
BRANCH  35  36
ATOM     36  C   LIG    1       22.898 -22.151   6.552  0.00  0.00    +0.229 C 
BRANCH  36  38
ATOM     37  C   LIG    1       22.809 -19.916   5.370  0.00  0.00    +0.007 C 
ATOM     38  C   LIG    1       23.559 -21.231   5.528  0.00  0.00    +0.037 C 
ENDBRANCH  36  38
ENDBRANCH  35  36
ENDBRANCH   1  35
TORSDOF 11
ENDMDL
MODEL 5
REMARK VINA RESULT:      -8.1      3.121      9.758
REMARK  Name = *****
REMARK                            x       y       z     vdW  Elec       q    Type
REMARK                         _______ _______ _______ _____ _____    ______ ____
ROOT
ATOM      1  C   LIG    1       24.320 -30.016   7.357  0.00  0.00    +0.131 A 
ATOM      2  C   LIG    1       25.144 -29.106   8.070  0.00  0.00    +0.061 A 
ATOM      3  C   LIG    1       25.612 -27.953   7.406  0.00  0.00    +0.043 A 
ATOM      4  C   LIG    1       25.274 -27.721   6.066  0.00  0.00    +0.106 A 
ATOM      5  C   LIG    1       24.499 -28.638   5.365  0.00  0.00    +0.032 A 
ATOM      6  C   LIG    1       24.040 -29.780   6.005  0.00  0.00    +0.048 A 
ENDROOT
BRANCH   2   7
ATOM      7  C   LIG    1       25.529 -29.279   9.529  0.00  0.00    +0.145 C 
ATOM      8  N   LIG    1       26.886 -29.456   9.775  0.00  0.00    -0.305 N 
ATOM      9  H   LIG    1       27.541 -29.434   9.005  0.00  0.00    +0.170 HD
ATOM     10  C   LIG    1       27.443 -29.664  11.011  0.00  0.00    +0.278 C 
ATOM     11  O   LIG    1       28.650 -29.792  11.183  0.00  0.00    -0.266 OA
ATOM     12  C   LIG    1       26.454 -29.688  12.019  0.00  0.00    +0.151 A 
ATOM     13  C   LIG    1       25.132 -29.472  11.764  0.00  0.00    +0.119 A 
ATOM     14  C   LIG    1       24.491 -29.503  13.020  0.00  0.00    +0.089 A 
ATOM     15  N   LIG    1       25.374 -29.777  14.002  0.00  0.00    -0.174 NA
ATOM     16  N   LIG    1       26.553 -29.913  13.354  0.00  0.00    -0.260 N 
ATOM     17  C   LIG    1       27.736 -30.304  14.082  0.00  0.00    +0.173 C 
ATOM     18  N   LIG    1       24.622 -29.257  10.474  0.00  0.00    -0.225 NA
BRANCH  14  19
ATOM     19  C   LIG    1       23.061 -29.256  13.356  0.00  0.00    +0.059 C 
BRANCH  19  20
ATOM     20  C   LIG    1       22.591 -27.865  12.939  0.00  0.00    +0.003 C 
ATOM     21  C   LIG    1       23.467 -26.777  13.540  0.00  0.00    +0.004 C 
ENDBRANCH  19  20
ENDBRANCH  14  19
ENDBRANCH   2   7
BRANCH   4  22
ATOM     22  S   LIG    1       25.703 -26.217   5.229  0.00  0.00    +0.058 S 
ATOM     23  O   LIG    1       26.071 -26.553   3.870  0.00  0.00    -0.153 OA
ATOM     24  O   LIG    1       26.589 -25.469   6.088  0.00  0.00    -0.153 OA
BRANCH  22  25
ATOM     25  N   LIG    1       24.272 -25.339   5.220  0.00  0.00    -0.190 NA
ATOM     26  H   LIG    1       23.691 -25.636   4.436  0.00  0.00    +0.148 HD
BRANCH  25  27
ATOM     27  C   LIG    1       23.606 -25.115   6.506  0.00  0.00    +0.107 C 
BRANCH  27  28
ATOM     28  C   LIG    1       23.271 -23.634   6.634  0.00  0.00    +0.036 C 
BRANCH  28  29
ATOM     29  C   LIG    1       24.509 -22.803   6.982  0.00  0.00    +0.058 C 
ATOM     30  N   LIG    1       25.327 -22.295   5.860  0.00  0.00    -0.302 NA
ATOM     31  C   LIG    1       24.543 -21.672   4.787  0.00  0.00    +0.105 C 
ATOM     32  C   LIG    1       26.196 -21.293   6.503  0.00  0.00    +0.084 C 
ATOM     33  C   LIG    1       25.312 -20.584   7.519  0.00  0.00    +0.017 C 
ATOM     34  C   LIG    1       24.181 -21.563   7.815  0.00  0.00    +0.020 C 
ENDBRANCH  28  29
ENDBRANCH  27  28
ENDBRANCH  25  27
ENDBRANCH  22  25
ENDBRANCH   4  22
BRANCH   1  35
ATOM     35  O   LIG    1       23.797 -31.096   8.028  0.00  0.00    -0.491 OA
BRANCH  35  36
ATOM     36  C   LIG    1       24.165 -32.421   7.620  0.00  0.00    +0.229 C 
BRANCH  36  38
ATOM     37  C   LIG    1       26.432 -32.870   6.589  0.00  0.00    +0.007 C 
ATOM     38  C   LIG    1       25.650 -32.669   7.880  0.00  0.00    +0.037 C 
ENDBRANCH  36  38
ENDBRANCH  35  36
ENDBRANCH   1  35
TORSDOF 11
ENDMDL
MODEL 6
REMARK VINA RESULT:      -8.0      3.197      9.678
REMARK  Name = *****
REMARK                            x       y       z     vdW  Elec       q    Type
REMARK                         _______ _______ _______ _____ _____    ______ ____
ROOT
ATOM      1  C   LIG    1       24.955 -30.111   7.611  0.00  0.00    +0.131 A 
ATOM      2  C   LIG    1       25.592 -29.047   8.303  0.00  0.00    +0.061 A 
ATOM      3  C   LIG    1       25.846 -27.845   7.610  0.00  0.00    +0.043 A 
ATOM      4  C   LIG    1       25.485 -27.714   6.263  0.00  0.00    +0.106 A 
ATOM      5  C   LIG    1       24.896 -28.774   5.584  0.00  0.00    +0.032 A 
ATOM      6  C   LIG    1       24.649 -29.964   6.252  0.00  0.00    +0.048 A 
ENDROOT
BRANCH   2   7
ATOM      7  C   LIG    1       25.988 -29.110   9.768  0.00  0.00    +0.145 C 
ATOM      8  N   LIG    1       27.327 -29.388  10.016  0.00  0.00    -0.305 N 
ATOM      9  H   LIG    1       27.966 -29.504   9.240  0.00  0.00    +0.170 HD
ATOM     10  C   LIG    1       27.888 -29.523  11.260  0.00  0.00    +0.278 C 
ATOM     11  O   LIG    1       29.081 -29.746  11.432  0.00  0.00    -0.266 OA
ATOM     12  C   LIG    1       26.921 -29.353  12.277  0.00  0.00    +0.151 A 
ATOM     13  C   LIG    1       25.620 -29.041  12.015  0.00  0.00    +0.119 A 
ATOM     14  C   LIG    1       25.004 -28.887  13.275  0.00  0.00    +0.089 A 
ATOM     15  N   LIG    1       25.877 -29.144  14.270  0.00  0.00    -0.174 NA
ATOM     16  N   LIG    1       27.026 -29.453  13.626  0.00  0.00    -0.260 N 
ATOM     17  C   LIG    1       28.182 -29.879  14.377  0.00  0.00    +0.173 C 
ATOM     18  N   LIG    1       25.106 -28.909  10.715  0.00  0.00    -0.225 NA
BRANCH  14  19
ATOM     19  C   LIG    1       23.610 -28.475  13.599  0.00  0.00    +0.059 C 
BRANCH  19  20
ATOM     20  C   LIG    1       23.363 -26.988  13.353  0.00  0.00    +0.003 C 
ATOM     21  C   LIG    1       21.878 -26.680  13.250  0.00  0.00    +0.004 C 
ENDBRANCH  19  20
ENDBRANCH  14  19
ENDBRANCH   2   7
BRANCH   4  22
ATOM     22  S   LIG    1       25.638 -26.178   5.388  0.00  0.00    +0.058 S 
ATOM     23  O   LIG    1       25.955 -26.481   4.009  0.00  0.00    -0.153 OA
ATOM     24  O   LIG    1       26.467 -25.300   6.177  0.00  0.00    -0.153 OA
BRANCH  22  25
ATOM     25  N   LIG    1       24.100 -25.509   5.475  0.00  0.00    -0.190 NA
ATOM     26  H   LIG    1       23.426 -26.139   5.041  0.00  0.00    +0.148 HD
BRANCH  25  27
ATOM     27  C   LIG    1       23.710 -24.868   6.734  0.00  0.00    +0.107 C 
BRANCH  27  28
ATOM     28  C   LIG    1       23.219 -23.457   6.435  0.00  0.00    +0.036 C 
BRANCH  28  29
ATOM     29  C   LIG    1       24.346 -22.567   5.906  0.00  0.00    +0.058 C 
ATOM     30  N   LIG    1       23.965 -21.406   5.072  0.00  0.00    -0.302 NA
ATOM     31  C   LIG    1       22.864 -20.611   5.629  0.00  0.00    +0.105 C 
ATOM     32  C   LIG    1       25.200 -20.604   5.026  0.00  0.00    +0.084 C 
ATOM     33  C   LIG    1       25.797 -20.699   6.423  0.00  0.00    +0.017 C 
ATOM     34  C   LIG    1       25.213 -21.975   7.020  0.00  0.00    +0.020 C 
ENDBRANCH  28  29
ENDBRANCH  27  28
ENDBRANCH  25  27
ENDBRANCH  22  25
ENDBRANCH   4  22
BRANCH   1  35
ATOM     35  O   LIG    1       24.632 -31.251   8.308  0.00  0.00    -0.491 OA
BRANCH  35  36
ATOM     36  C   LIG    1       23.255 -31.538   8.586  0.00  0.00    +0.229 C 
BRANCH  36  38
ATOM     37  C   LIG    1       21.949 -30.639  10.559  0.00  0.00    +0.007 C 
ATOM     38  C   LIG    1       23.018 -31.619  10.092  0.00  0.00    +0.037 C 
ENDBRANCH  36  38
ENDBRANCH  35  36
ENDBRANCH   1  35
TORSDOF 11
ENDMDL
MODEL 7
REMARK VINA RESULT:      -7.9      1.837      3.057
REMARK  Name = *****
REMARK                            x       y       z     vdW  Elec       q    Type
REMARK                         _______ _______ _______ _____ _____    ______ ____
ROOT
ATOM      1  C   LIG    1       24.471 -22.146   7.148  0.00  0.00    +0.131 A 
ATOM      2  C   LIG    1       25.798 -22.537   6.822  0.00  0.00    +0.061 A 
ATOM      3  C   LIG    1       26.036 -23.876   6.450  0.00  0.00    +0.043 A 
ATOM      4  C   LIG    1       24.984 -24.800   6.413  0.00  0.00    +0.106 A 
ATOM      5  C   LIG    1       23.696 -24.417   6.771  0.00  0.00    +0.032 A 
ATOM      6  C   LIG    1       23.450 -23.105   7.148  0.00  0.00    +0.048 A 
ENDROOT
BRANCH   2   7
ATOM      7  C   LIG    1       26.981 -21.585   6.815  0.00  0.00    +0.145 C 
ATOM      8  N   LIG    1       27.998 -21.885   7.714  0.00  0.00    -0.305 N 
ATOM      9  H   LIG    1       27.925 -22.711   8.294  0.00  0.00    +0.170 HD
ATOM     10  C   LIG    1       29.136 -21.142   7.895  0.00  0.00    +0.278 C 
ATOM     11  O   LIG    1       30.019 -21.459   8.685  0.00  0.00    -0.266 OA
ATOM     12  C   LIG    1       29.145 -20.008   7.052  0.00  0.00    +0.151 A 
ATOM     13  C   LIG    1       28.157 -19.751   6.148  0.00  0.00    +0.119 A 
ATOM     14  C   LIG    1       28.563 -18.589   5.459  0.00  0.00    +0.089 A 
ATOM     15  N   LIG    1       29.727 -18.121   5.954  0.00  0.00    -0.174 NA
ATOM     16  N   LIG    1       30.037 -18.992   6.941  0.00  0.00    -0.260 N 
ATOM     17  C   LIG    1       31.195 -18.759   7.771  0.00  0.00    +0.173 C 
ATOM     18  N   LIG    1       27.016 -20.557   6.004  0.00  0.00    -0.225 NA
BRANCH  14  19
ATOM     19  C   LIG    1       27.910 -17.894   4.315  0.00  0.00    +0.059 C 
BRANCH  19  20
ATOM     20  C   LIG    1       27.950 -16.373   4.451  0.00  0.00    +0.003 C 
ATOM     21  C   LIG    1       26.914 -15.707   3.560  0.00  0.00    +0.004 C 
ENDBRANCH  19  20
ENDBRANCH  14  19
ENDBRANCH   2   7
BRANCH   4  22
ATOM     22  S   LIG    1       25.196 -26.452   5.804  0.00  0.00    +0.058 S 
ATOM     23  O   LIG    1       25.941 -26.378   4.566  0.00  0.00    -0.153 OA
ATOM     24  O   LIG    1       23.919 -27.119   5.878  0.00  0.00    -0.153 OA
BRANCH  22  25
ATOM     25  N   LIG    1       26.137 -27.197   6.980  0.00  0.00    -0.190 NA
ATOM     26  H   LIG    1       26.572 -26.489   7.571  0.00  0.00    +0.148 HD
BRANCH  25  27
ATOM     27  C   LIG    1       25.583 -28.381   7.642  0.00  0.00    +0.107 C 
BRANCH  27  28
ATOM     28  C   LIG    1       26.291 -28.573   8.977  0.00  0.00    +0.036 C 
BRANCH  28  29
ATOM     29  C   LIG    1       26.390 -30.053   9.357  0.00  0.00    +0.058 C 
ATOM     30  N   LIG    1       25.679 -30.492  10.577  0.00  0.00    -0.302 NA
ATOM     31  C   LIG    1       24.300 -30.002  10.671  0.00  0.00    +0.105 C 
ATOM     32  C   LIG    1       25.690 -31.961  10.462  0.00  0.00    +0.084 C 
ATOM     33  C   LIG    1       25.453 -32.254   8.987  0.00  0.00    +0.017 C 
ATOM     34  C   LIG    1       25.883 -30.986   8.256  0.00  0.00    +0.020 C 
ENDBRANCH  28  29
ENDBRANCH  27  28
ENDBRANCH  25  27
ENDBRANCH  22  25
ENDBRANCH   4  22
BRANCH   1  35
ATOM     35  O   LIG    1       24.225 -20.824   7.431  0.00  0.00    -0.491 OA
BRANCH  35  36
ATOM     36  C   LIG    1       23.078 -20.185   6.853  0.00  0.00    +0.229 C 
BRANCH  36  38
ATOM     37  C   LIG    1       21.982 -20.684   4.627  0.00  0.00    +0.007 C 
ATOM     38  C   LIG    1       23.209 -20.121   5.333  0.00  0.00    +0.037 C 
ENDBRANCH  36  38
ENDBRANCH  35  36
ENDBRANCH   1  35
TORSDOF 11
ENDMDL
MODEL 8
REMARK VINA RESULT:      -7.7      4.313     10.775
REMARK  Name = *****
REMARK                            x       y       z     vdW  Elec       q    Type
REMARK                         _______ _______ _______ _____ _____    ______ ____
ROOT
ATOM      1  C   LIG    1       25.162 -30.512  10.610  0.00  0.00    +0.131 A 
ATOM      2  C   LIG    1       23.858 -30.358  10.070  0.00  0.00    +0.061 A 
ATOM      3  C   LIG    1       23.722 -30.127   8.685  0.00  0.00    +0.043 A 
ATOM      4  C   LIG    1       24.856 -30.042   7.866  0.00  0.00    +0.106 A 
ATOM      5  C   LIG    1       26.129 -30.156   8.411  0.00  0.00    +0.032 A 
ATOM      6  C   LIG    1       26.277 -30.375   9.773  0.00  0.00    +0.048 A 
ENDROOT
BRANCH   2   7
ATOM      7  C   LIG    1       22.585 -30.463  10.891  0.00  0.00    +0.145 C 
ATOM      8  N   LIG    1       21.804 -31.588  10.647  0.00  0.00    -0.305 N 
ATOM      9  H   LIG    1       22.118 -32.278   9.978  0.00  0.00    +0.170 HD
ATOM     10  C   LIG    1       20.604 -31.861  11.250  0.00  0.00    +0.278 C 
ATOM     11  O   LIG    1       19.960 -32.879  11.020  0.00  0.00    -0.266 OA
ATOM     12  C   LIG    1       20.245 -30.839  12.158  0.00  0.00    +0.151 A 
ATOM     13  C   LIG    1       21.042 -29.764  12.415  0.00  0.00    +0.119 A 
ATOM     14  C   LIG    1       20.376 -29.025  13.415  0.00  0.00    +0.089 A 
ATOM     15  N   LIG    1       19.194 -29.594  13.724  0.00  0.00    -0.174 NA
ATOM     16  N   LIG    1       19.132 -30.680  12.920  0.00  0.00    -0.260 N 
ATOM     17  C   LIG    1       17.947 -31.503  12.906  0.00  0.00    +0.173 C 
ATOM     18  N   LIG    1       22.269 -29.542  11.767  0.00  0.00    -0.225 NA
BRANCH  14  19
ATOM     19  C   LIG    1       20.817 -27.795  14.130  0.00  0.00    +0.059 C 
BRANCH  19  20
ATOM     20  C   LIG    1       21.273 -26.693  13.178  0.00  0.00    +0.003 C 
ATOM     21  C   LIG    1       22.718 -26.294  13.439  0.00  0.00    +0.004 C 
ENDBRANCH  19  20
ENDBRANCH  14  19
ENDBRANCH   2   7
BRANCH   4  22
ATOM     22  S   LIG    1       24.740 -29.909   6.101  0.00  0.00    +0.058 S 
ATOM     23  O   LIG    1       23.337 -29.908   5.745  0.00  0.00    -0.153 OA
ATOM     24  O   LIG    1       25.664 -30.855   5.524  0.00  0.00    -0.153 OA
BRANCH  22  25
ATOM     25  N   LIG    1       25.403 -28.403   5.766  0.00  0.00    -0.190 NA
ATOM     26  H   LIG    1       25.553 -28.309   4.762  0.00  0.00    +0.148 HD
BRANCH  25  27
ATOM     27  C   LIG    1       24.851 -27.246   6.476  0.00  0.00    +0.107 C 
BRANCH  27  28
ATOM     28  C   LIG    1       24.337 -26.241   5.452  0.00  0.00    +0.036 C 
BRANCH  28  29
ATOM     29  C   LIG    1       25.037 -24.887   5.588  0.00  0.00    +0.058 C 
ATOM     30  N   LIG    1       24.182 -23.689   5.734  0.00  0.00    -0.302 NA
ATOM     31  C   LIG    1       23.107 -23.843   6.721  0.00  0.00    +0.105 C 
ATOM     32  C   LIG    1       25.131 -22.650   6.173  0.00  0.00    +0.084 C 
ATOM     33  C   LIG    1       26.077 -23.348   7.141  0.00  0.00    +0.017 C 
ATOM     34  C   LIG    1       25.994 -24.827   6.780  0.00  0.00    +0.020 C 
ENDBRANCH  28  29
ENDBRANCH  27  28
ENDBRANCH  25  27
ENDBRANCH  22  25
ENDBRANCH   4  22
BRANCH   1  35
ATOM     35  O   LIG    1       25.291 -30.819  11.944  0.00  0.00    -0.491 OA
BRANCH  35  36
ATOM     36  C   LIG    1       26.138 -30.010  12.772  0.00  0.00    +0.229 C 
BRANCH  36  38
ATOM     37  C   LIG    1       26.614 -27.536  12.539  0.00  0.00    +0.007 C 
ATOM     38  C   LIG    1       25.577 -28.594  12.890  0.00  0.00    +0.037 C 
ENDBRANCH  36  38
ENDBRANCH  35  36
ENDBRANCH   1  35
TORSDOF 11
ENDMDL
MODEL 9
REMARK VINA RESULT:      -7.4      3.114     11.012
REMARK  Name = *****
REMARK                            x       y       z     vdW  Elec       q    Type
REMARK                         _______ _______ _______ _____ _____    ______ ____
ROOT
ATOM      1  C   LIG    1       24.936 -30.337   6.307  0.00  0.00    +0.131 A 
ATOM      2  C   LIG    1       24.740 -29.507   7.442  0.00  0.00    +0.061 A 
ATOM      3  C   LIG    1       24.877 -28.111   7.291  0.00  0.00    +0.043 A 
ATOM      4  C   LIG    1       25.209 -27.562   6.046  0.00  0.00    +0.106 A 
ATOM      5  C   LIG    1       25.436 -28.386   4.950  0.00  0.00    +0.032 A 
ATOM      6  C   LIG    1       25.314 -29.761   5.087  0.00  0.00    +0.048 A 
ENDROOT
BRANCH   2   7
ATOM      7  C   LIG    1       24.354 -30.029   8.814  0.00  0.00    +0.145 C 
ATOM      8  N   LIG    1       25.412 -30.410   9.632  0.00  0.00    -0.305 N 
ATOM      9  H   LIG    1       26.362 -30.301   9.302  0.00  0.00    +0.170 HD
ATOM     10  C   LIG    1       25.287 -30.940  10.890  0.00  0.00    +0.278 C 
ATOM     11  O   LIG    1       26.252 -31.240  11.585  0.00  0.00    -0.266 OA
ATOM     12  C   LIG    1       23.928 -31.062  11.259  0.00  0.00    +0.151 A 
ATOM     13  C   LIG    1       22.904 -30.646  10.461  0.00  0.00    +0.119 A 
ATOM     14  C   LIG    1       21.726 -30.869  11.204  0.00  0.00    +0.089 A 
ATOM     15  N   LIG    1       22.009 -31.446  12.389  0.00  0.00    -0.174 NA
ATOM     16  N   LIG    1       23.356 -31.577  12.377  0.00  0.00    -0.260 N 
ATOM     17  C   LIG    1       24.026 -32.248  13.465  0.00  0.00    +0.173 C 
ATOM     18  N   LIG    1       23.098 -30.104   9.180  0.00  0.00    -0.225 NA
BRANCH  14  19
ATOM     19  C   LIG    1       20.317 -30.536  10.859  0.00  0.00    +0.059 C 
BRANCH  19  20
ATOM     20  C   LIG    1       19.488 -31.771  10.514  0.00  0.00    +0.003 C 
ATOM     21  C   LIG    1       18.172 -31.393   9.852  0.00  0.00    +0.004 C 
ENDBRANCH  19  20
ENDBRANCH  14  19
ENDBRANCH   2   7
BRANCH   4  22
ATOM     22  S   LIG    1       25.242 -25.811   5.762  0.00  0.00    +0.058 S 
ATOM     23  O   LIG    1       25.568 -25.591   4.370  0.00  0.00    -0.153 OA
ATOM     24  O   LIG    1       26.010 -25.205   6.823  0.00  0.00    -0.153 OA
BRANCH  22  25
ATOM     25  N   LIG    1       23.659 -25.327   6.049  0.00  0.00    -0.190 NA
ATOM     26  H   LIG    1       23.072 -26.146   6.203  0.00  0.00    +0.148 HD
BRANCH  25  27
ATOM     27  C   LIG    1       23.453 -24.174   6.930  0.00  0.00    +0.107 C 
BRANCH  27  28
ATOM     28  C   LIG    1       23.046 -22.975   6.082  0.00  0.00    +0.036 C 
BRANCH  28  29
ATOM     29  C   LIG    1       24.267 -22.209   5.565  0.00  0.00    +0.058 C 
ATOM     30  N   LIG    1       24.018 -20.989   4.766  0.00  0.00    -0.302 NA
ATOM     31  C   LIG    1       23.024 -20.086   5.355  0.00  0.00    +0.105 C 
ATOM     32  C   LIG    1       25.339 -20.337   4.729  0.00  0.00    +0.084 C 
ATOM     33  C   LIG    1       25.931 -20.540   6.117  0.00  0.00    +0.017 C 
ATOM     34  C   LIG    1       25.205 -21.755   6.685  0.00  0.00    +0.020 C 
ENDBRANCH  28  29
ENDBRANCH  27  28
ENDBRANCH  25  27
ENDBRANCH  22  25
ENDBRANCH   4  22
BRANCH   1  35
ATOM     35  O   LIG    1       24.722 -31.689   6.434  0.00  0.00    -0.491 OA
BRANCH  35  36
ATOM     36  C   LIG    1       23.487 -32.251   5.969  0.00  0.00    +0.229 C 
BRANCH  36  38
ATOM     37  C   LIG    1       23.698 -33.540   8.136  0.00  0.00    +0.007 C 
ATOM     38  C   LIG    1       23.180 -33.554   6.704  0.00  0.00    +0.037 C 
ENDBRANCH  36  38
ENDBRANCH  35  36
ENDBRANCH   1  35
TORSDOF 11
ENDMDL
