MODEL 1
REMARK VINA RESULT:      10.9      0.000      0.000
REMARK  Name = *****
REMARK                            x       y       z     vdW  Elec       q    Type
REMARK                         _______ _______ _______ _____ _____    ______ ____
ROOT
ATOM      1  C   LIG    1       23.893 -16.727   4.291  0.00  0.00    +0.172 C 
ATOM      2  C   LIG    1       23.598 -18.014   5.242  0.00  0.00    +0.175 C 
ATOM      3  C   LIG    1       22.952 -19.041   4.377  0.00  0.00    +0.170 C 
ATOM      4  C   LIG    1       22.091 -18.274   3.319  0.00  0.00    +0.084 C 
ATOM      5  C   LIG    1       21.578 -16.808   3.666  0.00  0.00    +0.046 C 
ATOM      6  C   LIG    1       22.717 -15.801   3.853  0.00  0.00    +0.106 C 
ENDROOT
BRANCH   6   7
ATOM      7  N   LIG    1       22.392 -14.576   4.929  0.00  0.00    -0.308 N 
ATOM      8  H   LIG    1       22.170 -14.888   5.864  0.00  0.00    +0.149 HD
ATOM      9  C   LIG    1       22.795 -13.320   4.849  0.00  0.00    +0.242 C 
ATOM     10  O   LIG    1       22.391 -12.471   5.892  0.00  0.00    -0.273 OA
BRANCH   9  11
ATOM     11  C   LIG    1       23.721 -12.655   3.935  0.00  0.00    +0.201 C 
BRANCH  11  12
ATOM     12  O   LIG    1       23.548 -11.908   2.769  0.00  0.00    -0.383 OA
ATOM     13  H   LIG    1       24.386 -11.474   2.664  0.00  0.00    +0.210 HD
ENDBRANCH  11  12
BRANCH  11  14
ATOM     14  C   LIG    1       24.193 -11.657   4.897  0.00  0.00    +0.056 C 
BRANCH  14  15
ATOM     15  C   LIG    1       25.149 -11.451   6.183  0.00  0.00    +0.080 C 
BRANCH  15  16
ATOM     16  N   LIG    1       25.783 -12.645   6.652  0.00  0.00    -0.330 NA
ATOM     17  H   LIG    1       26.262 -13.052   5.843  0.00  0.00    +0.118 HD
ATOM     18  H   LIG    1       26.517 -12.244   7.228  0.00  0.00    +0.118 HD
ENDBRANCH  15  16
ENDBRANCH  14  15
ENDBRANCH  11  14
ENDBRANCH   9  11
ENDBRANCH   6   7
BRANCH   4  19
ATOM     19  N   LIG    1       20.916 -19.075   2.989  0.00  0.00    -0.325 NA
ATOM     20  H   LIG    1       21.241 -19.993   2.684  0.00  0.00    +0.118 HD
ATOM     21  H   LIG    1       20.385 -19.243   3.847  0.00  0.00    +0.118 HD
ENDBRANCH   4  19
BRANCH   2  22
ATOM     22  O   LIG    1       22.592 -17.651   6.292  0.00  0.00    -0.387 OA
ATOM     23  H   LIG    1       23.025 -17.146   7.013  0.00  0.00    +0.210 HD
ENDBRANCH   2  22
BRANCH   3  24
ATOM     24  O   LIG    1       23.810 -20.069   3.848  0.00  0.00    -0.333 OA
BRANCH  24  25
ATOM     25  C   LIG    1       23.911 -21.386   4.445  0.00  0.00    +0.324 C 
ATOM     26  C   LIG    1       22.748 -21.570   5.516  0.00  0.00    +0.124 C 
ATOM     27  C   LIG    1       22.950 -20.449   6.539  0.00  0.00    +0.055 C 
ATOM     28  C   LIG    1       24.384 -20.274   6.912  0.00  0.00    +0.017 C 
ATOM     29  C   LIG    1       25.411 -20.825   6.245  0.00  0.00    +0.111 C 
ATOM     30  O   LIG    1       25.198 -21.571   5.091  0.00  0.00    -0.465 OA
BRANCH  26  31
ATOM     31  N   LIG    1       21.323 -21.491   5.082  0.00  0.00    -0.322 NA
ATOM     32  H   LIG    1       20.916 -22.431   5.174  0.00  0.00    +0.119 HD
ATOM     33  H   LIG    1       20.806 -20.937   5.766  0.00  0.00    +0.119 HD
ENDBRANCH  26  31
BRANCH  29  34
ATOM     34  C   LIG    1       26.850 -20.743   6.770  0.00  0.00    +0.155 C 
BRANCH  34  35
ATOM     35  N   LIG    1       27.926 -20.856   5.785  0.00  0.00    -0.307 NA
ATOM     36  H   LIG    1       27.573 -20.601   4.871  0.00  0.00    +0.122 HD
BRANCH  35  37
ATOM     37  C   LIG    1       29.133 -20.079   6.105  0.00  0.00    +0.109 C 
BRANCH  37  38
ATOM     38  C   LIG    1       29.042 -18.559   5.858  0.00  0.00    +0.171 C 
BRANCH  38  39
ATOM     39  O   LIG    1       28.348 -18.154   4.694  0.00  0.00    -0.394 OA
ATOM     40  H   LIG    1       29.022 -18.039   3.993  0.00  0.00    +0.209 HD
ENDBRANCH  38  39
ENDBRANCH  37  38
ENDBRANCH  35  37
ENDBRANCH  34  35
ENDBRANCH  29  34
ENDBRANCH  24  25
ENDBRANCH   3  24
BRANCH   1  41
ATOM     41  O   LIG    1       25.394 -16.620   3.468  0.00  0.00    -0.341 OA
BRANCH  41  47
ATOM     42  C   LIG    1       27.501 -13.183   4.457  0.00  0.00    +0.121 C 
ATOM     43  C   LIG    1       27.921 -12.652   2.996  0.00  0.00    +0.104 C 
ATOM     44  C   LIG    1       26.855 -11.732   2.331  0.00  0.00    +0.045 C 
ATOM     45  C   LIG    1       28.093 -13.861   2.126  0.00  0.00    +0.199 C 
ATOM     46  O   LIG    1       26.842 -14.487   2.390  0.00  0.00    -0.346 OA
ATOM     47  C   LIG    1       26.751 -15.524   3.440  0.00  0.00    +0.281 C 
ATOM     48  C   LIG    1       26.542 -14.465   4.526  0.00  0.00    +0.190 C 
BRANCH  42  50
ATOM     49  C   LIG    1       29.271 -12.097   5.689  0.00  0.00    +0.101 C 
ATOM     50  N   LIG    1       28.688 -13.379   5.313  0.00  0.00    -0.311 NA
ATOM     51  H   LIG    1       28.461 -13.941   6.130  0.00  0.00    +0.122 HD
ENDBRANCH  42  50
BRANCH  48  52
ATOM     52  O   LIG    1       25.235 -13.935   4.311  0.00  0.00    -0.385 OA
ATOM     53  H   LIG    1       25.436 -13.112   3.820  0.00  0.00    +0.210 HD
ENDBRANCH  48  52
BRANCH  43  54
ATOM     54  O   LIG    1       29.127 -11.889   3.020  0.00  0.00    -0.385 OA
ATOM     55  H   LIG    1       29.234 -11.623   3.950  0.00  0.00    +0.210 HD
ENDBRANCH  43  54
ENDBRANCH  41  47
ENDBRANCH   1  41
TORSDOF 21
ENDMDL
MODEL 2
REMARK VINA RESULT:      12.8      1.399      2.015
REMARK  Name = *****
REMARK                            x       y       z     vdW  Elec       q    Type
REMARK                         _______ _______ _______ _____ _____    ______ ____
ROOT
ATOM      1  C   LIG    1       23.709 -16.299   4.748  0.00  0.00    +0.172 C 
ATOM      2  C   LIG    1       23.474 -17.741   5.463  0.00  0.00    +0.175 C 
ATOM      3  C   LIG    1       23.004 -18.670   4.398  0.00  0.00    +0.170 C 
ATOM      4  C   LIG    1       22.153 -17.824   3.394  0.00  0.00    +0.084 C 
ATOM      5  C   LIG    1       21.469 -16.482   3.909  0.00  0.00    +0.046 C 
ATOM      6  C   LIG    1       22.483 -15.422   4.349  0.00  0.00    +0.106 C 
ENDROOT
BRANCH   6   7
ATOM      7  N   LIG    1       21.955 -14.417   5.564  0.00  0.00    -0.308 N 
ATOM      8  H   LIG    1       21.618 -14.895   6.388  0.00  0.00    +0.149 HD
ATOM      9  C   LIG    1       22.306 -13.159   5.764  0.00  0.00    +0.242 C 
ATOM     10  O   LIG    1       21.722 -12.518   6.870  0.00  0.00    -0.273 OA
BRANCH   9  11
ATOM     11  C   LIG    1       23.320 -12.322   5.126  0.00  0.00    +0.201 C 
BRANCH  11  12
ATOM     12  O   LIG    1       24.698 -12.186   5.295  0.00  0.00    -0.383 OA
ATOM     13  H   LIG    1       24.795 -12.109   6.236  0.00  0.00    +0.210 HD
ENDBRANCH  11  12
BRANCH  11  14
ATOM     14  C   LIG    1       23.211 -12.933   3.800  0.00  0.00    +0.056 C 
BRANCH  14  15
ATOM     15  C   LIG    1       23.718 -12.807   2.271  0.00  0.00    +0.080 C 
BRANCH  15  16
ATOM     16  N   LIG    1       24.600 -11.707   2.025  0.00  0.00    -0.330 NA
ATOM     17  H   LIG    1       25.360 -11.791   2.707  0.00  0.00    +0.118 HD
ATOM     18  H   LIG    1       25.001 -11.994   1.137  0.00  0.00    +0.118 HD
ENDBRANCH  15  16
ENDBRANCH  14  15
ENDBRANCH  11  14
ENDBRANCH   9  11
ENDBRANCH   6   7
BRANCH   4  19
ATOM     19  N   LIG    1       21.093 -18.663   2.841  0.00  0.00    -0.325 NA
ATOM     20  H   LIG    1       20.711 -19.223   3.604  0.00  0.00    +0.118 HD
ATOM     21  H   LIG    1       20.328 -18.059   2.532  0.00  0.00    +0.118 HD
ENDBRANCH   4  19
BRANCH   2  22
ATOM     22  O   LIG    1       22.359 -17.639   6.460  0.00  0.00    -0.387 OA
ATOM     23  H   LIG    1       22.702 -17.791   7.366  0.00  0.00    +0.210 HD
ENDBRANCH   2  22
BRANCH   3  24
ATOM     24  O   LIG    1       23.998 -19.522   3.801  0.00  0.00    -0.333 OA
BRANCH  24  25
ATOM     25  C   LIG    1       23.946 -20.967   3.892  0.00  0.00    +0.324 C 
ATOM     26  C   LIG    1       22.644 -21.398   4.699  0.00  0.00    +0.124 C 
ATOM     27  C   LIG    1       22.770 -20.731   6.071  0.00  0.00    +0.055 C 
ATOM     28  C   LIG    1       24.149 -20.840   6.629  0.00  0.00    +0.017 C 
ATOM     29  C   LIG    1       25.224 -21.222   5.919  0.00  0.00    +0.111 C 
ATOM     30  O   LIG    1       25.124 -21.493   4.559  0.00  0.00    -0.465 OA
BRANCH  26  31
ATOM     31  N   LIG    1       21.295 -21.032   4.176  0.00  0.00    -0.322 NA
ATOM     32  H   LIG    1       21.384 -20.134   3.684  0.00  0.00    +0.119 HD
ATOM     33  H   LIG    1       21.046 -21.689   3.436  0.00  0.00    +0.119 HD
ENDBRANCH  26  31
BRANCH  29  34
ATOM     34  C   LIG    1       26.582 -21.472   6.586  0.00  0.00    +0.155 C 
BRANCH  34  35
ATOM     35  N   LIG    1       27.464 -20.317   6.753  0.00  0.00    -0.307 NA
ATOM     36  H   LIG    1       28.173 -20.532   7.445  0.00  0.00    +0.122 HD
BRANCH  35  37
ATOM     37  C   LIG    1       28.088 -19.838   5.510  0.00  0.00    +0.109 C 
BRANCH  37  38
ATOM     38  C   LIG    1       29.471 -19.170   5.663  0.00  0.00    +0.171 C 
BRANCH  38  39
ATOM     39  O   LIG    1       29.473 -17.832   6.121  0.00  0.00    -0.394 OA
ATOM     40  H   LIG    1       30.030 -17.813   6.927  0.00  0.00    +0.209 HD
ENDBRANCH  38  39
ENDBRANCH  37  38
ENDBRANCH  35  37
ENDBRANCH  34  35
ENDBRANCH  29  34
ENDBRANCH  24  25
ENDBRANCH   3  24
BRANCH   1  41
ATOM     41  O   LIG    1       25.250 -15.930   4.092  0.00  0.00    -0.341 OA
BRANCH  41  47
ATOM     42  C   LIG    1       28.868 -13.896   4.079  0.00  0.00    +0.121 C 
ATOM     43  C   LIG    1       28.578 -12.751   5.173  0.00  0.00    +0.104 C 
ATOM     44  C   LIG    1       28.897 -13.182   6.635  0.00  0.00    +0.045 C 
ATOM     45  C   LIG    1       27.114 -12.435   5.095  0.00  0.00    +0.199 C 
ATOM     46  O   LIG    1       26.609 -13.761   5.213  0.00  0.00    -0.346 OA
ATOM     47  C   LIG    1       26.286 -14.530   3.992  0.00  0.00    +0.281 C 
ATOM     48  C   LIG    1       27.735 -15.008   3.859  0.00  0.00    +0.190 C 
BRANCH  42  50
ATOM     49  C   LIG    1       28.140 -12.657   2.139  0.00  0.00    +0.101 C 
ATOM     50  N   LIG    1       29.272 -13.307   2.786  0.00  0.00    -0.311 NA
ATOM     51  H   LIG    1       30.055 -12.668   2.904  0.00  0.00    +0.122 HD
ENDBRANCH  42  50
BRANCH  48  52
ATOM     52  O   LIG    1       27.943 -15.932   4.926  0.00  0.00    -0.385 OA
ATOM     53  H   LIG    1       28.438 -15.383   5.568  0.00  0.00    +0.210 HD
ENDBRANCH  48  52
BRANCH  43  54
ATOM     54  O   LIG    1       29.347 -11.570   4.943  0.00  0.00    -0.385 OA
ATOM     55  H   LIG    1       29.917 -11.790   4.184  0.00  0.00    +0.210 HD
ENDBRANCH  43  54
ENDBRANCH  41  47
ENDBRANCH   1  41
TORSDOF 21
ENDMDL
