MODEL 1
REMARK VINA RESULT:      -5.9      0.000      0.000
REMARK  Name = *****
REMARK                            x       y       z     vdW  Elec       q    Type
REMARK                         _______ _______ _______ _____ _____    ______ ____
ROOT
ATOM      1  C   LIG    1       26.028 -19.693   4.584  0.00  0.00    +0.162 A 
ATOM      2  C   LIG    1       24.898 -20.309   5.170  0.00  0.00    +0.026 A 
ATOM      3  C   LIG    1       25.074 -20.937   6.419  0.00  0.00    +0.005 A 
ATOM      4  C   LIG    1       23.987 -21.558   7.062  0.00  0.00    +0.010 A 
ATOM      5  C   LIG    1       22.725 -21.571   6.471  0.00  0.00    +0.001 A 
ATOM      6  C   LIG    1       22.534 -20.970   5.233  0.00  0.00    +0.001 A 
ATOM      7  C   LIG    1       26.344 -20.924   6.982  0.00  0.00    +0.143 A 
ATOM      8  N   LIG    1       27.407 -20.348   6.391  0.00  0.00    -0.155 NA
ATOM      9  C   LIG    1       23.606 -20.349   4.587  0.00  0.00    +0.012 A 
ATOM     10  N   LIG    1       27.245 -19.739   5.183  0.00  0.00    -0.133 NA
ENDROOT
BRANCH   1  11
ATOM     11  N   LIG    1       25.897 -19.032   3.320  0.00  0.00    -0.266 N 
ATOM     12  H   LIG    1       25.009 -19.318   2.901  0.00  0.00    +0.168 HD
BRANCH  11  13
ATOM     13  N   LIG    1       26.099 -17.624   3.306  0.00  0.00    -0.255 NA
ATOM     14  H   LIG    1       25.190 -17.152   3.227  0.00  0.00    +0.140 HD
ATOM     15  H   LIG    1       26.431 -17.336   4.234  0.00  0.00    +0.140 HD
ENDBRANCH  11  13
ENDBRANCH   1  11
TORSDOF 2
ENDMDL
MODEL 2
REMARK VINA RESULT:      -5.9      1.643      2.647
REMARK  Name = *****
REMARK                            x       y       z     vdW  Elec       q    Type
REMARK                         _______ _______ _______ _____ _____    ______ ____
ROOT
ATOM      1  C   LIG    1       25.724 -20.441   5.278  0.00  0.00    +0.162 A 
ATOM      2  C   LIG    1       24.497 -19.895   4.835  0.00  0.00    +0.026 A 
ATOM      3  C   LIG    1       23.339 -20.211   5.574  0.00  0.00    +0.005 A 
ATOM      4  C   LIG    1       22.088 -19.691   5.192  0.00  0.00    +0.010 A 
ATOM      5  C   LIG    1       21.972 -18.865   4.076  0.00  0.00    +0.001 A 
ATOM      6  C   LIG    1       23.100 -18.554   3.326  0.00  0.00    +0.001 A 
ATOM      7  C   LIG    1       23.476 -21.048   6.674  0.00  0.00    +0.143 A 
ATOM      8  N   LIG    1       24.654 -21.571   7.062  0.00  0.00    -0.155 NA
ATOM      9  C   LIG    1       24.347 -19.064   3.697  0.00  0.00    +0.012 A 
ATOM     10  N   LIG    1       25.778 -21.270   6.353  0.00  0.00    -0.133 NA
ENDROOT
BRANCH   1  11
ATOM     11  N   LIG    1       26.929 -20.140   4.568  0.00  0.00    -0.266 N 
ATOM     12  H   LIG    1       26.740 -19.361   3.932  0.00  0.00    +0.168 HD
BRANCH  11  13
ATOM     13  N   LIG    1       28.107 -19.960   5.345  0.00  0.00    -0.255 NA
ATOM     14  H   LIG    1       27.933 -20.286   6.304  0.00  0.00    +0.140 HD
ATOM     15  H   LIG    1       28.823 -20.611   5.003  0.00  0.00    +0.140 HD
ENDBRANCH  11  13
ENDBRANCH   1  11
TORSDOF 2
ENDMDL
MODEL 3
REMARK VINA RESULT:      -5.6      1.537      2.127
REMARK  Name = *****
REMARK                            x       y       z     vdW  Elec       q    Type
REMARK                         _______ _______ _______ _____ _____    ______ ____
ROOT
ATOM      1  C   LIG    1       27.465 -19.613   5.434  0.00  0.00    +0.162 A 
ATOM      2  C   LIG    1       26.127 -19.861   5.047  0.00  0.00    +0.026 A 
ATOM      3  C   LIG    1       25.429 -20.875   5.734  0.00  0.00    +0.005 A 
ATOM      4  C   LIG    1       24.091 -21.164   5.406  0.00  0.00    +0.010 A 
ATOM      5  C   LIG    1       23.440 -20.462   4.394  0.00  0.00    +0.001 A 
ATOM      6  C   LIG    1       24.116 -19.468   3.695  0.00  0.00    +0.001 A 
ATOM      7  C   LIG    1       26.103 -21.572   6.729  0.00  0.00    +0.143 A 
ATOM      8  N   LIG    1       27.384 -21.329   7.061  0.00  0.00    -0.155 NA
ATOM      9  C   LIG    1       25.443 -19.172   4.014  0.00  0.00    +0.012 A 
ATOM     10  N   LIG    1       28.066 -20.350   6.403  0.00  0.00    -0.133 NA
ENDROOT
BRANCH   1  11
ATOM     11  N   LIG    1       28.212 -18.585   4.774  0.00  0.00    -0.266 N 
ATOM     12  H   LIG    1       27.589 -17.790   4.613  0.00  0.00    +0.168 HD
BRANCH  11  13
ATOM     13  N   LIG    1       29.455 -18.217   5.359  0.00  0.00    -0.255 NA
ATOM     14  H   LIG    1       29.284 -17.566   6.136  0.00  0.00    +0.140 HD
ATOM     15  H   LIG    1       29.849 -19.041   5.827  0.00  0.00    +0.140 HD
ENDBRANCH  11  13
ENDBRANCH   1  11
TORSDOF 2
ENDMDL
MODEL 4
REMARK VINA RESULT:      -5.4      1.697      3.007
REMARK  Name = *****
REMARK                            x       y       z     vdW  Elec       q    Type
REMARK                         _______ _______ _______ _____ _____    ______ ____
ROOT
ATOM      1  C   LIG    1       24.538 -18.991   3.715  0.00  0.00    +0.162 A 
ATOM      2  C   LIG    1       24.716 -19.851   4.824  0.00  0.00    +0.026 A 
ATOM      3  C   LIG    1       23.571 -20.195   5.570  0.00  0.00    +0.005 A 
ATOM      4  C   LIG    1       23.677 -21.055   6.679  0.00  0.00    +0.010 A 
ATOM      5  C   LIG    1       24.913 -21.572   7.062  0.00  0.00    +0.001 A 
ATOM      6  C   LIG    1       26.056 -21.233   6.347  0.00  0.00    +0.001 A 
ATOM      7  C   LIG    1       22.351 -19.656   5.179  0.00  0.00    +0.143 A 
ATOM      8  N   LIG    1       22.215 -18.822   4.131  0.00  0.00    -0.155 NA
ATOM      9  C   LIG    1       25.961 -20.381   5.244  0.00  0.00    +0.012 A 
ATOM     10  N   LIG    1       23.317 -18.485   3.404  0.00  0.00    -0.133 NA
ENDROOT
BRANCH   1  11
ATOM     11  N   LIG    1       25.670 -18.622   2.919  0.00  0.00    -0.266 N 
ATOM     12  H   LIG    1       25.381 -18.613   1.937  0.00  0.00    +0.168 HD
BRANCH  11  13
ATOM     13  N   LIG    1       26.376 -17.450   3.308  0.00  0.00    -0.255 NA
ATOM     14  H   LIG    1       27.175 -17.716   3.896  0.00  0.00    +0.140 HD
ATOM     15  H   LIG    1       26.823 -17.051   2.475  0.00  0.00    +0.140 HD
ENDBRANCH  11  13
ENDBRANCH   1  11
TORSDOF 2
ENDMDL
MODEL 5
REMARK VINA RESULT:      -5.4      0.805      2.692
REMARK  Name = *****
REMARK                            x       y       z     vdW  Elec       q    Type
REMARK                         _______ _______ _______ _____ _____    ______ ____
ROOT
ATOM      1  C   LIG    1       26.307 -19.687   4.722  0.00  0.00    +0.162 A 
ATOM      2  C   LIG    1       25.164 -20.220   5.360  0.00  0.00    +0.026 A 
ATOM      3  C   LIG    1       23.903 -19.866   4.839  0.00  0.00    +0.005 A 
ATOM      4  C   LIG    1       22.726 -20.372   5.421  0.00  0.00    +0.010 A 
ATOM      5  C   LIG    1       22.786 -21.221   6.524  0.00  0.00    +0.001 A 
ATOM      6  C   LIG    1       24.020 -21.571   7.062  0.00  0.00    +0.001 A 
ATOM      7  C   LIG    1       23.867 -19.007   3.749  0.00  0.00    +0.143 A 
ATOM      8  N   LIG    1       24.971 -18.496   3.174  0.00  0.00    -0.155 NA
ATOM      9  C   LIG    1       25.194 -21.076   6.491  0.00  0.00    +0.012 A 
ATOM     10  N   LIG    1       26.194 -18.834   3.671  0.00  0.00    -0.133 NA
ENDROOT
BRANCH   1  11
ATOM     11  N   LIG    1       27.611 -20.026   5.207  0.00  0.00    -0.266 N 
ATOM     12  H   LIG    1       27.910 -20.888   4.744  0.00  0.00    +0.168 HD
BRANCH  11  13
ATOM     13  N   LIG    1       28.596 -19.001   5.179  0.00  0.00    -0.255 NA
ATOM     14  H   LIG    1       28.342 -18.307   4.465  0.00  0.00    +0.140 HD
ATOM     15  H   LIG    1       28.532 -18.468   6.054  0.00  0.00    +0.140 HD
ENDBRANCH  11  13
ENDBRANCH   1  11
TORSDOF 2
ENDMDL
MODEL 6
REMARK VINA RESULT:      -5.4      1.774      3.144
REMARK  Name = *****
REMARK                            x       y       z     vdW  Elec       q    Type
REMARK                         _______ _______ _______ _____ _____    ______ ____
ROOT
ATOM      1  C   LIG    1       25.208 -19.453   3.895  0.00  0.00    +0.162 A 
ATOM      2  C   LIG    1       25.998 -19.994   4.936  0.00  0.00    +0.026 A 
ATOM      3  C   LIG    1       25.372 -20.879   5.836  0.00  0.00    +0.005 A 
ATOM      4  C   LIG    1       26.105 -21.461   6.888  0.00  0.00    +0.010 A 
ATOM      5  C   LIG    1       27.455 -21.165   7.062  0.00  0.00    +0.001 A 
ATOM      6  C   LIG    1       28.088 -20.283   6.193  0.00  0.00    +0.001 A 
ATOM      7  C   LIG    1       24.021 -21.148   5.652  0.00  0.00    +0.143 A 
ATOM      8  N   LIG    1       23.288 -20.602   4.665  0.00  0.00    -0.155 NA
ATOM      9  C   LIG    1       27.370 -19.701   5.145  0.00  0.00    +0.012 A 
ATOM     10  N   LIG    1       23.886 -19.746   3.790  0.00  0.00    -0.133 NA
ENDROOT
BRANCH   1  11
ATOM     11  N   LIG    1       25.802 -18.558   2.949  0.00  0.00    -0.266 N 
ATOM     12  H   LIG    1       25.364 -18.718   2.039  0.00  0.00    +0.168 HD
BRANCH  11  13
ATOM     13  N   LIG    1       25.861 -17.184   3.312  0.00  0.00    -0.255 NA
ATOM     14  H   LIG    1       25.036 -16.699   2.937  0.00  0.00    +0.140 HD
ATOM     15  H   LIG    1       25.732 -17.112   4.327  0.00  0.00    +0.140 HD
ENDBRANCH  11  13
ENDBRANCH   1  11
TORSDOF 2
ENDMDL
MODEL 7
REMARK VINA RESULT:      -4.9      1.023      2.824
REMARK  Name = *****
REMARK                            x       y       z     vdW  Elec       q    Type
REMARK                         _______ _______ _______ _____ _____    ______ ____
ROOT
ATOM      1  C   LIG    1       26.154 -20.086   5.144  0.00  0.00    +0.162 A 
ATOM      2  C   LIG    1       24.769 -20.368   5.195  0.00  0.00    +0.026 A 
ATOM      3  C   LIG    1       23.921 -19.616   4.358  0.00  0.00    +0.005 A 
ATOM      4  C   LIG    1       22.534 -19.855   4.353  0.00  0.00    +0.010 A 
ATOM      5  C   LIG    1       21.977 -20.829   5.179  0.00  0.00    +0.001 A 
ATOM      6  C   LIG    1       22.796 -21.572   6.022  0.00  0.00    +0.001 A 
ATOM      7  C   LIG    1       24.496 -18.640   3.554  0.00  0.00    +0.143 A 
ATOM      8  N   LIG    1       25.816 -18.378   3.541  0.00  0.00    -0.155 NA
ATOM      9  C   LIG    1       24.174 -21.344   6.034  0.00  0.00    +0.012 A 
ATOM     10  N   LIG    1       26.644 -19.101   4.347  0.00  0.00    -0.133 NA
ENDROOT
BRANCH   1  11
ATOM     11  N   LIG    1       27.058 -20.831   5.967  0.00  0.00    -0.266 N 
ATOM     12  H   LIG    1       26.921 -21.826   5.773  0.00  0.00    +0.168 HD
BRANCH  11  13
ATOM     13  N   LIG    1       28.425 -20.436   5.944  0.00  0.00    -0.255 NA
ATOM     14  H   LIG    1       28.794 -20.437   6.903  0.00  0.00    +0.140 HD
ATOM     15  H   LIG    1       28.967 -21.177   5.485  0.00  0.00    +0.140 HD
ENDBRANCH  11  13
ENDBRANCH   1  11
TORSDOF 2
ENDMDL
MODEL 8
REMARK VINA RESULT:      -4.7      2.292      3.414
REMARK  Name = *****
REMARK                            x       y       z     vdW  Elec       q    Type
REMARK                         _______ _______ _______ _____ _____    ______ ____
ROOT
ATOM      1  C   LIG    1       23.745 -20.070   4.849  0.00  0.00    +0.162 A 
ATOM      2  C   LIG    1       25.078 -20.178   5.311  0.00  0.00    +0.026 A 
ATOM      3  C   LIG    1       25.308 -20.967   6.455  0.00  0.00    +0.005 A 
ATOM      4  C   LIG    1       26.613 -21.124   6.959  0.00  0.00    +0.010 A 
ATOM      5  C   LIG    1       27.693 -20.496   6.343  0.00  0.00    +0.001 A 
ATOM      6  C   LIG    1       27.484 -19.702   5.222  0.00  0.00    +0.001 A 
ATOM      7  C   LIG    1       24.214 -21.572   7.061  0.00  0.00    +0.143 A 
ATOM      8  N   LIG    1       22.953 -21.435   6.613  0.00  0.00    -0.155 NA
ATOM      9  C   LIG    1       26.194 -19.540   4.713  0.00  0.00    +0.012 A 
ATOM     10  N   LIG    1       22.721 -20.674   5.507  0.00  0.00    -0.133 NA
ENDROOT
BRANCH   1  11
ATOM     11  N   LIG    1       23.461 -19.289   3.684  0.00  0.00    -0.266 N 
ATOM     12  H   LIG    1       23.339 -19.926   2.893  0.00  0.00    +0.168 HD
BRANCH  11  13
ATOM     13  N   LIG    1       22.424 -18.322   3.794  0.00  0.00    -0.255 NA
ATOM     14  H   LIG    1       21.517 -18.803   3.852  0.00  0.00    +0.140 HD
ATOM     15  H   LIG    1       22.504 -17.864   4.709  0.00  0.00    +0.140 HD
ENDBRANCH  11  13
ENDBRANCH   1  11
TORSDOF 2
ENDMDL
MODEL 9
REMARK VINA RESULT:      -4.7      2.166      3.821
REMARK  Name = *****
REMARK                            x       y       z     vdW  Elec       q    Type
REMARK                         _______ _______ _______ _____ _____    ______ ____
ROOT
ATOM      1  C   LIG    1       25.694 -19.984   4.733  0.00  0.00    +0.162 A 
ATOM      2  C   LIG    1       26.963 -19.700   5.290  0.00  0.00    +0.026 A 
ATOM      3  C   LIG    1       27.328 -20.390   6.463  0.00  0.00    +0.005 A 
ATOM      4  C   LIG    1       28.581 -20.162   7.062  0.00  0.00    +0.010 A 
ATOM      5  C   LIG    1       29.475 -19.245   6.512  0.00  0.00    +0.001 A 
ATOM      6  C   LIG    1       29.127 -18.544   5.363  0.00  0.00    +0.001 A 
ATOM      7  C   LIG    1       26.415 -21.288   7.002  0.00  0.00    +0.143 A 
ATOM      8  N   LIG    1       25.205 -21.524   6.463  0.00  0.00    -0.155 NA
ATOM      9  C   LIG    1       27.887 -18.764   4.760  0.00  0.00    +0.012 A 
ATOM     10  N   LIG    1       24.844 -20.860   5.328  0.00  0.00    -0.133 NA
ENDROOT
BRANCH   1  11
ATOM     11  N   LIG    1       25.282 -19.317   3.536  0.00  0.00    -0.266 N 
ATOM     12  H   LIG    1       25.644 -19.843   2.736  0.00  0.00    +0.168 HD
BRANCH  11  13
ATOM     13  N   LIG    1       23.901 -18.995   3.420  0.00  0.00    -0.255 NA
ATOM     14  H   LIG    1       23.534 -18.742   4.345  0.00  0.00    +0.140 HD
ATOM     15  H   LIG    1       23.817 -18.122   2.888  0.00  0.00    +0.140 HD
ENDBRANCH  11  13
ENDBRANCH   1  11
TORSDOF 2
ENDMDL
