MODEL 1
REMARK VINA RESULT:      -5.3      0.000      0.000
REMARK  Name = *****
REMARK                            x       y       z     vdW  Elec       q    Type
REMARK                         _______ _______ _______ _____ _____    ______ ____
ROOT
ATOM      1  C   LIG    1       24.570 -32.272   9.333  0.00  0.00    +0.189 C 
ATOM      2  C   LIG    1       24.744 -32.479  10.922  0.00  0.00    +0.022 C 
ATOM      3  C   LIG    1       23.266 -32.601  11.404  0.00  0.00    +0.006 C 
ATOM      4  C   LIG    1       22.595 -31.269  11.861  0.00  0.00    +0.037 C 
ATOM      5  C   LIG    1       23.416 -30.554  12.955  0.00  0.00    +0.153 C 
ATOM      6  C   LIG    1       24.794 -30.212  12.328  0.00  0.00    +0.154 C 
ATOM      7  F   LIG    1       23.653 -31.515  13.922  0.00  0.00    -0.238 F 
ATOM      8  C   LIG    1       22.670 -29.330  13.707  0.00  0.00    +0.047 C 
ATOM      9  C   LIG    1       21.120 -29.437  13.714  0.00  0.00    -0.020 C 
ATOM     10  C   LIG    1       20.383 -28.398  14.178  0.00  0.00    +0.054 C 
ATOM     11  C   LIG    1       20.675 -27.167  13.352  0.00  0.00    +0.179 C 
ATOM     12  C   LIG    1       22.103 -26.956  12.984  0.00  0.00    +0.047 C 
ATOM     13  O   LIG    1       19.810 -26.338  13.106  0.00  0.00    -0.288 OA
ATOM     14  C   LIG    1       20.473 -30.220  12.606  0.00  0.00    +0.194 C 
ATOM     15  F   LIG    1       20.510 -29.505  11.445  0.00  0.00    -0.241 F 
ATOM     16  C   LIG    1       23.128 -29.323  15.199  0.00  0.00    +0.023 C 
ATOM     17  C   LIG    1       23.011 -27.931  13.169  0.00  0.00    -0.009 C 
ATOM     18  C   LIG    1       21.170 -31.539  12.362  0.00  0.00    +0.048 C 
ATOM     19  C   LIG    1       22.505 -33.227  10.212  0.00  0.00    +0.012 C 
ATOM     20  C   LIG    1       25.477 -33.825  11.246  0.00  0.00    +0.016 C 
ATOM     21  C   LIG    1       25.534 -31.416  11.730  0.00  0.00    +0.046 C 
ATOM     22  C   LIG    1       23.489 -33.367   9.044  0.00  0.00    +0.039 C 
ATOM     23  C   LIG    1       22.716 -33.402   7.727  0.00  0.00    +0.012 C 
ENDROOT
BRANCH   6  24
ATOM     24  O   LIG    1       25.670 -29.630  13.305  0.00  0.00    -0.389 OA
ATOM     25  H   LIG    1       25.290 -28.767  13.560  0.00  0.00    +0.210 HD
ENDBRANCH   6  24
BRANCH   1  26
ATOM     26  C   LIG    1       25.939 -32.394   8.573  0.00  0.00    +0.236 C 
ATOM     27  O   LIG    1       26.930 -31.747   8.904  0.00  0.00    -0.281 OA
BRANCH  26  28
ATOM     28  S   LIG    1       26.050 -33.553   7.243  0.00  0.00    -0.051 S 
BRANCH  28  29
ATOM     29  C   LIG    1       27.146 -32.641   6.144  0.00  0.00    +0.290 C 
ATOM     30  F   LIG    1       26.533 -31.479   5.780  0.00  0.00    -0.237 F 
ENDBRANCH  28  29
ENDBRANCH  26  28
ENDBRANCH   1  26
BRANCH   1  31
ATOM     31  O   LIG    1       24.015 -30.935   9.150  0.00  0.00    -0.449 OA
BRANCH  31  32
ATOM     32  C   LIG    1       24.245 -30.298   7.964  0.00  0.00    +0.308 C 
ATOM     33  O   LIG    1       23.770 -30.620   6.895  0.00  0.00    -0.251 OA
BRANCH  32  35
ATOM     34  C   LIG    1       25.111 -28.277   6.880  0.00  0.00    +0.015 C 
ATOM     35  C   LIG    1       25.198 -29.139   8.127  0.00  0.00    +0.117 C 
ENDBRANCH  32  35
ENDBRANCH  31  32
ENDBRANCH   1  31
TORSDOF 7
ENDMDL
MODEL 2
REMARK VINA RESULT:      -5.3      2.548      3.301
REMARK  Name = *****
REMARK                            x       y       z     vdW  Elec       q    Type
REMARK                         _______ _______ _______ _____ _____    ______ ____
ROOT
ATOM      1  C   LIG    1       23.744 -31.607  10.814  0.00  0.00    +0.189 C 
ATOM      2  C   LIG    1       24.430 -31.744  12.266  0.00  0.00    +0.022 C 
ATOM      3  C   LIG    1       23.521 -30.837  13.149  0.00  0.00    +0.006 C 
ATOM      4  C   LIG    1       23.989 -29.356  13.298  0.00  0.00    +0.037 C 
ATOM      5  C   LIG    1       25.439 -29.257  13.815  0.00  0.00    +0.153 C 
ATOM      6  C   LIG    1       26.340 -29.945  12.754  0.00  0.00    +0.154 C 
ATOM      7  F   LIG    1       25.481 -30.057  14.943  0.00  0.00    -0.238 F 
ATOM      8  C   LIG    1       25.919 -27.785  14.287  0.00  0.00    +0.047 C 
ATOM      9  C   LIG    1       24.763 -26.859  14.757  0.00  0.00    -0.020 C 
ATOM     10  C   LIG    1       25.023 -25.556  15.029  0.00  0.00    +0.054 C 
ATOM     11  C   LIG    1       25.567 -24.884  13.790  0.00  0.00    +0.179 C 
ATOM     12  C   LIG    1       26.541 -25.682  12.993  0.00  0.00    +0.047 C 
ATOM     13  O   LIG    1       25.315 -23.716  13.529  0.00  0.00    -0.288 OA
ATOM     14  C   LIG    1       23.392 -27.123  14.202  0.00  0.00    +0.194 C 
ATOM     15  F   LIG    1       23.323 -26.704  12.906  0.00  0.00    -0.241 F 
ATOM     16  C   LIG    1       26.885 -27.952  15.500  0.00  0.00    +0.023 C 
ATOM     17  C   LIG    1       26.716 -26.993  13.237  0.00  0.00    -0.009 C 
ATOM     18  C   LIG    1       23.042 -28.594  14.234  0.00  0.00    +0.048 C 
ATOM     19  C   LIG    1       22.121 -30.916  12.497  0.00  0.00    +0.012 C 
ATOM     20  C   LIG    1       24.334 -33.210  12.807  0.00  0.00    +0.016 C 
ATOM     21  C   LIG    1       25.932 -31.386  12.417  0.00  0.00    +0.046 C 
ATOM     22  C   LIG    1       22.240 -31.758  11.220  0.00  0.00    +0.039 C 
ATOM     23  C   LIG    1       21.110 -31.392  10.261  0.00  0.00    +0.012 C 
ENDROOT
BRANCH   6  24
ATOM     24  O   LIG    1       27.705 -29.992  13.196  0.00  0.00    -0.389 OA
ATOM     25  H   LIG    1       27.707 -29.806  14.155  0.00  0.00    +0.210 HD
ENDBRANCH   6  24
BRANCH   1  26
ATOM     26  C   LIG    1       24.321 -32.651   9.792  0.00  0.00    +0.236 C 
ATOM     27  O   LIG    1       25.520 -32.915   9.734  0.00  0.00    -0.281 OA
BRANCH  26  28
ATOM     28  S   LIG    1       23.182 -33.508   8.747  0.00  0.00    -0.051 S 
BRANCH  28  29
ATOM     29  C   LIG    1       24.078 -33.415   7.189  0.00  0.00    +0.290 C 
ATOM     30  F   LIG    1       23.385 -32.610   6.334  0.00  0.00    -0.237 F 
ENDBRANCH  28  29
ENDBRANCH  26  28
ENDBRANCH   1  26
BRANCH   1  31
ATOM     31  O   LIG    1       24.023 -30.251  10.352  0.00  0.00    -0.449 OA
BRANCH  31  32
ATOM     32  C   LIG    1       24.407 -30.078   9.053  0.00  0.00    +0.308 C 
ATOM     33  O   LIG    1       23.654 -30.035   8.103  0.00  0.00    -0.251 OA
BRANCH  32  35
ATOM     34  C   LIG    1       26.322 -28.583   9.380  0.00  0.00    +0.015 C 
ATOM     35  C   LIG    1       25.906 -29.969   8.922  0.00  0.00    +0.117 C 
ENDBRANCH  32  35
ENDBRANCH  31  32
ENDBRANCH   1  31
TORSDOF 7
ENDMDL
MODEL 3
REMARK VINA RESULT:      -5.0      2.307      3.065
REMARK  Name = *****
REMARK                            x       y       z     vdW  Elec       q    Type
REMARK                         _______ _______ _______ _____ _____    ______ ____
ROOT
ATOM      1  C   LIG    1       24.395 -31.754   9.351  0.00  0.00    +0.189 C 
ATOM      2  C   LIG    1       25.471 -32.022  10.521  0.00  0.00    +0.022 C 
ATOM      3  C   LIG    1       24.681 -31.609  11.799  0.00  0.00    +0.006 C 
ATOM      4  C   LIG    1       24.864 -30.129  12.256  0.00  0.00    +0.037 C 
ATOM      5  C   LIG    1       26.351 -29.765  12.453  0.00  0.00    +0.153 C 
ATOM      6  C   LIG    1       27.040 -29.935  11.073  0.00  0.00    +0.154 C 
ATOM      7  F   LIG    1       26.864 -30.755  13.272  0.00  0.00    -0.238 F 
ATOM      8  C   LIG    1       26.637 -28.361  13.207  0.00  0.00    +0.047 C 
ATOM      9  C   LIG    1       25.497 -27.905  14.158  0.00  0.00    -0.020 C 
ATOM     10  C   LIG    1       25.555 -26.675  14.725  0.00  0.00    +0.054 C 
ATOM     11  C   LIG    1       25.587 -25.624  13.639  0.00  0.00    +0.179 C 
ATOM     12  C   LIG    1       26.440 -25.936  12.459  0.00  0.00    +0.047 C 
ATOM     13  O   LIG    1       25.043 -24.538  13.780  0.00  0.00    -0.288 OA
ATOM     14  C   LIG    1       24.108 -28.395  13.862  0.00  0.00    +0.194 C 
ATOM     15  F   LIG    1       23.598 -27.732  12.784  0.00  0.00    -0.241 F 
ATOM     16  C   LIG    1       27.916 -28.531  14.084  0.00  0.00    +0.023 C 
ATOM     17  C   LIG    1       26.935 -27.174  12.277  0.00  0.00    -0.009 C 
ATOM     18  C   LIG    1       24.082 -29.874  13.551  0.00  0.00    +0.048 C 
ATOM     19  C   LIG    1       23.200 -31.912  11.471  0.00  0.00    +0.012 C 
ATOM     20  C   LIG    1       25.825 -33.544  10.633  0.00  0.00    +0.016 C 
ATOM     21  C   LIG    1       26.852 -31.320  10.438  0.00  0.00    +0.046 C 
ATOM     22  C   LIG    1       23.126 -32.386  10.014  0.00  0.00    +0.039 C 
ATOM     23  C   LIG    1       21.724 -32.130   9.465  0.00  0.00    +0.012 C 
ENDROOT
BRANCH   6  24
ATOM     24  O   LIG    1       28.455 -29.714  11.177  0.00  0.00    -0.389 OA
ATOM     25  H   LIG    1       28.645 -28.850  10.763  0.00  0.00    +0.210 HD
ENDBRANCH   6  24
BRANCH   1  26
ATOM     26  C   LIG    1       24.862 -32.353   7.976  0.00  0.00    +0.236 C 
ATOM     27  O   LIG    1       24.090 -32.949   7.228  0.00  0.00    -0.281 OA
BRANCH  26  28
ATOM     28  S   LIG    1       26.538 -32.091   7.482  0.00  0.00    -0.051 S 
BRANCH  28  29
ATOM     29  C   LIG    1       26.332 -32.126   5.694  0.00  0.00    +0.290 C 
ATOM     30  F   LIG    1       26.072 -30.860   5.260  0.00  0.00    -0.237 F 
ENDBRANCH  28  29
ENDBRANCH  26  28
ENDBRANCH   1  26
BRANCH   1  31
ATOM     31  O   LIG    1       24.256 -30.305   9.243  0.00  0.00    -0.449 OA
BRANCH  31  32
ATOM     32  C   LIG    1       24.319 -29.742   8.001  0.00  0.00    +0.308 C 
ATOM     33  O   LIG    1       23.569 -29.994   7.081  0.00  0.00    -0.251 OA
BRANCH  32  35
ATOM     34  C   LIG    1       25.229 -27.902   6.660  0.00  0.00    +0.015 C 
ATOM     35  C   LIG    1       25.466 -28.768   7.885  0.00  0.00    +0.117 C 
ENDBRANCH  32  35
ENDBRANCH  31  32
ENDBRANCH   1  31
TORSDOF 7
ENDMDL
MODEL 4
REMARK VINA RESULT:      -4.9      3.252      6.088
REMARK  Name = *****
REMARK                            x       y       z     vdW  Elec       q    Type
REMARK                         _______ _______ _______ _____ _____    ______ ____
ROOT
ATOM      1  C   LIG    1       21.479 -30.907  12.895  0.00  0.00    +0.189 C 
ATOM      2  C   LIG    1       22.840 -31.478  12.249  0.00  0.00    +0.022 C 
ATOM      3  C   LIG    1       23.788 -31.553  13.484  0.00  0.00    +0.006 C 
ATOM      4  C   LIG    1       24.678 -30.294  13.728  0.00  0.00    +0.037 C 
ATOM      5  C   LIG    1       25.513 -29.927  12.483  0.00  0.00    +0.153 C 
ATOM      6  C   LIG    1       24.505 -29.596  11.350  0.00  0.00    +0.154 C 
ATOM      7  F   LIG    1       26.150 -31.097  12.112  0.00  0.00    -0.238 F 
ATOM      8  C   LIG    1       26.681 -28.831  12.719  0.00  0.00    +0.047 C 
ATOM      9  C   LIG    1       27.221 -28.779  14.176  0.00  0.00    -0.020 C 
ATOM     10  C   LIG    1       28.089 -27.800  14.529  0.00  0.00    +0.054 C 
ATOM     11  C   LIG    1       27.439 -26.453  14.317  0.00  0.00    +0.179 C 
ATOM     12  C   LIG    1       26.629 -26.311  13.074  0.00  0.00    +0.047 C 
ATOM     13  O   LIG    1       27.664 -25.506  15.058  0.00  0.00    -0.288 OA
ATOM     14  C   LIG    1       26.299 -29.227  15.274  0.00  0.00    +0.194 C 
ATOM     15  F   LIG    1       25.343 -28.280  15.498  0.00  0.00    -0.241 F 
ATOM     16  C   LIG    1       27.888 -29.201  11.804  0.00  0.00    +0.023 C 
ATOM     17  C   LIG    1       26.307 -27.390  12.338  0.00  0.00    -0.009 C 
ATOM     18  C   LIG    1       25.598 -30.523  14.933  0.00  0.00    +0.048 C 
ATOM     19  C   LIG    1       22.857 -31.819  14.689  0.00  0.00    +0.012 C 
ATOM     20  C   LIG    1       22.644 -32.929  11.693  0.00  0.00    +0.016 C 
ATOM     21  C   LIG    1       23.484 -30.706  11.067  0.00  0.00    +0.046 C 
ATOM     22  C   LIG    1       21.409 -31.795  14.183  0.00  0.00    +0.039 C 
ATOM     23  C   LIG    1       20.469 -31.458  15.338  0.00  0.00    +0.012 C 
ENDROOT
BRANCH   6  24
ATOM     24  O   LIG    1       25.191 -29.337  10.116  0.00  0.00    -0.389 OA
ATOM     25  H   LIG    1       26.071 -29.757  10.178  0.00  0.00    +0.210 HD
ENDBRANCH   6  24
BRANCH   1  26
ATOM     26  C   LIG    1       20.272 -30.995  11.894  0.00  0.00    +0.236 C 
ATOM     27  O   LIG    1       20.255 -30.372  10.834  0.00  0.00    -0.281 OA
BRANCH  26  28
ATOM     28  S   LIG    1       18.937 -32.082  12.296  0.00  0.00    -0.051 S 
BRANCH  28  29
ATOM     29  C   LIG    1       17.745 -31.564  11.050  0.00  0.00    +0.290 C 
ATOM     30  F   LIG    1       16.723 -30.907  11.669  0.00  0.00    -0.237 F 
ENDBRANCH  28  29
ENDBRANCH  26  28
ENDBRANCH   1  26
BRANCH   1  31
ATOM     31  O   LIG    1       21.739 -29.513  13.241  0.00  0.00    -0.449 OA
BRANCH  31  32
ATOM     32  C   LIG    1       20.674 -28.667  13.353  0.00  0.00    +0.308 C 
ATOM     33  O   LIG    1       19.577 -28.976  13.769  0.00  0.00    -0.251 OA
BRANCH  32  35
ATOM     34  C   LIG    1       22.466 -27.002  13.189  0.00  0.00    +0.015 C 
ATOM     35  C   LIG    1       21.009 -27.278  12.866  0.00  0.00    +0.117 C 
ENDBRANCH  32  35
ENDBRANCH  31  32
ENDBRANCH   1  31
TORSDOF 7
ENDMDL
MODEL 5
REMARK VINA RESULT:      -4.9      1.689      2.321
REMARK  Name = *****
REMARK                            x       y       z     vdW  Elec       q    Type
REMARK                         _______ _______ _______ _____ _____    ______ ____
ROOT
ATOM      1  C   LIG    1       24.732 -32.284   7.287  0.00  0.00    +0.189 C 
ATOM      2  C   LIG    1       25.610 -32.661   8.585  0.00  0.00    +0.022 C 
ATOM      3  C   LIG    1       24.530 -33.203   9.570  0.00  0.00    +0.006 C 
ATOM      4  C   LIG    1       23.920 -32.150  10.546  0.00  0.00    +0.037 C 
ATOM      5  C   LIG    1       25.008 -31.416  11.357  0.00  0.00    +0.153 C 
ATOM      6  C   LIG    1       25.901 -30.666  10.333  0.00  0.00    +0.154 C 
ATOM      7  F   LIG    1       25.793 -32.415  11.905  0.00  0.00    -0.238 F 
ATOM      8  C   LIG    1       24.477 -30.526  12.601  0.00  0.00    +0.047 C 
ATOM      9  C   LIG    1       23.124 -31.006  13.196  0.00  0.00    -0.020 C 
ATOM     10  C   LIG    1       22.506 -30.251  14.137  0.00  0.00    +0.054 C 
ATOM     11  C   LIG    1       22.207 -28.884  13.568  0.00  0.00    +0.179 C 
ATOM     12  C   LIG    1       23.278 -28.284  12.724  0.00  0.00    +0.047 C 
ATOM     13  O   LIG    1       21.200 -28.264  13.880  0.00  0.00    -0.288 OA
ATOM     14  C   LIG    1       22.196 -31.761  12.287  0.00  0.00    +0.194 C 
ATOM     15  F   LIG    1       21.608 -30.905  11.403  0.00  0.00    -0.241 F 
ATOM     16  C   LIG    1       25.530 -30.614  13.749  0.00  0.00    +0.023 C 
ATOM     17  C   LIG    1       24.320 -29.025  12.307  0.00  0.00    -0.009 C 
ATOM     18  C   LIG    1       22.920 -32.824  11.493  0.00  0.00    +0.048 C 
ATOM     19  C   LIG    1       23.439 -33.824   8.667  0.00  0.00    +0.012 C 
ATOM     20  C   LIG    1       26.618 -33.819   8.276  0.00  0.00    +0.016 C 
ATOM     21  C   LIG    1       26.490 -31.560   9.234  0.00  0.00    +0.046 C 
ATOM     22  C   LIG    1       23.825 -33.558   7.206  0.00  0.00    +0.039 C 
ATOM     23  C   LIG    1       22.573 -33.596   6.333  0.00  0.00    +0.012 C 
ENDROOT
BRANCH   6  24
ATOM     24  O   LIG    1       27.008 -30.030  10.989  0.00  0.00    -0.389 OA
ATOM     25  H   LIG    1       26.649 -29.286  11.510  0.00  0.00    +0.210 HD
ENDBRANCH   6  24
BRANCH   1  26
ATOM     26  C   LIG    1       25.633 -31.963   6.041  0.00  0.00    +0.236 C 
ATOM     27  O   LIG    1       26.568 -31.167   6.099  0.00  0.00    -0.281 OA
BRANCH  26  28
ATOM     28  S   LIG    1       25.314 -32.837   4.538  0.00  0.00    -0.051 S 
BRANCH  28  29
ATOM     29  C   LIG    1       26.950 -33.529   4.243  0.00  0.00    +0.290 C 
ATOM     30  F   LIG    1       27.439 -33.014   3.079  0.00  0.00    -0.237 F 
ENDBRANCH  28  29
ENDBRANCH  26  28
ENDBRANCH   1  26
BRANCH   1  31
ATOM     31  O   LIG    1       23.944 -31.109   7.648  0.00  0.00    -0.449 OA
BRANCH  31  32
ATOM     32  C   LIG    1       23.903 -30.065   6.770  0.00  0.00    +0.308 C 
ATOM     33  O   LIG    1       23.298 -30.061   5.718  0.00  0.00    -0.251 OA
BRANCH  32  35
ATOM     34  C   LIG    1       24.787 -27.870   6.131  0.00  0.00    +0.015 C 
ATOM     35  C   LIG    1       24.733 -28.898   7.247  0.00  0.00    +0.117 C 
ENDBRANCH  32  35
ENDBRANCH  31  32
ENDBRANCH   1  31
TORSDOF 7
ENDMDL
MODEL 6
REMARK VINA RESULT:      -4.9      2.636      6.780
REMARK  Name = *****
REMARK                            x       y       z     vdW  Elec       q    Type
REMARK                         _______ _______ _______ _____ _____    ______ ____
ROOT
ATOM      1  C   LIG    1       24.588 -29.129  13.533  0.00  0.00    +0.189 C 
ATOM      2  C   LIG    1       23.561 -30.330  13.215  0.00  0.00    +0.022 C 
ATOM      3  C   LIG    1       24.522 -31.492  12.819  0.00  0.00    +0.006 C 
ATOM      4  C   LIG    1       24.826 -31.626  11.295  0.00  0.00    +0.037 C 
ATOM      5  C   LIG    1       23.535 -31.743  10.457  0.00  0.00    +0.153 C 
ATOM      6  C   LIG    1       22.737 -30.430  10.678  0.00  0.00    +0.154 C 
ATOM      7  F   LIG    1       22.802 -32.753  11.054  0.00  0.00    -0.238 F 
ATOM      8  C   LIG    1       23.737 -32.183   8.912  0.00  0.00    +0.047 C 
ATOM      9  C   LIG    1       25.023 -33.016   8.651  0.00  0.00    -0.020 C 
ATOM     10  C   LIG    1       25.377 -33.311   7.376  0.00  0.00    +0.054 C 
ATOM     11  C   LIG    1       25.593 -32.028   6.607  0.00  0.00    +0.179 C 
ATOM     12  C   LIG    1       24.610 -30.940   6.869  0.00  0.00    +0.047 C 
ATOM     13  O   LIG    1       26.449 -31.936   5.738  0.00  0.00    -0.288 OA
ATOM     14  C   LIG    1       26.176 -32.829   9.596  0.00  0.00    +0.194 C 
ATOM     15  F   LIG    1       26.790 -31.636   9.353  0.00  0.00    -0.241 F 
ATOM     16  C   LIG    1       22.528 -33.077   8.498  0.00  0.00    +0.023 C 
ATOM     17  C   LIG    1       23.753 -31.024   7.902  0.00  0.00    -0.009 C 
ATOM     18  C   LIG    1       25.732 -32.838  11.041  0.00  0.00    +0.048 C 
ATOM     19  C   LIG    1       25.817 -31.234  13.625  0.00  0.00    +0.012 C 
ATOM     20  C   LIG    1       22.772 -30.761  14.497  0.00  0.00    +0.016 C 
ATOM     21  C   LIG    1       22.455 -30.102  12.151  0.00  0.00    +0.046 C 
ATOM     22  C   LIG    1       25.648 -29.910  14.381  0.00  0.00    +0.039 C 
ATOM     23  C   LIG    1       27.022 -29.318  14.687  0.00  0.00    +0.012 C 
ENDROOT
BRANCH   6  24
ATOM     24  O   LIG    1       21.466 -30.486  10.014  0.00  0.00    -0.389 OA
ATOM     25  H   LIG    1       20.849 -30.958  10.605  0.00  0.00    +0.210 HD
ENDBRANCH   6  24
BRANCH   1  26
ATOM     26  C   LIG    1       23.872 -27.911  14.220  0.00  0.00    +0.236 C 
ATOM     27  O   LIG    1       24.060 -27.625  15.401  0.00  0.00    -0.281 OA
BRANCH  26  28
ATOM     28  S   LIG    1       22.819 -26.898  13.227  0.00  0.00    -0.051 S 
BRANCH  28  29
ATOM     29  C   LIG    1       21.256 -27.170  14.076  0.00  0.00    +0.290 C 
ATOM     30  F   LIG    1       20.242 -27.065  13.171  0.00  0.00    -0.237 F 
ENDBRANCH  28  29
ENDBRANCH  26  28
ENDBRANCH   1  26
BRANCH   1  31
ATOM     31  O   LIG    1       25.152 -28.718  12.251  0.00  0.00    -0.449 OA
BRANCH  31  32
ATOM     32  C   LIG    1       26.194 -27.835  12.257  0.00  0.00    +0.308 C 
ATOM     33  O   LIG    1       26.242 -26.817  12.915  0.00  0.00    -0.251 OA
BRANCH  32  35
ATOM     34  C   LIG    1       26.679 -28.501   9.948  0.00  0.00    +0.015 C 
ATOM     35  C   LIG    1       27.294 -28.260  11.315  0.00  0.00    +0.117 C 
ENDBRANCH  32  35
ENDBRANCH  31  32
ENDBRANCH   1  31
TORSDOF 7
ENDMDL
MODEL 7
REMARK VINA RESULT:      -4.5      3.418      5.723
REMARK  Name = *****
REMARK                            x       y       z     vdW  Elec       q    Type
REMARK                         _______ _______ _______ _____ _____    ______ ____
ROOT
ATOM      1  C   LIG    1       25.590 -28.856  13.303  0.00  0.00    +0.189 C 
ATOM      2  C   LIG    1       25.370 -30.413  13.658  0.00  0.00    +0.022 C 
ATOM      3  C   LIG    1       25.157 -31.047  12.249  0.00  0.00    +0.006 C 
ATOM      4  C   LIG    1       23.674 -31.159  11.778  0.00  0.00    +0.037 C 
ATOM      5  C   LIG    1       22.798 -31.915  12.800  0.00  0.00    +0.153 C 
ATOM      6  C   LIG    1       22.828 -31.088  14.114  0.00  0.00    +0.154 C 
ATOM      7  F   LIG    1       23.476 -33.092  13.062  0.00  0.00    -0.238 F 
ATOM      8  C   LIG    1       21.326 -32.346  12.282  0.00  0.00    +0.047 C 
ATOM      9  C   LIG    1       21.222 -32.530  10.743  0.00  0.00    -0.020 C 
ATOM     10  C   LIG    1       20.007 -32.740  10.179  0.00  0.00    +0.054 C 
ATOM     11  C   LIG    1       19.104 -31.568  10.483  0.00  0.00    +0.179 C 
ATOM     12  C   LIG    1       19.193 -31.022  11.866  0.00  0.00    +0.047 C 
ATOM     13  O   LIG    1       18.268 -31.175   9.681  0.00  0.00    -0.288 OA
ATOM     14  C   LIG    1       22.189 -31.764   9.885  0.00  0.00    +0.194 C 
ATOM     15  F   LIG    1       21.836 -30.447   9.843  0.00  0.00    -0.241 F 
ATOM     16  C   LIG    1       20.967 -33.721  12.926  0.00  0.00    +0.023 C 
ATOM     17  C   LIG    1       20.189 -31.395  12.688  0.00  0.00    -0.009 C 
ATOM     18  C   LIG    1       23.604 -31.849  10.410  0.00  0.00    +0.048 C 
ATOM     19  C   LIG    1       25.983 -30.166  11.284  0.00  0.00    +0.012 C 
ATOM     20  C   LIG    1       26.657 -31.043  14.289  0.00  0.00    +0.016 C 
ATOM     21  C   LIG    1       24.238 -30.798  14.646  0.00  0.00    +0.046 C 
ATOM     22  C   LIG    1       26.570 -29.001  12.091  0.00  0.00    +0.039 C 
ATOM     23  C   LIG    1       26.866 -27.830  11.155  0.00  0.00    +0.012 C 
ENDROOT
BRANCH   6  24
ATOM     24  O   LIG    1       22.119 -31.767  15.161  0.00  0.00    -0.389 OA
ATOM     25  H   LIG    1       22.473 -32.676  15.211  0.00  0.00    +0.210 HD
ENDBRANCH   6  24
BRANCH   1  26
ATOM     26  C   LIG    1       26.098 -28.038  14.544  0.00  0.00    +0.236 C 
ATOM     27  O   LIG    1       25.368 -27.782  15.500  0.00  0.00    -0.281 OA
BRANCH  26  28
ATOM     28  S   LIG    1       27.792 -27.537  14.572  0.00  0.00    -0.051 S 
BRANCH  28  29
ATOM     29  C   LIG    1       27.576 -25.769  14.836  0.00  0.00    +0.290 C 
ATOM     30  F   LIG    1       27.696 -25.131  13.637  0.00  0.00    -0.237 F 
ENDBRANCH  28  29
ENDBRANCH  26  28
ENDBRANCH   1  26
BRANCH   1  31
ATOM     31  O   LIG    1       24.295 -28.346  12.864  0.00  0.00    -0.449 OA
BRANCH  31  32
ATOM     32  C   LIG    1       23.956 -27.068  13.206  0.00  0.00    +0.308 C 
ATOM     33  O   LIG    1       24.711 -26.118  13.190  0.00  0.00    -0.251 OA
BRANCH  32  35
ATOM     34  C   LIG    1       21.704 -27.957  12.823  0.00  0.00    +0.015 C 
ATOM     35  C   LIG    1       22.514 -26.967  13.640  0.00  0.00    +0.117 C 
ENDBRANCH  32  35
ENDBRANCH  31  32
ENDBRANCH   1  31
TORSDOF 7
ENDMDL
MODEL 8
REMARK VINA RESULT:      -3.8      3.073      5.305
REMARK  Name = *****
REMARK                            x       y       z     vdW  Elec       q    Type
REMARK                         _______ _______ _______ _____ _____    ______ ____
ROOT
ATOM      1  C   LIG    1       22.159 -31.332  12.687  0.00  0.00    +0.189 C 
ATOM      2  C   LIG    1       23.637 -31.916  12.960  0.00  0.00    +0.022 C 
ATOM      3  C   LIG    1       24.035 -31.203  14.287  0.00  0.00    +0.006 C 
ATOM      4  C   LIG    1       24.820 -29.865  14.124  0.00  0.00    +0.037 C 
ATOM      5  C   LIG    1       26.084 -30.039  13.256  0.00  0.00    +0.153 C 
ATOM      6  C   LIG    1       25.604 -30.493  11.851  0.00  0.00    +0.154 C 
ATOM      7  F   LIG    1       26.760 -31.113  13.805  0.00  0.00    -0.238 F 
ATOM      8  C   LIG    1       27.123 -28.796  13.269  0.00  0.00    +0.047 C 
ATOM      9  C   LIG    1       27.066 -27.932  14.559  0.00  0.00    -0.020 C 
ATOM     10  C   LIG    1       27.777 -26.780  14.620  0.00  0.00    +0.054 C 
ATOM     11  C   LIG    1       27.320 -25.850  13.520  0.00  0.00    +0.179 C 
ATOM     12  C   LIG    1       27.055 -26.487  12.200  0.00  0.00    +0.047 C 
ATOM     13  O   LIG    1       27.288 -24.637  13.675  0.00  0.00    -0.288 OA
ATOM     14  C   LIG    1       25.774 -27.914  15.326  0.00  0.00    +0.194 C 
ATOM     15  F   LIG    1       24.850 -27.157  14.669  0.00  0.00    -0.241 F 
ATOM     16  C   LIG    1       28.570 -29.370  13.173  0.00  0.00    +0.023 C 
ATOM     17  C   LIG    1       26.990 -27.826  12.084  0.00  0.00    -0.009 C 
ATOM     18  C   LIG    1       25.198 -29.301  15.500  0.00  0.00    +0.048 C 
ATOM     19  C   LIG    1       22.702 -30.979  15.038  0.00  0.00    +0.012 C 
ATOM     20  C   LIG    1       23.602 -33.459  13.224  0.00  0.00    +0.016 C 
ATOM     21  C   LIG    1       24.719 -31.747  11.861  0.00  0.00    +0.046 C 
ATOM     22  C   LIG    1       21.561 -31.452  14.129  0.00  0.00    +0.039 C 
ATOM     23  C   LIG    1       20.267 -30.742  14.521  0.00  0.00    +0.012 C 
ENDROOT
BRANCH   6  24
ATOM     24  O   LIG    1       26.721 -30.779  10.996  0.00  0.00    -0.389 OA
ATOM     25  H   LIG    1       27.305 -31.396  11.478  0.00  0.00    +0.210 HD
ENDBRANCH   6  24
BRANCH   1  26
ATOM     26  C   LIG    1       21.425 -32.109  11.536  0.00  0.00    +0.236 C 
ATOM     27  O   LIG    1       20.460 -32.839  11.754  0.00  0.00    -0.281 OA
BRANCH  26  28
ATOM     28  S   LIG    1       21.981 -31.859   9.878  0.00  0.00    -0.051 S 
BRANCH  28  29
ATOM     29  C   LIG    1       22.402 -33.555   9.445  0.00  0.00    +0.290 C 
ATOM     30  F   LIG    1       23.165 -33.541   8.315  0.00  0.00    -0.237 F 
ENDBRANCH  28  29
ENDBRANCH  26  28
ENDBRANCH   1  26
BRANCH   1  31
ATOM     31  O   LIG    1       22.332 -29.932  12.312  0.00  0.00    -0.449 OA
BRANCH  31  32
ATOM     32  C   LIG    1       21.232 -29.124  12.315  0.00  0.00    +0.308 C 
ATOM     33  O   LIG    1       20.150 -29.416  11.850  0.00  0.00    -0.251 OA
BRANCH  32  35
ATOM     34  C   LIG    1       20.198 -27.155  13.347  0.00  0.00    +0.015 C 
ATOM     35  C   LIG    1       21.521 -27.786  12.951  0.00  0.00    +0.117 C 
ENDBRANCH  32  35
ENDBRANCH  31  32
ENDBRANCH   1  31
TORSDOF 7
ENDMDL
MODEL 9
REMARK VINA RESULT:      -3.4      3.253      5.852
REMARK  Name = *****
REMARK                            x       y       z     vdW  Elec       q    Type
REMARK                         _______ _______ _______ _____ _____    ______ ____
ROOT
ATOM      1  C   LIG    1       26.015 -28.035  13.183  0.00  0.00    +0.189 C 
ATOM      2  C   LIG    1       24.721 -28.036  14.145  0.00  0.00    +0.022 C 
ATOM      3  C   LIG    1       24.527 -29.554  14.438  0.00  0.00    +0.006 C 
ATOM      4  C   LIG    1       23.555 -30.307  13.478  0.00  0.00    +0.037 C 
ATOM      5  C   LIG    1       22.168 -29.632  13.415  0.00  0.00    +0.153 C 
ATOM      6  C   LIG    1       22.391 -28.202  12.855  0.00  0.00    +0.154 C 
ATOM      7  F   LIG    1       21.775 -29.481  14.732  0.00  0.00    -0.238 F 
ATOM      8  C   LIG    1       21.002 -30.490  12.690  0.00  0.00    +0.047 C 
ATOM      9  C   LIG    1       21.220 -32.028  12.737  0.00  0.00    -0.020 C 
ATOM     10  C   LIG    1       20.392 -32.839  12.034  0.00  0.00    +0.054 C 
ATOM     11  C   LIG    1       20.474 -32.489  10.567  0.00  0.00    +0.179 C 
ATOM     12  C   LIG    1       20.531 -31.035  10.249  0.00  0.00    +0.047 C 
ATOM     13  O   LIG    1       20.377 -33.342   9.695  0.00  0.00    -0.288 OA
ATOM     14  C   LIG    1       22.632 -32.526  12.859  0.00  0.00    +0.194 C 
ATOM     15  F   LIG    1       23.284 -32.378  11.670  0.00  0.00    -0.241 F 
ATOM     16  C   LIG    1       19.657 -30.203  13.426  0.00  0.00    +0.023 C 
ATOM     17  C   LIG    1       20.747 -30.128  11.219  0.00  0.00    -0.009 C 
ATOM     18  C   LIG    1       23.410 -31.771  13.913  0.00  0.00    +0.048 C 
ATOM     19  C   LIG    1       25.949 -30.160  14.379  0.00  0.00    +0.012 C 
ATOM     20  C   LIG    1       25.017 -27.308  15.500  0.00  0.00    +0.016 C 
ATOM     21  C   LIG    1       23.416 -27.369  13.637  0.00  0.00    +0.046 C 
ATOM     22  C   LIG    1       26.920 -29.048  13.962  0.00  0.00    +0.039 C 
ATOM     23  C   LIG    1       28.162 -29.667  13.325  0.00  0.00    +0.012 C 
ENDROOT
BRANCH   6  24
ATOM     24  O   LIG    1       21.164 -27.457  12.852  0.00  0.00    -0.389 OA
ATOM     25  H   LIG    1       20.466 -28.046  13.197  0.00  0.00    +0.210 HD
ENDBRANCH   6  24
BRANCH   1  26
ATOM     26  C   LIG    1       26.581 -26.587  12.962  0.00  0.00    +0.236 C 
ATOM     27  O   LIG    1       26.243 -25.892  12.006  0.00  0.00    -0.281 OA
BRANCH  26  28
ATOM     28  S   LIG    1       27.688 -25.934  14.175  0.00  0.00    -0.051 S 
BRANCH  28  29
ATOM     29  C   LIG    1       26.807 -24.423  14.601  0.00  0.00    +0.290 C 
ATOM     30  F   LIG    1       25.541 -24.499  14.099  0.00  0.00    -0.237 F 
ENDBRANCH  28  29
ENDBRANCH  26  28
ENDBRANCH   1  26
BRANCH   1  31
ATOM     31  O   LIG    1       25.582 -28.601  11.909  0.00  0.00    -0.449 OA
BRANCH  31  32
ATOM     32  C   LIG    1       26.537 -29.079  11.058  0.00  0.00    +0.308 C 
ATOM     33  O   LIG    1       27.475 -28.438  10.632  0.00  0.00    -0.251 OA
BRANCH  32  35
ATOM     34  C   LIG    1       25.173 -30.535   9.633  0.00  0.00    +0.015 C 
ATOM     35  C   LIG    1       26.278 -30.515  10.674  0.00  0.00    +0.117 C 
ENDBRANCH  32  35
ENDBRANCH  31  32
ENDBRANCH   1  31
TORSDOF 7
ENDMDL
