MODEL 1
REMARK VINA RESULT:      -5.1      0.000      0.000
REMARK  Name = *****
REMARK                            x       y       z     vdW  Elec       q    Type
REMARK                         _______ _______ _______ _____ _____    ______ ____
ROOT
ATOM      1  C   LIG    1       30.930 -19.002   8.389  0.00  0.00    +0.253 C 
ENDROOT
BRANCH   1   3
ATOM      2  O   LIG    1       32.205 -20.877   9.291  0.00  0.00    -0.248 OA
ATOM      3  C   LIG    1       31.141 -20.423   8.892  0.00  0.00    +0.336 C 
BRANCH   3   4
ATOM      4  O   LIG    1       29.994 -21.145   8.854  0.00  0.00    -0.479 OA
ATOM      5  H   LIG    1       29.948 -21.656   9.703  0.00  0.00    +0.295 HD
ENDBRANCH   3   4
ENDBRANCH   1   3
BRANCH   1   6
ATOM      6  O   LIG    1       32.024 -18.699   7.484  0.00  0.00    -0.378 OA
ATOM      7  H   LIG    1       32.275 -19.578   7.119  0.00  0.00    +0.211 HD
ENDBRANCH   1   6
BRANCH   1   8
ATOM      8  C   LIG    1       30.953 -17.975   9.520  0.00  0.00    +0.179 C 
BRANCH   8   9
ATOM      9  O   LIG    1       30.591 -18.678  10.731  0.00  0.00    -0.386 OA
ATOM     10  H   LIG    1       30.364 -19.590  10.448  0.00  0.00    +0.210 HD
ENDBRANCH   8   9
BRANCH   8  11
ATOM     11  C   LIG    1       32.304 -17.287   9.731  0.00  0.00    +0.190 C 
BRANCH  11  12
ATOM     12  O   LIG    1       32.451 -16.283   8.721  0.00  0.00    -0.392 OA
ATOM     13  H   LIG    1       33.404 -16.085   8.646  0.00  0.00    +0.209 HD
ENDBRANCH  11  12
ENDBRANCH   8  11
ENDBRANCH   1   8
TORSDOF 7
ENDMDL
MODEL 2
REMARK VINA RESULT:      -5.0      2.071      2.686
REMARK  Name = *****
REMARK                            x       y       z     vdW  Elec       q    Type
REMARK                         _______ _______ _______ _____ _____    ______ ____
ROOT
ATOM      1  C   LIG    1       30.171 -20.856   8.538  0.00  0.00    +0.253 C 
ENDROOT
BRANCH   1   3
ATOM      2  O   LIG    1       30.852 -22.373  10.324  0.00  0.00    -0.248 OA
ATOM      3  C   LIG    1       31.043 -21.909   9.208  0.00  0.00    +0.336 C 
BRANCH   3   4
ATOM      4  O   LIG    1       32.074 -22.288   8.413  0.00  0.00    -0.479 OA
ATOM      5  H   LIG    1       31.857 -21.982   7.496  0.00  0.00    +0.295 HD
ENDBRANCH   3   4
ENDBRANCH   1   3
BRANCH   1   6
ATOM      6  O   LIG    1       29.860 -21.339   7.205  0.00  0.00    -0.378 OA
ATOM      7  H   LIG    1       29.332 -22.153   7.369  0.00  0.00    +0.211 HD
ENDBRANCH   1   6
BRANCH   1   8
ATOM      8  C   LIG    1       30.885 -19.512   8.401  0.00  0.00    +0.179 C 
BRANCH   8   9
ATOM      9  O   LIG    1       32.069 -19.580   9.229  0.00  0.00    -0.386 OA
ATOM     10  H   LIG    1       31.754 -19.447  10.149  0.00  0.00    +0.210 HD
ENDBRANCH   8   9
BRANCH   8  11
ATOM     11  C   LIG    1       31.300 -19.152   6.972  0.00  0.00    +0.190 C 
BRANCH  11  12
ATOM     12  O   LIG    1       30.233 -18.404   6.377  0.00  0.00    -0.392 OA
ATOM     13  H   LIG    1       30.071 -17.629   6.946  0.00  0.00    +0.209 HD
ENDBRANCH  11  12
ENDBRANCH   8  11
ENDBRANCH   1   8
TORSDOF 7
ENDMDL
MODEL 3
REMARK VINA RESULT:      -5.0      1.480      3.333
REMARK  Name = *****
REMARK                            x       y       z     vdW  Elec       q    Type
REMARK                         _______ _______ _______ _____ _____    ______ ____
ROOT
ATOM      1  C   LIG    1       30.185 -17.608   9.301  0.00  0.00    +0.253 C 
ENDROOT
BRANCH   1   3
ATOM      2  O   LIG    1       30.317 -16.287  11.349  0.00  0.00    -0.248 OA
ATOM      3  C   LIG    1       30.410 -17.371  10.788  0.00  0.00    +0.336 C 
BRANCH   3   4
ATOM      4  O   LIG    1       30.727 -18.518  11.438  0.00  0.00    -0.479 OA
ATOM      5  H   LIG    1       30.317 -19.261  10.926  0.00  0.00    +0.295 HD
ENDBRANCH   3   4
ENDBRANCH   1   3
BRANCH   1   6
ATOM      6  O   LIG    1       29.359 -18.796   9.175  0.00  0.00    -0.378 OA
ATOM      7  H   LIG    1       28.834 -18.804  10.007  0.00  0.00    +0.211 HD
ENDBRANCH   1   6
BRANCH   1   8
ATOM      8  C   LIG    1       31.491 -17.857   8.549  0.00  0.00    +0.179 C 
BRANCH   8   9
ATOM      9  O   LIG    1       32.567 -17.532   9.459  0.00  0.00    -0.386 OA
ATOM     10  H   LIG    1       32.231 -17.755  10.354  0.00  0.00    +0.210 HD
ENDBRANCH   8   9
BRANCH   8  11
ATOM     11  C   LIG    1       31.679 -19.293   8.052  0.00  0.00    +0.190 C 
BRANCH  11  12
ATOM     12  O   LIG    1       32.049 -20.103   9.173  0.00  0.00    -0.392 OA
ATOM     13  H   LIG    1       32.204 -19.503   9.926  0.00  0.00    +0.209 HD
ENDBRANCH  11  12
ENDBRANCH   8  11
ENDBRANCH   1   8
TORSDOF 7
ENDMDL
MODEL 4
REMARK VINA RESULT:      -5.0      0.885      3.581
REMARK  Name = *****
REMARK                            x       y       z     vdW  Elec       q    Type
REMARK                         _______ _______ _______ _____ _____    ______ ____
ROOT
ATOM      1  C   LIG    1       30.688 -17.743   9.000  0.00  0.00    +0.253 C 
ENDROOT
BRANCH   1   3
ATOM      2  O   LIG    1       32.664 -17.699  10.432  0.00  0.00    -0.248 OA
ATOM      3  C   LIG    1       32.032 -17.227   9.496  0.00  0.00    +0.336 C 
BRANCH   3   4
ATOM      4  O   LIG    1       32.463 -16.167   8.769  0.00  0.00    -0.479 OA
ATOM      5  H   LIG    1       32.778 -16.524   7.900  0.00  0.00    +0.295 HD
ENDBRANCH   3   4
ENDBRANCH   1   3
BRANCH   1   6
ATOM      6  O   LIG    1       29.971 -18.256  10.154  0.00  0.00    -0.378 OA
ATOM      7  H   LIG    1       30.148 -17.587  10.855  0.00  0.00    +0.211 HD
ENDBRANCH   1   6
BRANCH   1   8
ATOM      8  C   LIG    1       30.839 -18.881   7.992  0.00  0.00    +0.179 C 
BRANCH   8   9
ATOM      9  O   LIG    1       32.126 -18.707   7.354  0.00  0.00    -0.386 OA
ATOM     10  H   LIG    1       32.788 -19.017   8.009  0.00  0.00    +0.210 HD
ENDBRANCH   8   9
BRANCH   8  11
ATOM     11  C   LIG    1       30.773 -20.285   8.599  0.00  0.00    +0.190 C 
BRANCH  11  12
ATOM     12  O   LIG    1       31.986 -20.510   9.326  0.00  0.00    -0.392 OA
ATOM     13  H   LIG    1       32.111 -19.749   9.923  0.00  0.00    +0.209 HD
ENDBRANCH  11  12
ENDBRANCH   8  11
ENDBRANCH   1   8
TORSDOF 7
ENDMDL
MODEL 5
REMARK VINA RESULT:      -5.0      1.581      3.782
REMARK  Name = *****
REMARK                            x       y       z     vdW  Elec       q    Type
REMARK                         _______ _______ _______ _____ _____    ______ ____
ROOT
ATOM      1  C   LIG    1       30.343 -18.244   8.122  0.00  0.00    +0.253 C 
ENDROOT
BRANCH   1   3
ATOM      2  O   LIG    1       32.055 -18.806   9.768  0.00  0.00    -0.248 OA
ATOM      3  C   LIG    1       31.666 -18.086   8.858  0.00  0.00    +0.336 C 
BRANCH   3   4
ATOM      4  O   LIG    1       32.385 -17.040   8.382  0.00  0.00    -0.479 OA
ATOM      5  H   LIG    1       33.253 -17.404   8.072  0.00  0.00    +0.295 HD
ENDBRANCH   3   4
ENDBRANCH   1   3
BRANCH   1   6
ATOM      6  O   LIG    1       29.414 -18.880   9.039  0.00  0.00    -0.378 OA
ATOM      7  H   LIG    1       29.595 -19.841   8.926  0.00  0.00    +0.211 HD
ENDBRANCH   1   6
BRANCH   1   8
ATOM      8  C   LIG    1       30.469 -19.131   6.884  0.00  0.00    +0.179 C 
BRANCH   8   9
ATOM      9  O   LIG    1       31.754 -19.789   6.970  0.00  0.00    -0.386 OA
ATOM     10  H   LIG    1       31.654 -20.628   6.469  0.00  0.00    +0.210 HD
ENDBRANCH   8   9
BRANCH   8  11
ATOM     11  C   LIG    1       29.376 -20.194   6.746  0.00  0.00    +0.190 C 
BRANCH  11  12
ATOM     12  O   LIG    1       29.780 -21.343   7.499  0.00  0.00    -0.392 OA
ATOM     13  H   LIG    1       29.681 -22.120   6.918  0.00  0.00    +0.209 HD
ENDBRANCH  11  12
ENDBRANCH   8  11
ENDBRANCH   1   8
TORSDOF 7
ENDMDL
MODEL 6
REMARK VINA RESULT:      -4.9      1.275      1.758
REMARK  Name = *****
REMARK                            x       y       z     vdW  Elec       q    Type
REMARK                         _______ _______ _______ _____ _____    ______ ____
ROOT
ATOM      1  C   LIG    1       30.885 -17.836   8.838  0.00  0.00    +0.253 C 
ENDROOT
BRANCH   1   3
ATOM      2  O   LIG    1       30.028 -20.110   8.615  0.00  0.00    -0.248 OA
ATOM      3  C   LIG    1       30.956 -19.356   8.877  0.00  0.00    +0.336 C 
BRANCH   3   4
ATOM      4  O   LIG    1       32.187 -19.793   9.237  0.00  0.00    -0.479 OA
ATOM      5  H   LIG    1       32.052 -20.518   9.900  0.00  0.00    +0.295 HD
ENDBRANCH   3   4
ENDBRANCH   1   3
BRANCH   1   6
ATOM      6  O   LIG    1       32.146 -17.360   8.300  0.00  0.00    -0.378 OA
ATOM      7  H   LIG    1       31.908 -17.026   7.405  0.00  0.00    +0.211 HD
ENDBRANCH   1   6
BRANCH   1   8
ATOM      8  C   LIG    1       30.701 -17.227  10.226  0.00  0.00    +0.179 C 
BRANCH   8   9
ATOM      9  O   LIG    1       30.430 -18.322  11.132  0.00  0.00    -0.386 OA
ATOM     10  H   LIG    1       31.085 -18.231  11.857  0.00  0.00    +0.210 HD
ENDBRANCH   8   9
BRANCH   8  11
ATOM     11  C   LIG    1       31.909 -16.442  10.745  0.00  0.00    +0.190 C 
BRANCH  11  12
ATOM     12  O   LIG    1       32.961 -17.377  11.011  0.00  0.00    -0.392 OA
ATOM     13  H   LIG    1       33.585 -16.944  11.624  0.00  0.00    +0.209 HD
ENDBRANCH  11  12
ENDBRANCH   8  11
ENDBRANCH   1   8
TORSDOF 7
ENDMDL
MODEL 7
REMARK VINA RESULT:      -4.9      1.036      1.479
REMARK  Name = *****
REMARK                            x       y       z     vdW  Elec       q    Type
REMARK                         _______ _______ _______ _____ _____    ______ ____
ROOT
ATOM      1  C   LIG    1       30.772 -19.594   7.866  0.00  0.00    +0.253 C 
ENDROOT
BRANCH   1   3
ATOM      2  O   LIG    1       30.072 -21.632   9.012  0.00  0.00    -0.248 OA
ATOM      3  C   LIG    1       30.941 -20.803   8.775  0.00  0.00    +0.336 C 
BRANCH   3   4
ATOM      4  O   LIG    1       32.189 -20.866   9.303  0.00  0.00    -0.479 OA
ATOM      5  H   LIG    1       32.816 -20.581   8.590  0.00  0.00    +0.295 HD
ENDBRANCH   3   4
ENDBRANCH   1   3
BRANCH   1   6
ATOM      6  O   LIG    1       31.981 -19.482   7.070  0.00  0.00    -0.378 OA
ATOM      7  H   LIG    1       31.945 -20.270   6.479  0.00  0.00    +0.211 HD
ENDBRANCH   1   6
BRANCH   1   8
ATOM      8  C   LIG    1       30.601 -18.296   8.652  0.00  0.00    +0.179 C 
BRANCH   8   9
ATOM      9  O   LIG    1       30.011 -18.651   9.925  0.00  0.00    -0.386 OA
ATOM     10  H   LIG    1       29.344 -17.955  10.108  0.00  0.00    +0.210 HD
ENDBRANCH   8   9
BRANCH   8  11
ATOM     11  C   LIG    1       31.900 -17.526   8.906  0.00  0.00    +0.190 C 
BRANCH  11  12
ATOM     12  O   LIG    1       32.428 -17.955  10.166  0.00  0.00    -0.392 OA
ATOM     13  H   LIG    1       33.205 -17.397  10.359  0.00  0.00    +0.209 HD
ENDBRANCH  11  12
ENDBRANCH   8  11
ENDBRANCH   1   8
TORSDOF 7
ENDMDL
MODEL 8
REMARK VINA RESULT:      -4.9      1.400      3.272
REMARK  Name = *****
REMARK                            x       y       z     vdW  Elec       q    Type
REMARK                         _______ _______ _______ _____ _____    ______ ____
ROOT
ATOM      1  C   LIG    1       32.084 -17.466   9.573  0.00  0.00    +0.253 C 
ENDROOT
BRANCH   1   3
ATOM      2  O   LIG    1       30.254 -16.294  10.684  0.00  0.00    -0.248 OA
ATOM      3  C   LIG    1       30.941 -17.299  10.565  0.00  0.00    +0.336 C 
BRANCH   3   4
ATOM      4  O   LIG    1       30.760 -18.414  11.316  0.00  0.00    -0.479 OA
ATOM      5  H   LIG    1       29.952 -18.259  11.869  0.00  0.00    +0.295 HD
ENDBRANCH   3   4
ENDBRANCH   1   3
BRANCH   1   6
ATOM      6  O   LIG    1       32.257 -16.192   8.898  0.00  0.00    -0.378 OA
ATOM      7  H   LIG    1       31.615 -16.233   8.153  0.00  0.00    +0.211 HD
ENDBRANCH   1   6
BRANCH   1   8
ATOM      8  C   LIG    1       31.786 -18.526   8.515  0.00  0.00    +0.179 C 
BRANCH   8   9
ATOM      9  O   LIG    1       31.999 -19.813   9.140  0.00  0.00    -0.386 OA
ATOM     10  H   LIG    1       31.105 -20.140   9.380  0.00  0.00    +0.210 HD
ENDBRANCH   8   9
BRANCH   8  11
ATOM     11  C   LIG    1       30.365 -18.481   7.947  0.00  0.00    +0.190 C 
BRANCH  11  12
ATOM     12  O   LIG    1       30.462 -18.407   6.520  0.00  0.00    -0.392 OA
ATOM     13  H   LIG    1       31.045 -17.655   6.307  0.00  0.00    +0.209 HD
ENDBRANCH  11  12
ENDBRANCH   8  11
ENDBRANCH   1   8
TORSDOF 7
ENDMDL
MODEL 9
REMARK VINA RESULT:      -4.9      2.386      3.386
REMARK  Name = *****
REMARK                            x       y       z     vdW  Elec       q    Type
REMARK                         _______ _______ _______ _____ _____    ______ ____
ROOT
ATOM      1  C   LIG    1       31.293 -20.416   8.738  0.00  0.00    +0.253 C 
ENDROOT
BRANCH   1   3
ATOM      2  O   LIG    1       30.690 -22.310  10.154  0.00  0.00    -0.248 OA
ATOM      3  C   LIG    1       31.346 -21.857   9.225  0.00  0.00    +0.336 C 
BRANCH   3   4
ATOM      4  O   LIG    1       32.217 -22.602   8.500  0.00  0.00    -0.479 OA
ATOM      5  H   LIG    1       33.071 -22.100   8.473  0.00  0.00    +0.295 HD
ENDBRANCH   3   4
ENDBRANCH   1   3
BRANCH   1   6
ATOM      6  O   LIG    1       30.860 -19.599   9.857  0.00  0.00    -0.378 OA
ATOM      7  H   LIG    1       29.898 -19.794   9.931  0.00  0.00    +0.211 HD
ENDBRANCH   1   6
BRANCH   1   8
ATOM      8  C   LIG    1       30.294 -20.225   7.598  0.00  0.00    +0.179 C 
BRANCH   8   9
ATOM      9  O   LIG    1       29.704 -21.520   7.336  0.00  0.00    -0.386 OA
ATOM     10  H   LIG    1       29.720 -21.995   8.195  0.00  0.00    +0.210 HD
ENDBRANCH   8   9
BRANCH   8  11
ATOM     11  C   LIG    1       29.176 -19.221   7.889  0.00  0.00    +0.190 C 
BRANCH  11  12
ATOM     12  O   LIG    1       28.109 -19.924   8.536  0.00  0.00    -0.392 OA
ATOM     13  H   LIG    1       27.408 -20.062   7.871  0.00  0.00    +0.209 HD
ENDBRANCH  11  12
ENDBRANCH   8  11
ENDBRANCH   1   8
TORSDOF 7
ENDMDL
