MODEL 1
REMARK VINA RESULT:      -5.2      0.000      0.000
REMARK  Name = *****
REMARK                            x       y       z     vdW  Elec       q    Type
REMARK                         _______ _______ _______ _____ _____    ______ ____
ROOT
ATOM      1  N   LIG    1       23.070 -31.143   9.250  0.00  0.00    -0.290 NA
ATOM      2  C   LIG    1       22.010 -32.027   9.812  0.00  0.00    +0.100 C 
ATOM      3  C   LIG    1       20.893 -31.239  10.541  0.00  0.00    +0.100 C 
ATOM      4  N   LIG    1       20.260 -32.019  11.650  0.00  0.00    -0.290 NA
ATOM      5  C   LIG    1       20.109 -31.108  12.832  0.00  0.00    +0.100 C 
ATOM      6  C   LIG    1       21.432 -30.917  13.635  0.00  0.00    +0.100 C 
ATOM      7  N   LIG    1       22.181 -29.653  13.402  0.00  0.00    -0.290 NA
ATOM      8  C   LIG    1       23.582 -29.834  13.836  0.00  0.00    +0.100 C 
ATOM      9  C   LIG    1       24.632 -28.925  13.145  0.00  0.00    +0.100 C 
ATOM     10  N   LIG    1       25.253 -29.504  11.927  0.00  0.00    -0.290 NA
ATOM     11  C   LIG    1       24.243 -29.569  10.822  0.00  0.00    +0.100 C 
ATOM     12  C   LIG    1       24.167 -31.002  10.251  0.00  0.00    +0.100 C 
ENDROOT
BRANCH   1  13
ATOM     13  C   LIG    1       23.533 -31.714   7.958  0.00  0.00    +0.205 C 
BRANCH  13  15
ATOM     14  O   LIG    1       25.124 -30.038   7.197  0.00  0.00    -0.250 OA
ATOM     15  C   LIG    1       24.100 -30.687   6.982  0.00  0.00    +0.319 C 
BRANCH  15  16
ATOM     16  O   LIG    1       23.401 -30.535   5.836  0.00  0.00    -0.480 OA
ATOM     17  H   LIG    1       23.308 -29.604   5.551  0.00  0.00    +0.295 HD
ENDBRANCH  15  16
ENDBRANCH  13  15
ENDBRANCH   1  13
BRANCH   4  18
ATOM     18  C   LIG    1       18.890 -32.497  11.277  0.00  0.00    +0.205 C 
BRANCH  18  19
ATOM     19  C   LIG    1       18.018 -31.397  10.676  0.00  0.00    +0.319 C 
ATOM     20  O   LIG    1       18.084 -31.023   9.518  0.00  0.00    -0.250 OA
BRANCH  19  21
ATOM     21  O   LIG    1       17.204 -30.818  11.592  0.00  0.00    -0.480 OA
ATOM     22  H   LIG    1       17.715 -30.123  12.061  0.00  0.00    +0.295 HD
ENDBRANCH  19  21
ENDBRANCH  18  19
ENDBRANCH   4  18
BRANCH   7  23
ATOM     23  C   LIG    1       21.520 -28.488  14.054  0.00  0.00    +0.205 C 
BRANCH  23  24
ATOM     24  C   LIG    1       21.365 -27.264  13.151  0.00  0.00    +0.319 C 
ATOM     25  O   LIG    1       22.190 -26.359  13.055  0.00  0.00    -0.250 OA
BRANCH  24  26
ATOM     26  O   LIG    1       20.193 -27.224  12.466  0.00  0.00    -0.480 OA
ATOM     27  H   LIG    1       20.197 -27.687  11.608  0.00  0.00    +0.295 HD
ENDBRANCH  24  26
ENDBRANCH  23  24
ENDBRANCH   7  23
BRANCH  10  28
ATOM     28  C   LIG    1       26.382 -28.625  11.482  0.00  0.00    +0.205 C 
BRANCH  28  29
ATOM     29  C   LIG    1       27.328 -29.331  10.497  0.00  0.00    +0.319 C 
ATOM     30  O   LIG    1       28.135 -30.171  10.815  0.00  0.00    -0.250 OA
BRANCH  29  31
ATOM     31  O   LIG    1       27.177 -28.917   9.208  0.00  0.00    -0.480 OA
ATOM     32  H   LIG    1       26.931 -27.969   9.198  0.00  0.00    +0.295 HD
ENDBRANCH  29  31
ENDBRANCH  28  29
ENDBRANCH  10  28
TORSDOF 12
ENDMDL
MODEL 2
REMARK VINA RESULT:      -4.9      1.608      7.446
REMARK  Name = *****
REMARK                            x       y       z     vdW  Elec       q    Type
REMARK                         _______ _______ _______ _____ _____    ______ ____
ROOT
ATOM      1  N   LIG    1       23.078 -29.400  12.239  0.00  0.00    -0.290 NA
ATOM      2  C   LIG    1       24.542 -29.603  12.424  0.00  0.00    +0.100 C 
ATOM      3  C   LIG    1       25.335 -29.519  11.096  0.00  0.00    +0.100 C 
ATOM      4  N   LIG    1       26.571 -30.361  11.102  0.00  0.00    -0.290 NA
ATOM      5  C   LIG    1       26.651 -31.080   9.788  0.00  0.00    +0.100 C 
ATOM      6  C   LIG    1       25.723 -32.330   9.713  0.00  0.00    +0.100 C 
ATOM      7  N   LIG    1       24.444 -32.173   8.969  0.00  0.00    -0.290 NA
ATOM      8  C   LIG    1       23.506 -33.235   9.389  0.00  0.00    +0.100 C 
ATOM      9  C   LIG    1       21.997 -32.911   9.233  0.00  0.00    +0.100 C 
ATOM     10  N   LIG    1       21.364 -32.298  10.428  0.00  0.00    -0.290 NA
ATOM     11  C   LIG    1       21.879 -30.904  10.619  0.00  0.00    +0.100 C 
ATOM     12  C   LIG    1       22.422 -30.728  12.054  0.00  0.00    +0.100 C 
ENDROOT
BRANCH   1  13
ATOM     13  C   LIG    1       22.548 -28.650  13.408  0.00  0.00    +0.205 C 
BRANCH  13  15
ATOM     14  O   LIG    1       22.197 -26.256  13.151  0.00  0.00    -0.250 OA
ATOM     15  C   LIG    1       21.752 -27.400  13.046  0.00  0.00    +0.319 C 
BRANCH  15  16
ATOM     16  O   LIG    1       20.503 -27.626  12.584  0.00  0.00    -0.480 OA
ATOM     17  H   LIG    1       20.466 -28.263  11.843  0.00  0.00    +0.295 HD
ENDBRANCH  15  16
ENDBRANCH  13  15
ENDBRANCH   1  13
BRANCH   4  18
ATOM     18  C   LIG    1       27.808 -29.525  11.228  0.00  0.00    +0.205 C 
BRANCH  18  19
ATOM     19  C   LIG    1       28.216 -29.278  12.678  0.00  0.00    +0.319 C 
ATOM     20  O   LIG    1       28.612 -30.144  13.439  0.00  0.00    -0.250 OA
BRANCH  19  21
ATOM     21  O   LIG    1       28.017 -27.993  13.064  0.00  0.00    -0.480 OA
ATOM     22  H   LIG    1       28.885 -27.534  13.058  0.00  0.00    +0.295 HD
ENDBRANCH  19  21
ENDBRANCH  18  19
ENDBRANCH   4  18
BRANCH   7  23
ATOM     23  C   LIG    1       24.660 -32.143   7.495  0.00  0.00    +0.205 C 
BRANCH  23  24
ATOM     24  C   LIG    1       23.976 -30.977   6.781  0.00  0.00    +0.319 C 
ATOM     25  O   LIG    1       23.936 -29.825   7.207  0.00  0.00    -0.250 OA
BRANCH  24  26
ATOM     26  O   LIG    1       23.358 -31.320   5.621  0.00  0.00    -0.480 OA
ATOM     27  H   LIG    1       23.921 -31.287   4.825  0.00  0.00    +0.295 HD
ENDBRANCH  24  26
ENDBRANCH  23  24
ENDBRANCH   7  23
BRANCH  10  28
ATOM     28  C   LIG    1       19.882 -32.229  10.220  0.00  0.00    +0.205 C 
BRANCH  28  29
ATOM     29  C   LIG    1       19.113 -31.971  11.528  0.00  0.00    +0.319 C 
ATOM     30  O   LIG    1       19.135 -32.709  12.484  0.00  0.00    -0.250 OA
BRANCH  29  31
ATOM     31  O   LIG    1       18.388 -30.818  11.512  0.00  0.00    -0.480 OA
ATOM     32  H   LIG    1       17.433 -31.035  11.477  0.00  0.00    +0.295 HD
ENDBRANCH  29  31
ENDBRANCH  28  29
ENDBRANCH  10  28
TORSDOF 12
ENDMDL
MODEL 3
REMARK VINA RESULT:      -4.8      4.394      7.157
REMARK  Name = *****
REMARK                            x       y       z     vdW  Elec       q    Type
REMARK                         _______ _______ _______ _____ _____    ______ ____
ROOT
ATOM      1  N   LIG    1       24.969 -28.706   6.329  0.00  0.00    -0.290 NA
ATOM      2  C   LIG    1       25.481 -29.590   5.243  0.00  0.00    +0.100 C 
ATOM      3  C   LIG    1       24.904 -31.026   5.314  0.00  0.00    +0.100 C 
ATOM      4  N   LIG    1       25.841 -32.056   4.768  0.00  0.00    -0.290 NA
ATOM      5  C   LIG    1       25.842 -33.228   5.704  0.00  0.00    +0.100 C 
ATOM      6  C   LIG    1       26.724 -33.004   6.970  0.00  0.00    +0.100 C 
ATOM      7  N   LIG    1       26.014 -32.649   8.228  0.00  0.00    -0.290 NA
ATOM      8  C   LIG    1       26.971 -32.019   9.162  0.00  0.00    +0.100 C 
ATOM      9  C   LIG    1       26.360 -31.054  10.212  0.00  0.00    +0.100 C 
ATOM     10  N   LIG    1       26.300 -29.631   9.791  0.00  0.00    -0.290 NA
ATOM     11  C   LIG    1       25.280 -29.464   8.706  0.00  0.00    +0.100 C 
ATOM     12  C   LIG    1       25.910 -28.759   7.485  0.00  0.00    +0.100 C 
ENDROOT
BRANCH   1  13
ATOM     13  C   LIG    1       24.795 -27.333   5.785  0.00  0.00    +0.205 C 
BRANCH  13  15
ATOM     14  O   LIG    1       25.947 -25.420   6.750  0.00  0.00    -0.250 OA
ATOM     15  C   LIG    1       25.987 -26.409   6.017  0.00  0.00    +0.319 C 
BRANCH  15  16
ATOM     16  O   LIG    1       27.117 -26.751   5.363  0.00  0.00    -0.480 OA
ATOM     17  H   LIG    1       27.138 -27.684   5.071  0.00  0.00    +0.295 HD
ENDBRANCH  15  16
ENDBRANCH  13  15
ENDBRANCH   1  13
BRANCH   4  18
ATOM     18  C   LIG    1       25.393 -32.556   3.428  0.00  0.00    +0.205 C 
BRANCH  18  19
ATOM     19  C   LIG    1       26.555 -32.893   2.498  0.00  0.00    +0.319 C 
ATOM     20  O   LIG    1       26.554 -32.693   1.295  0.00  0.00    -0.250 OA
BRANCH  19  21
ATOM     21  O   LIG    1       27.573 -33.517   3.140  0.00  0.00    -0.480 OA
ATOM     22  H   LIG    1       28.401 -33.025   2.951  0.00  0.00    +0.295 HD
ENDBRANCH  19  21
ENDBRANCH  18  19
ENDBRANCH   4  18
BRANCH   7  23
ATOM     23  C   LIG    1       25.316 -33.825   8.821  0.00  0.00    +0.205 C 
BRANCH  23  24
ATOM     24  C   LIG    1       23.824 -33.610   9.075  0.00  0.00    +0.319 C 
ATOM     25  O   LIG    1       23.321 -33.448  10.184  0.00  0.00    -0.250 OA
BRANCH  24  26
ATOM     26  O   LIG    1       23.058 -33.650   7.953  0.00  0.00    -0.480 OA
ATOM     27  H   LIG    1       22.732 -32.786   7.641  0.00  0.00    +0.295 HD
ENDBRANCH  24  26
ENDBRANCH  23  24
ENDBRANCH   7  23
BRANCH  10  28
ATOM     28  C   LIG    1       25.889 -28.788  10.959  0.00  0.00    +0.205 C 
BRANCH  28  29
ATOM     29  C   LIG    1       27.065 -28.000  11.561  0.00  0.00    +0.319 C 
ATOM     30  O   LIG    1       26.947 -26.959  12.162  0.00  0.00    -0.250 OA
BRANCH  29  31
ATOM     31  O   LIG    1       28.276 -28.587  11.351  0.00  0.00    -0.480 OA
ATOM     32  H   LIG    1       28.566 -29.037  12.171  0.00  0.00    +0.295 HD
ENDBRANCH  29  31
ENDBRANCH  28  29
ENDBRANCH  10  28
TORSDOF 12
ENDMDL
MODEL 4
REMARK VINA RESULT:      -4.8      2.487      6.962
REMARK  Name = *****
REMARK                            x       y       z     vdW  Elec       q    Type
REMARK                         _______ _______ _______ _____ _____    ______ ____
ROOT
ATOM      1  N   LIG    1       21.457 -30.039  12.111  0.00  0.00    -0.290 NA
ATOM      2  C   LIG    1       22.707 -30.022  11.300  0.00  0.00    +0.100 C 
ATOM      3  C   LIG    1       23.986 -30.175  12.160  0.00  0.00    +0.100 C 
ATOM      4  N   LIG    1       25.175 -29.492  11.562  0.00  0.00    -0.290 NA
ATOM      5  C   LIG    1       25.892 -28.760  12.658  0.00  0.00    +0.100 C 
ATOM      6  C   LIG    1       25.222 -27.404  13.033  0.00  0.00    +0.100 C 
ATOM      7  N   LIG    1       24.386 -27.386  14.264  0.00  0.00    -0.290 NA
ATOM      8  C   LIG    1       23.473 -26.226  14.212  0.00  0.00    +0.100 C 
ATOM      9  C   LIG    1       22.158 -26.358  15.025  0.00  0.00    +0.100 C 
ATOM     10  N   LIG    1       21.009 -26.913  14.267  0.00  0.00    -0.290 NA
ATOM     11  C   LIG    1       21.244 -28.364  13.975  0.00  0.00    +0.100 C 
ATOM     12  C   LIG    1       21.087 -28.637  12.463  0.00  0.00    +0.100 C 
ENDROOT
BRANCH   1  13
ATOM     13  C   LIG    1       20.397 -30.742  11.342  0.00  0.00    +0.205 C 
BRANCH  13  15
ATOM     14  O   LIG    1       19.305 -32.396  12.753  0.00  0.00    -0.250 OA
ATOM     15  C   LIG    1       19.262 -31.298  12.197  0.00  0.00    +0.319 C 
BRANCH  15  16
ATOM     16  O   LIG    1       18.185 -30.493  12.318  0.00  0.00    -0.480 OA
ATOM     17  H   LIG    1       17.888 -30.100  11.473  0.00  0.00    +0.295 HD
ENDBRANCH  15  16
ENDBRANCH  13  15
ENDBRANCH   1  13
BRANCH   4  18
ATOM     18  C   LIG    1       26.141 -30.477  10.977  0.00  0.00    +0.205 C 
BRANCH  18  19
ATOM     19  C   LIG    1       27.419 -29.823  10.460  0.00  0.00    +0.319 C 
ATOM     20  O   LIG    1       28.496 -29.873  11.029  0.00  0.00    -0.250 OA
BRANCH  19  21
ATOM     21  O   LIG    1       27.217 -29.107   9.327  0.00  0.00    -0.480 OA
ATOM     22  H   LIG    1       27.233 -29.726   8.565  0.00  0.00    +0.295 HD
ENDBRANCH  19  21
ENDBRANCH  18  19
ENDBRANCH   4  18
BRANCH   7  23
ATOM     23  C   LIG    1       25.219 -27.412  15.500  0.00  0.00    +0.205 C 
BRANCH  23  24
ATOM     24  C   LIG    1       26.414 -26.459  15.475  0.00  0.00    +0.319 C 
ATOM     25  O   LIG    1       26.329 -25.233  15.500  0.00  0.00    -0.250 OA
BRANCH  24  26
ATOM     26  O   LIG    1       27.618 -27.080  15.380  0.00  0.00    -0.480 OA
ATOM     27  H   LIG    1       27.697 -27.912  15.883  0.00  0.00    +0.295 HD
ENDBRANCH  24  26
ENDBRANCH  23  24
ENDBRANCH   7  23
BRANCH  10  28
ATOM     28  C   LIG    1       19.767 -26.795  15.096  0.00  0.00    +0.205 C 
BRANCH  28  29
ATOM     29  C   LIG    1       18.490 -26.717  14.241  0.00  0.00    +0.319 C 
ATOM     30  O   LIG    1       18.052 -25.697  13.768  0.00  0.00    -0.250 OA
BRANCH  29  31
ATOM     31  O   LIG    1       17.882 -27.924  14.064  0.00  0.00    -0.480 OA
ATOM     32  H   LIG    1       16.919 -27.789  13.949  0.00  0.00    +0.295 HD
ENDBRANCH  29  31
ENDBRANCH  28  29
ENDBRANCH  10  28
TORSDOF 12
ENDMDL
MODEL 5
REMARK VINA RESULT:      -4.8      4.459      7.265
REMARK  Name = *****
REMARK                            x       y       z     vdW  Elec       q    Type
REMARK                         _______ _______ _______ _____ _____    ______ ____
ROOT
ATOM      1  N   LIG    1       26.505 -29.237   9.866  0.00  0.00    -0.290 NA
ATOM      2  C   LIG    1       25.795 -30.398  10.473  0.00  0.00    +0.100 C 
ATOM      3  C   LIG    1       26.015 -31.716   9.688  0.00  0.00    +0.100 C 
ATOM      4  N   LIG    1       24.859 -32.659   9.800  0.00  0.00    -0.290 NA
ATOM      5  C   LIG    1       24.582 -33.219   8.436  0.00  0.00    +0.100 C 
ATOM      6  C   LIG    1       23.780 -32.244   7.521  0.00  0.00    +0.100 C 
ATOM      7  N   LIG    1       24.556 -31.496   6.496  0.00  0.00    -0.290 NA
ATOM      8  C   LIG    1       23.779 -30.314   6.069  0.00  0.00    +0.100 C 
ATOM      9  C   LIG    1       24.603 -29.120   5.519  0.00  0.00    +0.100 C 
ATOM     10  N   LIG    1       24.998 -28.114   6.537  0.00  0.00    -0.290 NA
ATOM     11  C   LIG    1       26.026 -28.697   7.457  0.00  0.00    +0.100 C 
ATOM     12  C   LIG    1       25.579 -28.539   8.926  0.00  0.00    +0.100 C 
ENDROOT
BRANCH   1  13
ATOM     13  C   LIG    1       26.998 -28.355  10.956  0.00  0.00    +0.205 C 
BRANCH  13  15
ATOM     14  O   LIG    1       28.942 -29.760  11.363  0.00  0.00    -0.250 OA
ATOM     15  C   LIG    1       28.113 -28.962  11.803  0.00  0.00    +0.319 C 
BRANCH  15  16
ATOM     16  O   LIG    1       28.144 -28.557  13.090  0.00  0.00    -0.480 OA
ATOM     17  H   LIG    1       28.631 -27.721  13.230  0.00  0.00    +0.295 HD
ENDBRANCH  15  16
ENDBRANCH  13  15
ENDBRANCH   1  13
BRANCH   4  18
ATOM     18  C   LIG    1       25.174 -33.813  10.701  0.00  0.00    +0.205 C 
BRANCH  18  19
ATOM     19  C   LIG    1       24.861 -33.528  12.168  0.00  0.00    +0.319 C 
ATOM     20  O   LIG    1       23.736 -33.393  12.618  0.00  0.00    -0.250 OA
BRANCH  19  21
ATOM     21  O   LIG    1       25.979 -33.361  12.916  0.00  0.00    -0.480 OA
ATOM     22  H   LIG    1       25.812 -33.742  13.806  0.00  0.00    +0.295 HD
ENDBRANCH  19  21
ENDBRANCH  18  19
ENDBRANCH   4  18
BRANCH   7  23
ATOM     23  C   LIG    1       24.957 -32.368   5.357  0.00  0.00    +0.205 C 
BRANCH  23  24
ATOM     24  C   LIG    1       26.462 -32.611   5.247  0.00  0.00    +0.319 C 
ATOM     25  O   LIG    1       27.007 -33.208   4.322  0.00  0.00    -0.250 OA
BRANCH  24  26
ATOM     26  O   LIG    1       27.179 -32.141   6.301  0.00  0.00    -0.480 OA
ATOM     27  H   LIG    1       27.527 -32.824   6.904  0.00  0.00    +0.295 HD
ENDBRANCH  24  26
ENDBRANCH  23  24
ENDBRANCH   7  23
BRANCH  10  28
ATOM     28  C   LIG    1       25.600 -26.926   5.849  0.00  0.00    +0.205 C 
BRANCH  28  29
ATOM     29  C   LIG    1       24.588 -25.786   5.646  0.00  0.00    +0.319 C 
ATOM     30  O   LIG    1       23.655 -25.567   6.382  0.00  0.00    -0.250 OA
BRANCH  29  31
ATOM     31  O   LIG    1       24.837 -25.030   4.540  0.00  0.00    -0.480 OA
ATOM     32  H   LIG    1       24.537 -25.512   3.743  0.00  0.00    +0.295 HD
ENDBRANCH  29  31
ENDBRANCH  28  29
ENDBRANCH  10  28
TORSDOF 12
ENDMDL
MODEL 6
REMARK VINA RESULT:      -4.7      2.970      5.381
REMARK  Name = *****
REMARK                            x       y       z     vdW  Elec       q    Type
REMARK                         _______ _______ _______ _____ _____    ______ ____
ROOT
ATOM      1  N   LIG    1       25.287 -28.925   7.852  0.00  0.00    -0.290 NA
ATOM      2  C   LIG    1       25.287 -30.096   6.931  0.00  0.00    +0.100 C 
ATOM      3  C   LIG    1       24.021 -30.977   7.078  0.00  0.00    +0.100 C 
ATOM      4  N   LIG    1       24.273 -32.416   6.755  0.00  0.00    -0.290 NA
ATOM      5  C   LIG    1       23.595 -33.253   7.799  0.00  0.00    +0.100 C 
ATOM      6  C   LIG    1       24.398 -33.345   9.132  0.00  0.00    +0.100 C 
ATOM      7  N   LIG    1       23.938 -32.483  10.254  0.00  0.00    -0.290 NA
ATOM      8  C   LIG    1       25.039 -32.325  11.226  0.00  0.00    +0.100 C 
ATOM      9  C   LIG    1       25.003 -31.038  12.092  0.00  0.00    +0.100 C 
ATOM     10  N   LIG    1       25.744 -29.883  11.525  0.00  0.00    -0.290 NA
ATOM     11  C   LIG    1       25.029 -29.365  10.314  0.00  0.00    +0.100 C 
ATOM     12  C   LIG    1       25.995 -29.296   9.112  0.00  0.00    +0.100 C 
ENDROOT
BRANCH   1  13
ATOM     13  C   LIG    1       25.911 -27.770   7.155  0.00  0.00    +0.205 C 
BRANCH  13  15
ATOM     14  O   LIG    1       23.960 -26.692   6.179  0.00  0.00    -0.250 OA
ATOM     15  C   LIG    1       25.074 -27.193   6.017  0.00  0.00    +0.319 C 
BRANCH  15  16
ATOM     16  O   LIG    1       25.643 -27.256   4.794  0.00  0.00    -0.480 OA
ATOM     17  H   LIG    1       25.113 -27.748   4.137  0.00  0.00    +0.295 HD
ENDBRANCH  15  16
ENDBRANCH  13  15
ENDBRANCH   1  13
BRANCH   4  18
ATOM     18  C   LIG    1       23.686 -32.796   5.430  0.00  0.00    +0.205 C 
BRANCH  18  19
ATOM     19  C   LIG    1       24.740 -33.223   4.412  0.00  0.00    +0.319 C 
ATOM     20  O   LIG    1       25.941 -33.219   4.621  0.00  0.00    -0.250 OA
BRANCH  19  21
ATOM     21  O   LIG    1       24.204 -33.538   3.207  0.00  0.00    -0.480 OA
ATOM     22  H   LIG    1       23.345 -33.987   3.362  0.00  0.00    +0.295 HD
ENDBRANCH  19  21
ENDBRANCH  18  19
ENDBRANCH   4  18
BRANCH   7  23
ATOM     23  C   LIG    1       22.687 -33.003  10.876  0.00  0.00    +0.205 C 
BRANCH  23  24
ATOM     24  C   LIG    1       21.478 -32.079  10.729  0.00  0.00    +0.319 C 
ATOM     25  O   LIG    1       20.396 -32.252  11.285  0.00  0.00    -0.250 OA
BRANCH  24  26
ATOM     26  O   LIG    1       21.675 -31.037   9.880  0.00  0.00    -0.480 OA
ATOM     27  H   LIG    1       21.315 -31.159   8.982  0.00  0.00    +0.295 HD
ENDBRANCH  24  26
ENDBRANCH  23  24
ENDBRANCH   7  23
BRANCH  10  28
ATOM     28  C   LIG    1       25.803 -28.786  12.543  0.00  0.00    +0.205 C 
BRANCH  28  29
ATOM     29  C   LIG    1       26.973 -27.818  12.300  0.00  0.00    +0.319 C 
ATOM     30  O   LIG    1       26.905 -26.621  12.450  0.00  0.00    -0.250 OA
BRANCH  29  31
ATOM     31  O   LIG    1       28.114 -28.438  11.889  0.00  0.00    -0.480 OA
ATOM     32  H   LIG    1       28.010 -29.407  11.984  0.00  0.00    +0.295 HD
ENDBRANCH  29  31
ENDBRANCH  28  29
ENDBRANCH  10  28
TORSDOF 12
ENDMDL
MODEL 7
REMARK VINA RESULT:      -4.6      2.715      8.000
REMARK  Name = *****
REMARK                            x       y       z     vdW  Elec       q    Type
REMARK                         _______ _______ _______ _____ _____    ______ ____
ROOT
ATOM      1  N   LIG    1       21.253 -27.132  14.138  0.00  0.00    -0.290 NA
ATOM      2  C   LIG    1       22.560 -26.605  14.625  0.00  0.00    +0.100 C 
ATOM      3  C   LIG    1       23.570 -26.348  13.479  0.00  0.00    +0.100 C 
ATOM      4  N   LIG    1       24.993 -26.512  13.910  0.00  0.00    -0.290 NA
ATOM      5  C   LIG    1       25.716 -27.286  12.848  0.00  0.00    +0.100 C 
ATOM      6  C   LIG    1       25.451 -28.821  12.917  0.00  0.00    +0.100 C 
ATOM      7  N   LIG    1       24.475 -29.378  11.942  0.00  0.00    -0.290 NA
ATOM      8  C   LIG    1       23.991 -30.684  12.435  0.00  0.00    +0.100 C 
ATOM      9  C   LIG    1       22.587 -31.120  11.938  0.00  0.00    +0.100 C 
ATOM     10  N   LIG    1       21.460 -30.713  12.815  0.00  0.00    -0.290 NA
ATOM     11  C   LIG    1       21.275 -29.227  12.748  0.00  0.00    +0.100 C 
ATOM     12  C   LIG    1       21.287 -28.623  14.169  0.00  0.00    +0.100 C 
ENDROOT
BRANCH   1  13
ATOM     13  C   LIG    1       20.166 -26.559  14.975  0.00  0.00    +0.205 C 
BRANCH  13  15
ATOM     14  O   LIG    1       18.179 -27.817  14.353  0.00  0.00    -0.250 OA
ATOM     15  C   LIG    1       18.766 -26.735  14.395  0.00  0.00    +0.319 C 
BRANCH  15  16
ATOM     16  O   LIG    1       18.190 -25.607  13.928  0.00  0.00    -0.480 OA
ATOM     17  H   LIG    1       18.441 -24.801  14.423  0.00  0.00    +0.295 HD
ENDBRANCH  15  16
ENDBRANCH  13  15
ENDBRANCH   1  13
BRANCH   4  18
ATOM     18  C   LIG    1       25.685 -25.190  14.047  0.00  0.00    +0.205 C 
BRANCH  18  19
ATOM     19  C   LIG    1       27.174 -25.324  14.351  0.00  0.00    +0.319 C 
ATOM     20  O   LIG    1       27.627 -25.828  15.364  0.00  0.00    -0.250 OA
BRANCH  19  21
ATOM     21  O   LIG    1       27.954 -24.750  13.401  0.00  0.00    -0.480 OA
ATOM     22  H   LIG    1       27.915 -25.308  12.594  0.00  0.00    +0.295 HD
ENDBRANCH  19  21
ENDBRANCH  18  19
ENDBRANCH   4  18
BRANCH   7  23
ATOM     23  C   LIG    1       25.047 -29.455  10.568  0.00  0.00    +0.205 C 
BRANCH  23  24
ATOM     24  C   LIG    1       26.491 -29.953  10.512  0.00  0.00    +0.319 C 
ATOM     25  O   LIG    1       27.464 -29.243  10.271  0.00  0.00    -0.250 OA
BRANCH  24  26
ATOM     26  O   LIG    1       26.626 -31.289  10.716  0.00  0.00    -0.480 OA
ATOM     27  H   LIG    1       25.882 -31.835  10.400  0.00  0.00    +0.295 HD
ENDBRANCH  24  26
ENDBRANCH  23  24
ENDBRANCH   7  23
BRANCH  10  28
ATOM     28  C   LIG    1       20.201 -31.367  12.336  0.00  0.00    +0.205 C 
BRANCH  28  29
ATOM     29  C   LIG    1       19.015 -31.134  13.289  0.00  0.00    +0.319 C 
ATOM     30  O   LIG    1       18.957 -31.562  14.416  0.00  0.00    -0.250 OA
BRANCH  29  31
ATOM     31  O   LIG    1       18.014 -30.392  12.738  0.00  0.00    -0.480 OA
ATOM     32  H   LIG    1       17.149 -30.780  12.983  0.00  0.00    +0.295 HD
ENDBRANCH  29  31
ENDBRANCH  28  29
ENDBRANCH  10  28
TORSDOF 12
ENDMDL
MODEL 8
REMARK VINA RESULT:      -4.5      3.287      6.314
REMARK  Name = *****
REMARK                            x       y       z     vdW  Elec       q    Type
REMARK                         _______ _______ _______ _____ _____    ______ ____
ROOT
ATOM      1  N   LIG    1       25.878 -29.062  10.426  0.00  0.00    -0.290 NA
ATOM      2  C   LIG    1       25.996 -29.157   8.943  0.00  0.00    +0.100 C 
ATOM      3  C   LIG    1       24.682 -29.617   8.263  0.00  0.00    +0.100 C 
ATOM      4  N   LIG    1       24.919 -30.370   6.992  0.00  0.00    -0.290 NA
ATOM      5  C   LIG    1       24.011 -31.564   6.983  0.00  0.00    +0.100 C 
ATOM      6  C   LIG    1       24.537 -32.745   7.856  0.00  0.00    +0.100 C 
ATOM      7  N   LIG    1       23.913 -32.919   9.195  0.00  0.00    -0.290 NA
ATOM      8  C   LIG    1       24.813 -33.724  10.047  0.00  0.00    +0.100 C 
ATOM      9  C   LIG    1       24.675 -33.507  11.577  0.00  0.00    +0.100 C 
ATOM     10  N   LIG    1       25.570 -32.465  12.142  0.00  0.00    -0.290 NA
ATOM     11  C   LIG    1       25.128 -31.110  11.678  0.00  0.00    +0.100 C 
ATOM     12  C   LIG    1       26.310 -30.355  11.032  0.00  0.00    +0.100 C 
ENDROOT
BRANCH   1  13
ATOM     13  C   LIG    1       26.682 -27.904  10.896  0.00  0.00    +0.205 C 
BRANCH  13  15
ATOM     14  O   LIG    1       25.608 -27.705  13.070  0.00  0.00    -0.250 OA
ATOM     15  C   LIG    1       26.645 -27.682  12.405  0.00  0.00    +0.319 C 
BRANCH  15  16
ATOM     16  O   LIG    1       27.844 -27.462  12.985  0.00  0.00    -0.480 OA
ATOM     17  H   LIG    1       28.394 -26.801  12.518  0.00  0.00    +0.295 HD
ENDBRANCH  15  16
ENDBRANCH  13  15
ENDBRANCH   1  13
BRANCH   4  18
ATOM     18  C   LIG    1       24.580 -29.544   5.789  0.00  0.00    +0.205 C 
BRANCH  18  19
ATOM     19  C   LIG    1       25.032 -28.091   5.917  0.00  0.00    +0.319 C 
ATOM     20  O   LIG    1       24.290 -27.160   6.176  0.00  0.00    -0.250 OA
BRANCH  19  21
ATOM     21  O   LIG    1       26.349 -27.929   5.634  0.00  0.00    -0.480 OA
ATOM     22  H   LIG    1       26.705 -27.229   6.225  0.00  0.00    +0.295 HD
ENDBRANCH  19  21
ENDBRANCH  18  19
ENDBRANCH   4  18
BRANCH   7  23
ATOM     23  C   LIG    1       22.541 -33.493   9.098  0.00  0.00    +0.205 C 
BRANCH  23  24
ATOM     24  C   LIG    1       21.464 -32.679   9.815  0.00  0.00    +0.319 C 
ATOM     25  O   LIG    1       20.477 -33.161  10.365  0.00  0.00    -0.250 OA
BRANCH  24  26
ATOM     26  O   LIG    1       21.659 -31.336   9.766  0.00  0.00    -0.480 OA
ATOM     27  H   LIG    1       22.278 -31.030   9.078  0.00  0.00    +0.295 HD
ENDBRANCH  24  26
ENDBRANCH  23  24
ENDBRANCH   7  23
BRANCH  10  28
ATOM     28  C   LIG    1       25.487 -32.501  13.637  0.00  0.00    +0.205 C 
BRANCH  28  29
ATOM     29  C   LIG    1       26.438 -31.494  14.306  0.00  0.00    +0.319 C 
ATOM     30  O   LIG    1       27.626 -31.667  14.437  0.00  0.00    -0.250 OA
BRANCH  29  31
ATOM     31  O   LIG    1       25.811 -30.369  14.750  0.00  0.00    -0.480 OA
ATOM     32  H   LIG    1       26.472 -29.761  15.140  0.00  0.00    +0.295 HD
ENDBRANCH  29  31
ENDBRANCH  28  29
ENDBRANCH  10  28
TORSDOF 12
ENDMDL
MODEL 9
REMARK VINA RESULT:      -4.3      2.102      5.388
REMARK  Name = *****
REMARK                            x       y       z     vdW  Elec       q    Type
REMARK                         _______ _______ _______ _____ _____    ______ ____
ROOT
ATOM      1  N   LIG    1       25.775 -29.422  10.331  0.00  0.00    -0.290 NA
ATOM      2  C   LIG    1       25.830 -30.322   9.144  0.00  0.00    +0.100 C 
ATOM      3  C   LIG    1       24.442 -30.547   8.494  0.00  0.00    +0.100 C 
ATOM      4  N   LIG    1       24.320 -31.881   7.830  0.00  0.00    -0.290 NA
ATOM      5  C   LIG    1       22.985 -32.462   8.192  0.00  0.00    +0.100 C 
ATOM      6  C   LIG    1       22.955 -33.096   9.615  0.00  0.00    +0.100 C 
ATOM      7  N   LIG    1       22.327 -32.290  10.696  0.00  0.00    -0.290 NA
ATOM      8  C   LIG    1       22.796 -32.788  12.006  0.00  0.00    +0.100 C 
ATOM      9  C   LIG    1       22.777 -31.763  13.170  0.00  0.00    +0.100 C 
ATOM     10  N   LIG    1       24.038 -30.999  13.349  0.00  0.00    -0.290 NA
ATOM     11  C   LIG    1       24.223 -30.046  12.208  0.00  0.00    +0.100 C 
ATOM     12  C   LIG    1       25.610 -30.249  11.562  0.00  0.00    +0.100 C 
ENDROOT
BRANCH   1  13
ATOM     13  C   LIG    1       27.005 -28.587  10.354  0.00  0.00    +0.205 C 
BRANCH  13  15
ATOM     14  O   LIG    1       28.847 -29.732  11.457  0.00  0.00    -0.250 OA
ATOM     15  C   LIG    1       27.950 -28.889  11.513  0.00  0.00    +0.319 C 
BRANCH  15  16
ATOM     16  O   LIG    1       27.747 -28.156  12.628  0.00  0.00    -0.480 OA
ATOM     17  H   LIG    1       26.827 -28.183  12.957  0.00  0.00    +0.295 HD
ENDBRANCH  15  16
ENDBRANCH  13  15
ENDBRANCH   1  13
BRANCH   4  18
ATOM     18  C   LIG    1       24.364 -31.761   6.337  0.00  0.00    +0.205 C 
BRANCH  18  19
ATOM     19  C   LIG    1       24.414 -30.312   5.856  0.00  0.00    +0.319 C 
ATOM     20  O   LIG    1       25.436 -29.656   5.753  0.00  0.00    -0.250 OA
BRANCH  19  21
ATOM     21  O   LIG    1       23.181 -29.797   5.626  0.00  0.00    -0.480 OA
ATOM     22  H   LIG    1       22.793 -29.532   6.488  0.00  0.00    +0.295 HD
ENDBRANCH  19  21
ENDBRANCH  18  19
ENDBRANCH   4  18
BRANCH   7  23
ATOM     23  C   LIG    1       20.841 -32.272  10.583  0.00  0.00    +0.205 C 
BRANCH  23  24
ATOM     24  C   LIG    1       20.220 -30.877  10.649  0.00  0.00    +0.319 C 
ATOM     25  O   LIG    1       20.667 -29.946  11.315  0.00  0.00    -0.250 OA
BRANCH  24  26
ATOM     26  O   LIG    1       19.078 -30.742   9.928  0.00  0.00    -0.480 OA
ATOM     27  H   LIG    1       19.099 -30.051   9.240  0.00  0.00    +0.295 HD
ENDBRANCH  24  26
ENDBRANCH  23  24
ENDBRANCH   7  23
BRANCH  10  28
ATOM     28  C   LIG    1       23.958 -30.206  14.618  0.00  0.00    +0.205 C 
BRANCH  28  29
ATOM     29  C   LIG    1       25.311 -29.593  15.017  0.00  0.00    +0.319 C 
ATOM     30  O   LIG    1       25.571 -28.416  14.941  0.00  0.00    -0.250 OA
BRANCH  29  31
ATOM     31  O   LIG    1       26.212 -30.511  15.468  0.00  0.00    -0.480 OA
ATOM     32  H   LIG    1       26.471 -31.101  14.730  0.00  0.00    +0.295 HD
ENDBRANCH  29  31
ENDBRANCH  28  29
ENDBRANCH  10  28
TORSDOF 12
ENDMDL
