MODEL 1
REMARK VINA RESULT:     -10.0      0.000      0.000
REMARK  Name = *****
REMARK                            x       y       z     vdW  Elec       q    Type
REMARK                         _______ _______ _______ _____ _____    ______ ____
ROOT
ATOM      1  C   LIG    1       23.426 -20.511   5.676  0.00  0.00    +0.080 A 
ATOM      2  C   LIG    1       24.629 -20.473   4.936  0.00  0.00    +0.045 A 
ATOM      3  C   LIG    1       24.709 -19.546   3.878  0.00  0.00    +0.024 A 
ATOM      4  C   LIG    1       23.681 -18.650   3.594  0.00  0.00    +0.002 A 
ATOM      5  C   LIG    1       22.530 -18.652   4.369  0.00  0.00    +0.001 A 
ATOM      6  C   LIG    1       22.397 -19.581   5.399  0.00  0.00    +0.017 A 
ENDROOT
BRANCH   1   8
ATOM      7  O   LIG    1       23.225 -21.424   7.894  0.00  0.00    -0.245 OA
ATOM      8  C   LIG    1       23.157 -21.569   6.699  0.00  0.00    +0.341 C 
BRANCH   8   9
ATOM      9  O   LIG    1       23.020 -22.760   6.037  0.00  0.00    -0.458 OA
BRANCH   9  10
ATOM     10  C   LIG    1       23.462 -23.936   6.735  0.00  0.00    +0.266 C 
BRANCH  10  11
ATOM     11  C   LIG    1       24.616 -24.631   6.006  0.00  0.00    +0.177 C 
BRANCH  11  12
ATOM     12  O   LIG    1       24.893 -24.026   4.733  0.00  0.00    -0.386 OA
ATOM     13  H   LIG    1       25.850 -24.104   4.559  0.00  0.00    +0.210 HD
ENDBRANCH  11  12
BRANCH  11  14
ATOM     14  C   LIG    1       24.262 -26.104   5.765  0.00  0.00    +0.190 C 
BRANCH  14  15
ATOM     15  O   LIG    1       25.282 -26.737   5.001  0.00  0.00    -0.392 OA
ATOM     16  H   LIG    1       25.703 -26.027   4.477  0.00  0.00    +0.209 HD
ENDBRANCH  14  15
ENDBRANCH  11  14
ENDBRANCH  10  11
ENDBRANCH   9  10
ENDBRANCH   8   9
ENDBRANCH   1   8
BRANCH   2  17
ATOM     17  N   LIG    1       25.775 -21.262   5.200  0.00  0.00    -0.313 N 
ATOM     18  H   LIG    1       25.836 -22.126   4.665  0.00  0.00    +0.152 HD
BRANCH  17  19
ATOM     19  C   LIG    1       26.704 -21.163   6.284  0.00  0.00    +0.042 A 
ATOM     20  C   LIG    1       27.770 -20.213   6.273  0.00  0.00    +0.022 A 
ATOM     21  C   LIG    1       27.943 -19.239   5.262  0.00  0.00    +0.012 A 
ATOM     22  C   LIG    1       29.060 -18.408   5.234  0.00  0.00    +0.001 A 
ATOM     23  C   LIG    1       30.024 -18.534   6.220  0.00  0.00    +0.014 A 
ATOM     24  C   LIG    1       29.851 -19.449   7.278  0.00  0.00    +0.081 A 
ATOM     25  C   LIG    1       28.712 -20.253   7.341  0.00  0.00    +0.084 A 
ATOM     26  N   LIG    1       28.532 -21.048   8.404  0.00  0.00    -0.254 NA
ATOM     27  C   LIG    1       27.466 -21.862   8.444  0.00  0.00    +0.113 A 
ATOM     28  C   LIG    1       26.558 -21.975   7.415  0.00  0.00    +0.043 A 
BRANCH  24  29
ATOM     29  C   LIG    1       30.960 -19.546   8.296  0.00  0.00    +0.419 C 
ATOM     30  F   LIG    1       30.591 -19.010   9.499  0.00  0.00    -0.166 F 
ATOM     31  F   LIG    1       32.048 -18.813   7.909  0.00  0.00    -0.166 F 
ATOM     32  F   LIG    1       31.452 -20.780   8.586  0.00  0.00    -0.166 F 
ENDBRANCH  24  29
ENDBRANCH  17  19
ENDBRANCH   2  17
TORSDOF 10
ENDMDL
MODEL 2
REMARK VINA RESULT:      -9.5      1.471      2.441
REMARK  Name = *****
REMARK                            x       y       z     vdW  Elec       q    Type
REMARK                         _______ _______ _______ _____ _____    ______ ____
ROOT
ATOM      1  C   LIG    1       24.343 -20.592   6.280  0.00  0.00    +0.080 A 
ATOM      2  C   LIG    1       25.250 -20.399   5.214  0.00  0.00    +0.045 A 
ATOM      3  C   LIG    1       24.746 -19.820   4.032  0.00  0.00    +0.024 A 
ATOM      4  C   LIG    1       23.426 -19.392   3.918  0.00  0.00    +0.002 A 
ATOM      5  C   LIG    1       22.561 -19.526   4.993  0.00  0.00    +0.001 A 
ATOM      6  C   LIG    1       23.011 -20.130   6.165  0.00  0.00    +0.017 A 
ENDROOT
BRANCH   1   8
ATOM      7  O   LIG    1       25.343 -20.921   8.444  0.00  0.00    -0.245 OA
ATOM      8  C   LIG    1       24.716 -21.356   7.510  0.00  0.00    +0.341 C 
BRANCH   8   9
ATOM      9  O   LIG    1       24.395 -22.670   7.296  0.00  0.00    -0.458 OA
BRANCH   9  10
ATOM     10  C   LIG    1       25.493 -23.577   7.107  0.00  0.00    +0.266 C 
BRANCH  10  11
ATOM     11  C   LIG    1       25.285 -24.477   5.886  0.00  0.00    +0.177 C 
BRANCH  11  12
ATOM     12  O   LIG    1       24.915 -23.727   4.718  0.00  0.00    -0.386 OA
ATOM     13  H   LIG    1       24.670 -24.357   4.015  0.00  0.00    +0.210 HD
ENDBRANCH  11  12
BRANCH  11  14
ATOM     14  C   LIG    1       24.169 -25.489   6.174  0.00  0.00    +0.190 C 
BRANCH  14  15
ATOM     15  O   LIG    1       22.957 -24.810   6.485  0.00  0.00    -0.392 OA
ATOM     16  H   LIG    1       22.348 -25.495   6.826  0.00  0.00    +0.209 HD
ENDBRANCH  14  15
ENDBRANCH  11  14
ENDBRANCH  10  11
ENDBRANCH   9  10
ENDBRANCH   8   9
ENDBRANCH   1   8
BRANCH   2  17
ATOM     17  N   LIG    1       26.634 -20.700   5.255  0.00  0.00    -0.313 N 
ATOM     18  H   LIG    1       26.858 -21.693   5.251  0.00  0.00    +0.152 HD
BRANCH  17  19
ATOM     19  C   LIG    1       27.732 -19.840   5.571  0.00  0.00    +0.042 A 
ATOM     20  C   LIG    1       28.669 -20.166   6.597  0.00  0.00    +0.022 A 
ATOM     21  C   LIG    1       28.656 -21.388   7.311  0.00  0.00    +0.012 A 
ATOM     22  C   LIG    1       29.519 -21.616   8.380  0.00  0.00    +0.001 A 
ATOM     23  C   LIG    1       30.414 -20.626   8.752  0.00  0.00    +0.014 A 
ATOM     24  C   LIG    1       30.498 -19.424   8.022  0.00  0.00    +0.081 A 
ATOM     25  C   LIG    1       29.670 -19.206   6.920  0.00  0.00    +0.084 A 
ATOM     26  N   LIG    1       29.833 -18.093   6.191  0.00  0.00    -0.254 NA
ATOM     27  C   LIG    1       29.005 -17.852   5.163  0.00  0.00    +0.113 A 
ATOM     28  C   LIG    1       27.942 -18.665   4.839  0.00  0.00    +0.043 A 
BRANCH  24  29
ATOM     29  C   LIG    1       31.477 -18.386   8.509  0.00  0.00    +0.419 C 
ATOM     30  F   LIG    1       32.527 -18.236   7.647  0.00  0.00    -0.166 F 
ATOM     31  F   LIG    1       32.051 -18.767   9.691  0.00  0.00    -0.166 F 
ATOM     32  F   LIG    1       31.013 -17.128   8.734  0.00  0.00    -0.166 F 
ENDBRANCH  24  29
ENDBRANCH  17  19
ENDBRANCH   2  17
TORSDOF 10
ENDMDL
MODEL 3
REMARK VINA RESULT:      -8.0      1.800      3.091
REMARK  Name = *****
REMARK                            x       y       z     vdW  Elec       q    Type
REMARK                         _______ _______ _______ _____ _____    ______ ____
ROOT
ATOM      1  C   LIG    1       24.847 -22.813   6.444  0.00  0.00    +0.080 A 
ATOM      2  C   LIG    1       25.703 -21.716   6.203  0.00  0.00    +0.045 A 
ATOM      3  C   LIG    1       25.100 -20.478   5.903  0.00  0.00    +0.024 A 
ATOM      4  C   LIG    1       23.719 -20.305   5.899  0.00  0.00    +0.002 A 
ATOM      5  C   LIG    1       22.888 -21.373   6.202  0.00  0.00    +0.001 A 
ATOM      6  C   LIG    1       23.446 -22.623   6.465  0.00  0.00    +0.017 A 
ENDROOT
BRANCH   1   8
ATOM      7  O   LIG    1       26.185 -24.569   7.404  0.00  0.00    -0.245 OA
ATOM      8  C   LIG    1       25.368 -24.207   6.595  0.00  0.00    +0.341 C 
BRANCH   8   9
ATOM      9  O   LIG    1       24.904 -24.940   5.534  0.00  0.00    -0.458 OA
BRANCH   9  10
ATOM     10  C   LIG    1       24.198 -26.151   5.850  0.00  0.00    +0.266 C 
BRANCH  10  11
ATOM     11  C   LIG    1       25.120 -27.373   5.812  0.00  0.00    +0.177 C 
BRANCH  11  12
ATOM     12  O   LIG    1       25.719 -27.638   7.090  0.00  0.00    -0.386 OA
ATOM     13  H   LIG    1       26.681 -27.739   6.962  0.00  0.00    +0.210 HD
ENDBRANCH  11  12
BRANCH  11  14
ATOM     14  C   LIG    1       26.246 -27.140   4.798  0.00  0.00    +0.190 C 
BRANCH  14  15
ATOM     15  O   LIG    1       27.441 -26.755   5.468  0.00  0.00    -0.392 OA
ATOM     16  H   LIG    1       27.810 -27.577   5.848  0.00  0.00    +0.209 HD
ENDBRANCH  14  15
ENDBRANCH  11  14
ENDBRANCH  10  11
ENDBRANCH   9  10
ENDBRANCH   8   9
ENDBRANCH   1   8
BRANCH   2  17
ATOM     17  N   LIG    1       27.117 -21.750   6.282  0.00  0.00    -0.313 N 
ATOM     18  H   LIG    1       27.514 -22.662   6.504  0.00  0.00    +0.152 HD
BRANCH  17  19
ATOM     19  C   LIG    1       28.040 -20.661   6.366  0.00  0.00    +0.042 A 
ATOM     20  C   LIG    1       29.115 -20.659   7.304  0.00  0.00    +0.022 A 
ATOM     21  C   LIG    1       29.420 -21.752   8.150  0.00  0.00    +0.012 A 
ATOM     22  C   LIG    1       30.407 -21.663   9.128  0.00  0.00    +0.001 A 
ATOM     23  C   LIG    1       31.110 -20.479   9.277  0.00  0.00    +0.014 A 
ATOM     24  C   LIG    1       30.877 -19.393   8.409  0.00  0.00    +0.081 A 
ATOM     25  C   LIG    1       29.923 -19.490   7.395  0.00  0.00    +0.084 A 
ATOM     26  N   LIG    1       29.786 -18.475   6.530  0.00  0.00    -0.254 NA
ATOM     27  C   LIG    1       28.834 -18.540   5.586  0.00  0.00    +0.113 A 
ATOM     28  C   LIG    1       27.935 -19.578   5.485  0.00  0.00    +0.043 A 
BRANCH  24  29
ATOM     29  C   LIG    1       31.663 -18.130   8.655  0.00  0.00    +0.419 C 
ATOM     30  F   LIG    1       32.649 -17.957   7.724  0.00  0.00    -0.166 F 
ATOM     31  F   LIG    1       32.323 -18.187   9.852  0.00  0.00    -0.166 F 
ATOM     32  F   LIG    1       30.984 -16.952   8.684  0.00  0.00    -0.166 F 
ENDBRANCH  24  29
ENDBRANCH  17  19
ENDBRANCH   2  17
TORSDOF 10
ENDMDL
MODEL 4
REMARK VINA RESULT:      -8.0      3.453      5.209
REMARK  Name = *****
REMARK                            x       y       z     vdW  Elec       q    Type
REMARK                         _______ _______ _______ _____ _____    ______ ____
ROOT
ATOM      1  C   LIG    1       24.320 -19.028   3.921  0.00  0.00    +0.080 A 
ATOM      2  C   LIG    1       24.608 -20.087   4.812  0.00  0.00    +0.045 A 
ATOM      3  C   LIG    1       23.552 -20.565   5.612  0.00  0.00    +0.024 A 
ATOM      4  C   LIG    1       22.254 -20.073   5.503  0.00  0.00    +0.002 A 
ATOM      5  C   LIG    1       21.967 -19.080   4.579  0.00  0.00    +0.001 A 
ATOM      6  C   LIG    1       22.993 -18.553   3.797  0.00  0.00    +0.017 A 
ENDROOT
BRANCH   1   8
ATOM      7  O   LIG    1       26.260 -18.852   2.507  0.00  0.00    -0.245 OA
ATOM      8  C   LIG    1       25.392 -18.321   3.155  0.00  0.00    +0.341 C 
BRANCH   8   9
ATOM      9  O   LIG    1       25.330 -16.993   3.484  0.00  0.00    -0.458 OA
BRANCH   9  10
ATOM     10  C   LIG    1       26.563 -16.259   3.427  0.00  0.00    +0.266 C 
BRANCH  10  11
ATOM     11  C   LIG    1       26.324 -14.756   3.255  0.00  0.00    +0.177 C 
BRANCH  11  12
ATOM     12  O   LIG    1       26.605 -14.314   1.918  0.00  0.00    -0.386 OA
ATOM     13  H   LIG    1       26.879 -13.379   1.956  0.00  0.00    +0.210 HD
ENDBRANCH  11  12
BRANCH  11  14
ATOM     14  C   LIG    1       27.230 -13.976   4.215  0.00  0.00    +0.190 C 
BRANCH  14  15
ATOM     15  O   LIG    1       28.539 -13.855   3.667  0.00  0.00    -0.392 OA
ATOM     16  H   LIG    1       29.097 -13.499   4.386  0.00  0.00    +0.209 HD
ENDBRANCH  14  15
ENDBRANCH  11  14
ENDBRANCH  10  11
ENDBRANCH   9  10
ENDBRANCH   8   9
ENDBRANCH   1   8
BRANCH   2  17
ATOM     17  N   LIG    1       25.863 -20.733   4.932  0.00  0.00    -0.313 N 
ATOM     18  H   LIG    1       26.097 -21.364   4.169  0.00  0.00    +0.152 HD
BRANCH  17  19
ATOM     19  C   LIG    1       26.712 -20.840   6.078  0.00  0.00    +0.042 A 
ATOM     20  C   LIG    1       27.879 -20.030   6.225  0.00  0.00    +0.022 A 
ATOM     21  C   LIG    1       28.239 -19.002   5.321  0.00  0.00    +0.012 A 
ATOM     22  C   LIG    1       29.444 -18.315   5.443  0.00  0.00    +0.001 A 
ATOM     23  C   LIG    1       30.310 -18.640   6.474  0.00  0.00    +0.014 A 
ATOM     24  C   LIG    1       29.953 -19.612   7.430  0.00  0.00    +0.081 A 
ATOM     25  C   LIG    1       28.726 -20.273   7.343  0.00  0.00    +0.084 A 
ATOM     26  N   LIG    1       28.376 -21.127   8.315  0.00  0.00    -0.254 NA
ATOM     27  C   LIG    1       27.223 -21.806   8.210  0.00  0.00    +0.113 A 
ATOM     28  C   LIG    1       26.388 -21.720   7.118  0.00  0.00    +0.043 A 
BRANCH  24  29
ATOM     29  C   LIG    1       30.962 -19.930   8.504  0.00  0.00    +0.419 C 
ATOM     30  F   LIG    1       32.127 -19.237   8.324  0.00  0.00    -0.166 F 
ATOM     31  F   LIG    1       31.331 -21.247   8.458  0.00  0.00    -0.166 F 
ATOM     32  F   LIG    1       30.608 -19.709   9.798  0.00  0.00    -0.166 F 
ENDBRANCH  24  29
ENDBRANCH  17  19
ENDBRANCH   2  17
TORSDOF 10
ENDMDL
MODEL 5
REMARK VINA RESULT:      -7.6      5.062      8.309
REMARK  Name = *****
REMARK                            x       y       z     vdW  Elec       q    Type
REMARK                         _______ _______ _______ _____ _____    ______ ____
ROOT
ATOM      1  C   LIG    1       30.495 -19.643   8.138  0.00  0.00    +0.080 A 
ATOM      2  C   LIG    1       29.665 -20.646   7.588  0.00  0.00    +0.045 A 
ATOM      3  C   LIG    1       29.845 -21.963   8.054  0.00  0.00    +0.024 A 
ATOM      4  C   LIG    1       30.756 -22.279   9.059  0.00  0.00    +0.002 A 
ATOM      5  C   LIG    1       31.519 -21.276   9.639  0.00  0.00    +0.001 A 
ATOM      6  C   LIG    1       31.397 -19.967   9.177  0.00  0.00    +0.017 A 
ENDROOT
BRANCH   1   8
ATOM      7  O   LIG    1       30.030 -17.891   6.555  0.00  0.00    -0.245 OA
ATOM      8  C   LIG    1       30.520 -18.249   7.597  0.00  0.00    +0.341 C 
BRANCH   8   9
ATOM      9  O   LIG    1       31.358 -17.512   8.389  0.00  0.00    -0.458 OA
BRANCH   9  10
ATOM     10  C   LIG    1       30.742 -16.741   9.434  0.00  0.00    +0.266 C 
BRANCH  10  11
ATOM     11  C   LIG    1       31.575 -16.754  10.719  0.00  0.00    +0.177 C 
BRANCH  11  12
ATOM     12  O   LIG    1       30.904 -16.097  11.805  0.00  0.00    -0.386 OA
ATOM     13  H   LIG    1       31.376 -15.266  11.999  0.00  0.00    +0.210 HD
ENDBRANCH  11  12
BRANCH  11  14
ATOM     14  C   LIG    1       32.908 -16.034  10.478  0.00  0.00    +0.190 C 
BRANCH  14  15
ATOM     15  O   LIG    1       32.900 -15.396   9.205  0.00  0.00    -0.392 OA
ATOM     16  H   LIG    1       32.187 -15.829   8.694  0.00  0.00    +0.209 HD
ENDBRANCH  14  15
ENDBRANCH  11  14
ENDBRANCH  10  11
ENDBRANCH   9  10
ENDBRANCH   8   9
ENDBRANCH   1   8
BRANCH   2  17
ATOM     17  N   LIG    1       28.637 -20.425   6.639  0.00  0.00    -0.313 N 
ATOM     18  H   LIG    1       28.888 -19.808   5.869  0.00  0.00    +0.152 HD
BRANCH  17  19
ATOM     19  C   LIG    1       27.240 -20.713   6.743  0.00  0.00    +0.042 A 
ATOM     20  C   LIG    1       26.319 -20.340   5.719  0.00  0.00    +0.022 A 
ATOM     21  C   LIG    1       26.706 -19.753   4.491  0.00  0.00    +0.012 A 
ATOM     22  C   LIG    1       25.764 -19.302   3.569  0.00  0.00    +0.001 A 
ATOM     23  C   LIG    1       24.416 -19.433   3.858  0.00  0.00    +0.014 A 
ATOM     24  C   LIG    1       23.996 -20.071   5.042  0.00  0.00    +0.081 A 
ATOM     25  C   LIG    1       24.932 -20.569   5.949  0.00  0.00    +0.084 A 
ATOM     26  N   LIG    1       24.503 -21.250   7.021  0.00  0.00    -0.254 NA
ATOM     27  C   LIG    1       25.396 -21.684   7.924  0.00  0.00    +0.113 A 
ATOM     28  C   LIG    1       26.745 -21.420   7.846  0.00  0.00    +0.043 A 
BRANCH  24  29
ATOM     29  C   LIG    1       22.511 -20.147   5.296  0.00  0.00    +0.419 C 
ATOM     30  F   LIG    1       21.806 -19.383   4.409  0.00  0.00    -0.166 F 
ATOM     31  F   LIG    1       22.196 -19.633   6.524  0.00  0.00    -0.166 F 
ATOM     32  F   LIG    1       21.921 -21.372   5.266  0.00  0.00    -0.166 F 
ENDBRANCH  24  29
ENDBRANCH  17  19
ENDBRANCH   2  17
TORSDOF 10
ENDMDL
MODEL 6
REMARK VINA RESULT:      -7.1      3.980      6.443
REMARK  Name = *****
REMARK                            x       y       z     vdW  Elec       q    Type
REMARK                         _______ _______ _______ _____ _____    ______ ____
ROOT
ATOM      1  C   LIG    1       28.187 -20.950   7.358  0.00  0.00    +0.080 A 
ATOM      2  C   LIG    1       28.159 -20.320   6.094  0.00  0.00    +0.045 A 
ATOM      3  C   LIG    1       29.195 -19.411   5.800  0.00  0.00    +0.024 A 
ATOM      4  C   LIG    1       30.248 -19.174   6.680  0.00  0.00    +0.002 A 
ATOM      5  C   LIG    1       30.301 -19.848   7.891  0.00  0.00    +0.001 A 
ATOM      6  C   LIG    1       29.274 -20.725   8.234  0.00  0.00    +0.017 A 
ENDROOT
BRANCH   1   8
ATOM      7  O   LIG    1       26.532 -21.705   8.934  0.00  0.00    -0.245 OA
ATOM      8  C   LIG    1       27.053 -21.792   7.850  0.00  0.00    +0.341 C 
BRANCH   8   9
ATOM      9  O   LIG    1       26.853 -22.792   6.937  0.00  0.00    -0.458 OA
BRANCH   9  10
ATOM     10  C   LIG    1       25.786 -23.713   7.216  0.00  0.00    +0.266 C 
BRANCH  10  11
ATOM     11  C   LIG    1       25.412 -24.543   5.985  0.00  0.00    +0.177 C 
BRANCH  11  12
ATOM     12  O   LIG    1       25.096 -23.718   4.852  0.00  0.00    -0.386 OA
ATOM     13  H   LIG    1       25.763 -23.008   4.796  0.00  0.00    +0.210 HD
ENDBRANCH  11  12
BRANCH  11  14
ATOM     14  C   LIG    1       24.185 -25.409   6.299  0.00  0.00    +0.190 C 
BRANCH  14  15
ATOM     15  O   LIG    1       23.047 -24.585   6.529  0.00  0.00    -0.392 OA
ATOM     16  H   LIG    1       22.334 -24.953   5.971  0.00  0.00    +0.209 HD
ENDBRANCH  14  15
ENDBRANCH  11  14
ENDBRANCH  10  11
ENDBRANCH   9  10
ENDBRANCH   8   9
ENDBRANCH   1   8
BRANCH   2  17
ATOM     17  N   LIG    1       27.197 -20.562   5.082  0.00  0.00    -0.313 N 
ATOM     18  H   LIG    1       27.382 -21.375   4.497  0.00  0.00    +0.152 HD
BRANCH  17  19
ATOM     19  C   LIG    1       26.171 -19.695   4.592  0.00  0.00    +0.042 A 
ATOM     20  C   LIG    1       24.799 -19.886   4.939  0.00  0.00    +0.022 A 
ATOM     21  C   LIG    1       24.350 -20.866   5.855  0.00  0.00    +0.012 A 
ATOM     22  C   LIG    1       22.994 -21.091   6.076  0.00  0.00    +0.001 A 
ATOM     23  C   LIG    1       22.060 -20.335   5.387  0.00  0.00    +0.014 A 
ATOM     24  C   LIG    1       22.472 -19.307   4.516  0.00  0.00    +0.081 A 
ATOM     25  C   LIG    1       23.829 -19.043   4.324  0.00  0.00    +0.084 A 
ATOM     26  N   LIG    1       24.189 -18.002   3.560  0.00  0.00    -0.254 NA
ATOM     27  C   LIG    1       25.492 -17.776   3.329  0.00  0.00    +0.113 A 
ATOM     28  C   LIG    1       26.498 -18.596   3.789  0.00  0.00    +0.043 A 
BRANCH  24  29
ATOM     29  C   LIG    1       21.395 -18.551   3.780  0.00  0.00    +0.419 C 
ATOM     30  F   LIG    1       21.694 -18.405   2.454  0.00  0.00    -0.166 F 
ATOM     31  F   LIG    1       21.283 -17.271   4.252  0.00  0.00    -0.166 F 
ATOM     32  F   LIG    1       20.131 -19.049   3.812  0.00  0.00    -0.166 F 
ENDBRANCH  24  29
ENDBRANCH  17  19
ENDBRANCH   2  17
TORSDOF 10
ENDMDL
MODEL 7
REMARK VINA RESULT:      -7.1      1.670      3.664
REMARK  Name = *****
REMARK                            x       y       z     vdW  Elec       q    Type
REMARK                         _______ _______ _______ _____ _____    ______ ____
ROOT
ATOM      1  C   LIG    1       24.039 -23.247   6.523  0.00  0.00    +0.080 A 
ATOM      2  C   LIG    1       25.431 -23.210   6.287  0.00  0.00    +0.045 A 
ATOM      3  C   LIG    1       26.101 -24.443   6.166  0.00  0.00    +0.024 A 
ATOM      4  C   LIG    1       25.428 -25.662   6.211  0.00  0.00    +0.002 A 
ATOM      5  C   LIG    1       24.052 -25.685   6.376  0.00  0.00    +0.001 A 
ATOM      6  C   LIG    1       23.360 -24.487   6.539  0.00  0.00    +0.017 A 
ENDROOT
BRANCH   1   8
ATOM      7  O   LIG    1       22.815 -21.725   7.930  0.00  0.00    -0.245 OA
ATOM      8  C   LIG    1       23.255 -22.014   6.845  0.00  0.00    +0.341 C 
BRANCH   8   9
ATOM      9  O   LIG    1       22.964 -21.387   5.663  0.00  0.00    -0.458 OA
BRANCH   9  10
ATOM     10  C   LIG    1       22.764 -19.966   5.723  0.00  0.00    +0.266 C 
BRANCH  10  11
ATOM     11  C   LIG    1       23.300 -19.262   4.473  0.00  0.00    +0.177 C 
BRANCH  11  12
ATOM     12  O   LIG    1       22.258 -18.608   3.731  0.00  0.00    -0.386 OA
ATOM     13  H   LIG    1       21.852 -17.932   4.305  0.00  0.00    +0.210 HD
ENDBRANCH  11  12
BRANCH  11  14
ATOM     14  C   LIG    1       23.969 -20.288   3.550  0.00  0.00    +0.190 C 
BRANCH  14  15
ATOM     15  O   LIG    1       25.322 -20.495   3.942  0.00  0.00    -0.392 OA
ATOM     16  H   LIG    1       25.772 -20.869   3.159  0.00  0.00    +0.209 HD
ENDBRANCH  14  15
ENDBRANCH  11  14
ENDBRANCH  10  11
ENDBRANCH   9  10
ENDBRANCH   8   9
ENDBRANCH   1   8
BRANCH   2  17
ATOM     17  N   LIG    1       26.200 -22.031   6.120  0.00  0.00    -0.313 N 
ATOM     18  H   LIG    1       26.558 -21.880   5.179  0.00  0.00    +0.152 HD
BRANCH  17  19
ATOM     19  C   LIG    1       26.768 -21.180   7.120  0.00  0.00    +0.042 A 
ATOM     20  C   LIG    1       27.890 -20.343   6.842  0.00  0.00    +0.022 A 
ATOM     21  C   LIG    1       28.468 -20.206   5.557  0.00  0.00    +0.012 A 
ATOM     22  C   LIG    1       29.631 -19.466   5.357  0.00  0.00    +0.001 A 
ATOM     23  C   LIG    1       30.235 -18.846   6.437  0.00  0.00    +0.014 A 
ATOM     24  C   LIG    1       29.650 -18.907   7.718  0.00  0.00    +0.081 A 
ATOM     25  C   LIG    1       28.459 -19.606   7.920  0.00  0.00    +0.084 A 
ATOM     26  N   LIG    1       27.880 -19.572   9.128  0.00  0.00    -0.254 NA
ATOM     27  C   LIG    1       26.764 -20.286   9.342  0.00  0.00    +0.113 A 
ATOM     28  C   LIG    1       26.198 -21.112   8.397  0.00  0.00    +0.043 A 
BRANCH  24  29
ATOM     29  C   LIG    1       30.385 -18.229   8.847  0.00  0.00    +0.419 C 
ATOM     30  F   LIG    1       29.672 -17.181   9.358  0.00  0.00    -0.166 F 
ATOM     31  F   LIG    1       31.555 -17.672   8.407  0.00  0.00    -0.166 F 
ATOM     32  F   LIG    1       30.738 -18.984   9.922  0.00  0.00    -0.166 F 
ENDBRANCH  24  29
ENDBRANCH  17  19
ENDBRANCH   2  17
TORSDOF 10
ENDMDL
