MODEL 1
REMARK VINA RESULT:      34.9      0.000      0.000
REMARK  Name = *****
REMARK                            x       y       z     vdW  Elec       q    Type
REMARK                         _______ _______ _______ _____ _____    ______ ____
ROOT
ATOM      1  C   LIG    1       24.157 -18.915   2.580  0.00  0.00    +0.107 C 
ENDROOT
BRANCH   1   2
ATOM      2  N   LIG    1       25.422 -19.079   3.296  0.00  0.00    -0.308 N 
ATOM      3  H   LIG    1       25.524 -18.549   4.157  0.00  0.00    +0.149 HD
ATOM      4  C   LIG    1       26.173 -20.239   3.239  0.00  0.00    +0.234 C 
ATOM      5  O   LIG    1       25.844 -21.233   2.594  0.00  0.00    -0.274 OA
BRANCH   4   6
ATOM      6  C   LIG    1       27.403 -20.233   4.156  0.00  0.00    +0.168 C 
BRANCH   6   7
ATOM      7  N   LIG    1       27.648 -18.821   4.394  0.00  0.00    -0.298 N 
ATOM      8  H   LIG    1       28.392 -18.522   5.008  0.00  0.00    +0.150 HD
ATOM      9  C   LIG    1       27.060 -17.871   3.582  0.00  0.00    +0.263 C 
ATOM     10  O   LIG    1       26.268 -18.140   2.712  0.00  0.00    -0.269 OA
BRANCH   9  11
ATOM     11  C   LIG    1       27.430 -16.466   3.894  0.00  0.00    +0.126 A 
ATOM     12  N   LIG    1       27.203 -15.518   2.955  0.00  0.00    -0.242 NA
ATOM     13  C   LIG    1       27.515 -14.247   3.282  0.00  0.00    +0.072 A 
ATOM     14  C   LIG    1       28.122 -13.920   4.521  0.00  0.00    +0.000 A 
ATOM     15  C   LIG    1       28.437 -12.590   4.838  0.00  0.00    +0.010 A 
ATOM     16  C   LIG    1       28.131 -11.566   3.949  0.00  0.00    +0.001 A 
ATOM     17  C   LIG    1       27.523 -11.869   2.735  0.00  0.00    +0.002 A 
ATOM     18  C   LIG    1       28.387 -14.943   5.434  0.00  0.00    +0.012 A 
ATOM     19  C   LIG    1       27.230 -13.201   2.412  0.00  0.00    +0.028 A 
ATOM     20  C   LIG    1       28.018 -16.242   5.128  0.00  0.00    +0.034 A 
ENDBRANCH   9  11
ENDBRANCH   6   7
BRANCH   6  21
ATOM     21  C   LIG    1       27.169 -20.944   5.492  0.00  0.00    +0.127 C 
BRANCH  21  22
ATOM     22  C   LIG    1       28.171 -20.457   6.508  0.00  0.00    +0.213 C 
ATOM     23  O   LIG    1       29.160 -21.064   6.848  0.00  0.00    -0.276 OA
ATOM     24  N   LIG    1       27.831 -19.239   7.048  0.00  0.00    -0.329 N 
ATOM     25  H   LIG    1       28.397 -18.936   7.828  0.00  0.00    +0.145 HD
ATOM     26  H   LIG    1       26.901 -18.856   6.965  0.00  0.00    +0.145 HD
ENDBRANCH  21  22
ENDBRANCH   6  21
ENDBRANCH   4   6
ENDBRANCH   1   2
BRANCH   1  27
ATOM     27  C   LIG    1       23.374 -17.580   2.865  0.00  0.00    +0.149 C 
BRANCH  27  28
ATOM     28  O   LIG    1       22.493 -17.881   3.964  0.00  0.00    -0.389 OA
ATOM     29  H   LIG    1       22.565 -18.838   4.126  0.00  0.00    +0.210 HD
ENDBRANCH  27  28
BRANCH  27  30
ATOM     30  C   LIG    1       24.220 -16.278   3.134  0.00  0.00    +0.118 C 
BRANCH  30  32
ATOM     31  C   LIG    1       23.452 -16.256   5.561  0.00  0.00    +0.143 C 
ATOM     32  N   LIG    1       24.551 -15.958   4.579  0.00  0.00    -0.289 NA
ATOM     33  C   LIG    1       24.789 -14.485   4.766  0.00  0.00    +0.089 C 
ATOM     34  C   LIG    1       23.590 -13.563   4.404  0.00  0.00    +0.006 C 
ATOM     35  C   LIG    1       22.269 -14.009   5.066  0.00  0.00    -0.005 C 
ATOM     36  C   LIG    1       22.034 -13.374   6.443  0.00  0.00    +0.004 C 
ATOM     37  C   LIG    1       22.125 -11.860   6.374  0.00  0.00    +0.000 C 
ATOM     38  C   LIG    1       23.520 -11.447   5.938  0.00  0.00    +0.000 C 
ATOM     39  C   LIG    1       23.890 -12.056   4.587  0.00  0.00    +0.005 C 
ATOM     40  C   LIG    1       22.137 -15.533   5.181  0.00  0.00    +0.032 C 
BRANCH  31  43
ATOM     41  N   LIG    1       23.931 -18.771   5.502  0.00  0.00    -0.309 N 
ATOM     42  H   LIG    1       24.773 -18.506   5.002  0.00  0.00    +0.149 HD
ATOM     43  C   LIG    1       23.138 -17.720   5.958  0.00  0.00    +0.231 C 
ATOM     44  O   LIG    1       22.279 -17.903   6.823  0.00  0.00    -0.274 OA
BRANCH  41  46
ATOM     45  C   LIG    1       22.627 -20.318   7.003  0.00  0.00    +0.031 C 
ATOM     46  C   LIG    1       23.881 -20.149   6.115  0.00  0.00    +0.026 C 
ATOM     47  C   LIG    1       23.843 -21.260   5.039  0.00  0.00    +0.031 C 
ATOM     48  C   LIG    1       25.072 -20.415   7.061  0.00  0.00    +0.031 C 
ENDBRANCH  41  46
ENDBRANCH  31  43
ENDBRANCH  30  32
ENDBRANCH  27  30
ENDBRANCH   1  27
BRANCH   1  49
ATOM     49  C   LIG    1       23.291 -20.214   2.574  0.00  0.00    +0.060 C 
BRANCH  49  50
ATOM     50  C   LIG    1       21.894 -20.173   3.145  0.00  0.00    -0.045 A 
ATOM     51  C   LIG    1       20.986 -19.171   2.784  0.00  0.00    +0.003 A 
ATOM     52  C   LIG    1       19.731 -19.098   3.400  0.00  0.00    +0.000 A 
ATOM     53  C   LIG    1       19.359 -20.041   4.356  0.00  0.00    +0.000 A 
ATOM     54  C   LIG    1       20.230 -21.071   4.684  0.00  0.00    +0.000 A 
ATOM     55  C   LIG    1       21.504 -21.099   4.120  0.00  0.00    +0.003 A 
ENDBRANCH  49  50
ENDBRANCH   1  49
TORSDOF 14
ENDMDL
MODEL 2
REMARK VINA RESULT:      36.7      2.211      6.093
REMARK  Name = *****
REMARK                            x       y       z     vdW  Elec       q    Type
REMARK                         _______ _______ _______ _____ _____    ______ ____
ROOT
ATOM      1  C   LIG    1       23.861 -15.355   2.518  0.00  0.00    +0.107 C 
ENDROOT
BRANCH   1   2
ATOM      2  N   LIG    1       25.064 -14.797   3.135  0.00  0.00    -0.308 N 
ATOM      3  H   LIG    1       25.947 -15.030   2.689  0.00  0.00    +0.149 HD
ATOM      4  C   LIG    1       25.066 -13.605   3.836  0.00  0.00    +0.234 C 
ATOM      5  O   LIG    1       24.066 -12.907   3.995  0.00  0.00    -0.274 OA
BRANCH   4   6
ATOM      6  C   LIG    1       26.457 -13.154   4.299  0.00  0.00    +0.168 C 
BRANCH   6   7
ATOM      7  N   LIG    1       27.008 -14.339   4.935  0.00  0.00    -0.298 N 
ATOM      8  H   LIG    1       26.801 -14.550   5.901  0.00  0.00    +0.150 HD
ATOM      9  C   LIG    1       27.590 -15.329   4.169  0.00  0.00    +0.263 C 
ATOM     10  O   LIG    1       27.747 -15.238   2.976  0.00  0.00    -0.269 OA
BRANCH   9  11
ATOM     11  C   LIG    1       28.067 -16.512   4.931  0.00  0.00    +0.126 A 
ATOM     12  N   LIG    1       27.655 -17.740   4.538  0.00  0.00    -0.242 NA
ATOM     13  C   LIG    1       28.136 -18.795   5.226  0.00  0.00    +0.072 A 
ATOM     14  C   LIG    1       28.974 -18.632   6.358  0.00  0.00    +0.000 A 
ATOM     15  C   LIG    1       29.462 -19.746   7.057  0.00  0.00    +0.010 A 
ATOM     16  C   LIG    1       29.150 -21.033   6.632  0.00  0.00    +0.001 A 
ATOM     17  C   LIG    1       28.340 -21.209   5.515  0.00  0.00    +0.002 A 
ATOM     18  C   LIG    1       29.326 -17.341   6.757  0.00  0.00    +0.012 A 
ATOM     19  C   LIG    1       27.836 -20.095   4.832  0.00  0.00    +0.028 A 
ATOM     20  C   LIG    1       28.882 -16.255   6.021  0.00  0.00    +0.034 A 
ENDBRANCH   9  11
ENDBRANCH   6   7
BRANCH   6  21
ATOM     21  C   LIG    1       27.370 -12.720   3.149  0.00  0.00    +0.127 C 
BRANCH  21  22
ATOM     22  C   LIG    1       28.807 -12.749   3.603  0.00  0.00    +0.213 C 
ATOM     23  O   LIG    1       29.455 -13.755   3.786  0.00  0.00    -0.276 OA
ATOM     24  N   LIG    1       29.320 -11.493   3.826  0.00  0.00    -0.329 N 
ATOM     25  H   LIG    1       30.231 -11.465   4.259  0.00  0.00    +0.145 HD
ATOM     26  H   LIG    1       28.727 -10.682   3.924  0.00  0.00    +0.145 HD
ENDBRANCH  21  22
ENDBRANCH   6  21
ENDBRANCH   4   6
ENDBRANCH   1   2
BRANCH   1  27
ATOM     27  C   LIG    1       22.546 -15.275   3.379  0.00  0.00    +0.149 C 
BRANCH  27  28
ATOM     28  O   LIG    1       21.955 -14.001   3.059  0.00  0.00    -0.389 OA
ATOM     29  H   LIG    1       21.313 -13.806   3.765  0.00  0.00    +0.210 HD
ENDBRANCH  27  28
BRANCH  27  30
ATOM     30  C   LIG    1       21.507 -16.453   3.240  0.00  0.00    +0.118 C 
BRANCH  30  32
ATOM     31  C   LIG    1       21.588 -16.649   5.777  0.00  0.00    +0.143 C 
ATOM     32  N   LIG    1       20.826 -16.923   4.510  0.00  0.00    -0.289 NA
ATOM     33  C   LIG    1       20.670 -18.418   4.519  0.00  0.00    +0.089 C 
ATOM     34  C   LIG    1       21.995 -19.228   4.439  0.00  0.00    +0.006 C 
ATOM     35  C   LIG    1       23.045 -18.764   5.471  0.00  0.00    -0.005 C 
ATOM     36  C   LIG    1       22.952 -19.506   6.811  0.00  0.00    +0.004 C 
ATOM     37  C   LIG    1       23.010 -21.010   6.612  0.00  0.00    +0.000 C 
ATOM     38  C   LIG    1       21.826 -21.467   5.778  0.00  0.00    +0.000 C 
ATOM     39  C   LIG    1       21.785 -20.761   4.425  0.00  0.00    +0.005 C 
ATOM     40  C   LIG    1       23.013 -17.251   5.726  0.00  0.00    +0.032 C 
BRANCH  31  43
ATOM     41  N   LIG    1       22.727 -14.371   6.043  0.00  0.00    -0.309 N 
ATOM     42  H   LIG    1       23.378 -14.717   5.346  0.00  0.00    +0.149 HD
ATOM     43  C   LIG    1       21.659 -15.210   6.348  0.00  0.00    +0.231 C 
ATOM     44  O   LIG    1       20.661 -14.781   6.932  0.00  0.00    -0.274 OA
BRANCH  41  46
ATOM     45  C   LIG    1       22.709 -12.100   4.954  0.00  0.00    +0.031 C 
ATOM     46  C   LIG    1       22.684 -12.881   6.286  0.00  0.00    +0.026 C 
ATOM     47  C   LIG    1       21.409 -12.457   7.051  0.00  0.00    +0.031 C 
ATOM     48  C   LIG    1       23.920 -12.377   7.062  0.00  0.00    +0.031 C 
ENDBRANCH  41  46
ENDBRANCH  31  43
ENDBRANCH  30  32
ENDBRANCH  27  30
ENDBRANCH   1  27
BRANCH   1  49
ATOM     49  C   LIG    1       24.121 -16.724   1.814  0.00  0.00    +0.060 C 
BRANCH  49  50
ATOM     50  C   LIG    1       24.502 -17.923   2.649  0.00  0.00    -0.045 A 
ATOM     51  C   LIG    1       25.230 -17.786   3.837  0.00  0.00    +0.003 A 
ATOM     52  C   LIG    1       25.654 -18.918   4.540  0.00  0.00    +0.000 A 
ATOM     53  C   LIG    1       25.330 -20.195   4.085  0.00  0.00    +0.000 A 
ATOM     54  C   LIG    1       24.563 -20.342   2.938  0.00  0.00    +0.000 A 
ATOM     55  C   LIG    1       24.203 -19.216   2.203  0.00  0.00    +0.003 A 
ENDBRANCH  49  50
ENDBRANCH   1  49
TORSDOF 14
ENDMDL
MODEL 3
REMARK VINA RESULT:      37.4      2.081      6.587
REMARK  Name = *****
REMARK                            x       y       z     vdW  Elec       q    Type
REMARK                         _______ _______ _______ _____ _____    ______ ____
ROOT
ATOM      1  C   LIG    1       26.125 -15.844   2.798  0.00  0.00    +0.107 C 
ENDROOT
BRANCH   1   2
ATOM      2  N   LIG    1       24.772 -15.289   2.837  0.00  0.00    -0.308 N 
ATOM      3  H   LIG    1       24.090 -15.803   3.388  0.00  0.00    +0.149 HD
ATOM      4  C   LIG    1       24.510 -13.937   2.707  0.00  0.00    +0.234 C 
ATOM      5  O   LIG    1       25.384 -13.085   2.559  0.00  0.00    -0.274 OA
BRANCH   4   6
ATOM      6  C   LIG    1       23.033 -13.566   2.892  0.00  0.00    +0.168 C 
BRANCH   6   7
ATOM      7  N   LIG    1       22.378 -14.849   3.085  0.00  0.00    -0.298 N 
ATOM      8  H   LIG    1       21.554 -15.093   2.554  0.00  0.00    +0.150 HD
ATOM      9  C   LIG    1       23.017 -15.854   3.783  0.00  0.00    +0.263 C 
ATOM     10  O   LIG    1       24.084 -15.708   4.329  0.00  0.00    -0.269 OA
BRANCH   9  11
ATOM     11  C   LIG    1       22.266 -17.134   3.866  0.00  0.00    +0.126 A 
ATOM     12  N   LIG    1       22.656 -18.049   4.783  0.00  0.00    -0.242 NA
ATOM     13  C   LIG    1       21.931 -19.185   4.860  0.00  0.00    +0.072 A 
ATOM     14  C   LIG    1       20.857 -19.448   3.974  0.00  0.00    +0.000 A 
ATOM     15  C   LIG    1       20.117 -20.636   4.073  0.00  0.00    +0.010 A 
ATOM     16  C   LIG    1       20.413 -21.565   5.065  0.00  0.00    +0.001 A 
ATOM     17  C   LIG    1       21.456 -21.314   5.951  0.00  0.00    +0.002 A 
ATOM     18  C   LIG    1       20.529 -18.494   3.007  0.00  0.00    +0.012 A 
ATOM     19  C   LIG    1       22.206 -20.137   5.835  0.00  0.00    +0.028 A 
ATOM     20  C   LIG    1       21.232 -17.302   2.960  0.00  0.00    +0.034 A 
ENDBRANCH   9  11
ENDBRANCH   6   7
BRANCH   6  21
ATOM     21  C   LIG    1       22.778 -12.673   4.110  0.00  0.00    +0.127 C 
BRANCH  21  22
ATOM     22  C   LIG    1       23.934 -12.783   5.071  0.00  0.00    +0.213 C 
ATOM     23  O   LIG    1       24.050 -13.639   5.918  0.00  0.00    -0.276 OA
ATOM     24  N   LIG    1       24.856 -11.775   4.911  0.00  0.00    -0.329 N 
ATOM     25  H   LIG    1       25.575 -11.728   5.618  0.00  0.00    +0.145 HD
ATOM     26  H   LIG    1       24.645 -10.933   4.397  0.00  0.00    +0.145 HD
ENDBRANCH  21  22
ENDBRANCH   6  21
ENDBRANCH   4   6
ENDBRANCH   1   2
BRANCH   1  27
ATOM     27  C   LIG    1       27.258 -14.861   2.324  0.00  0.00    +0.149 C 
BRANCH  27  28
ATOM     28  O   LIG    1       27.036 -13.639   3.056  0.00  0.00    -0.389 OA
ATOM     29  H   LIG    1       27.472 -12.930   2.552  0.00  0.00    +0.210 HD
ENDBRANCH  27  28
BRANCH  27  30
ATOM     30  C   LIG    1       28.752 -15.352   2.446  0.00  0.00    +0.118 C 
BRANCH  30  32
ATOM     31  C   LIG    1       28.759 -15.950   4.921  0.00  0.00    +0.143 C 
ATOM     32  N   LIG    1       29.419 -15.197   3.799  0.00  0.00    -0.289 NA
ATOM     33  C   LIG    1       29.369 -13.770   4.267  0.00  0.00    +0.089 C 
ATOM     34  C   LIG    1       27.943 -13.173   4.441  0.00  0.00    +0.006 C 
ATOM     35  C   LIG    1       27.014 -14.075   5.282  0.00  0.00    -0.005 C 
ATOM     36  C   LIG    1       27.066 -13.770   6.784  0.00  0.00    +0.004 C 
ATOM     37  C   LIG    1       26.794 -12.301   7.058  0.00  0.00    +0.000 C 
ATOM     38  C   LIG    1       27.866 -11.448   6.403  0.00  0.00    +0.000 C 
ATOM     39  C   LIG    1       27.941 -11.695   4.899  0.00  0.00    +0.005 C 
ATOM     40  C   LIG    1       27.264 -15.572   5.058  0.00  0.00    +0.032 C 
BRANCH  31  43
ATOM     41  N   LIG    1       28.450 -18.181   6.139  0.00  0.00    -0.309 N 
ATOM     42  H   LIG    1       27.918 -17.637   6.810  0.00  0.00    +0.149 HD
ATOM     43  C   LIG    1       28.911 -17.489   5.022  0.00  0.00    +0.231 C 
ATOM     44  O   LIG    1       29.290 -18.090   4.015  0.00  0.00    -0.274 OA
BRANCH  41  46
ATOM     45  C   LIG    1       28.127 -20.229   4.709  0.00  0.00    +0.031 C 
ATOM     46  C   LIG    1       28.267 -19.680   6.146  0.00  0.00    +0.026 C 
ATOM     47  C   LIG    1       29.460 -20.406   6.809  0.00  0.00    +0.031 C 
ATOM     48  C   LIG    1       26.966 -20.108   6.859  0.00  0.00    +0.031 C 
ENDBRANCH  41  46
ENDBRANCH  31  43
ENDBRANCH  30  32
ENDBRANCH  27  30
ENDBRANCH   1  27
BRANCH   1  49
ATOM     49  C   LIG    1       26.174 -17.275   2.175  0.00  0.00    +0.060 C 
BRANCH  49  50
ATOM     50  C   LIG    1       25.581 -18.434   2.941  0.00  0.00    -0.045 A 
ATOM     51  C   LIG    1       25.530 -18.437   4.340  0.00  0.00    +0.003 A 
ATOM     52  C   LIG    1       25.066 -19.564   5.028  0.00  0.00    +0.000 A 
ATOM     53  C   LIG    1       24.617 -20.683   4.328  0.00  0.00    +0.000 A 
ATOM     54  C   LIG    1       24.612 -20.671   2.941  0.00  0.00    +0.000 A 
ATOM     55  C   LIG    1       25.141 -19.576   2.261  0.00  0.00    +0.003 A 
ENDBRANCH  49  50
ENDBRANCH   1  49
TORSDOF 14
ENDMDL
