MODEL 1
REMARK VINA RESULT:      -2.5      0.000      0.000
REMARK  Name = *****
REMARK                            x       y       z     vdW  Elec       q    Type
REMARK                         _______ _______ _______ _____ _____    ______ ____
ROOT
ATOM      1  C   LIG    1       26.187 -15.831   3.327  0.00  0.00    +0.106 C 
ENDROOT
BRANCH   1   5
ATOM      2  C   LIG    1       23.185 -18.931   4.023  0.00  0.00    +0.008 A 
ATOM      3  C   LIG    1       22.935 -17.607   4.347  0.00  0.00    +0.015 A 
ATOM      4  C   LIG    1       23.919 -16.609   4.214  0.00  0.00    +0.006 A 
ATOM      5  C   LIG    1       25.176 -16.939   3.633  0.00  0.00    -0.030 A 
ATOM      6  C   LIG    1       25.434 -18.258   3.349  0.00  0.00    +0.006 A 
ATOM      7  C   LIG    1       24.482 -19.264   3.567  0.00  0.00    +0.015 A 
BRANCH   2   8
ATOM      8  S   LIG    1       21.855 -20.137   4.089  0.00  0.00    -0.125 S 
BRANCH   8   9
ATOM      9  C   LIG    1       22.356 -21.283   5.436  0.00  0.00    +0.074 C 
BRANCH   9  10
ATOM     10  C   LIG    1       23.126 -20.607   6.577  0.00  0.00    +0.011 C 
BRANCH  10  12
ATOM     11  C   LIG    1       25.639 -20.655   6.903  0.00  0.00    +0.004 C 
ATOM     12  C   LIG    1       24.332 -21.417   7.062  0.00  0.00    -0.003 C 
ENDBRANCH  10  12
ENDBRANCH   9  10
ENDBRANCH   8   9
ENDBRANCH   2   8
ENDBRANCH   1   5
BRANCH   1  13
ATOM     13  C   LIG    1       25.414 -14.492   3.228  0.00  0.00    -0.030 A 
ATOM     14  C   LIG    1       24.857 -13.915   4.389  0.00  0.00    +0.005 A 
ATOM     15  C   LIG    1       24.171 -12.700   4.340  0.00  0.00    +0.000 A 
ATOM     16  C   LIG    1       24.017 -12.034   3.128  0.00  0.00    +0.000 A 
ATOM     17  C   LIG    1       24.573 -12.571   1.974  0.00  0.00    +0.000 A 
ATOM     18  C   LIG    1       25.254 -13.782   2.021  0.00  0.00    +0.005 A 
ENDBRANCH   1  13
BRANCH   1  19
ATOM     19  S   LIG    1       27.583 -15.733   4.601  0.00  0.00    -0.147 S 
BRANCH  19  20
ATOM     20  C   LIG    1       28.609 -17.226   4.379  0.00  0.00    +0.085 C 
BRANCH  20  21
ATOM     21  C   LIG    1       29.169 -17.866   5.657  0.00  0.00    +0.094 C 
BRANCH  21  22
ATOM     22  N   LIG    1       28.518 -19.101   6.051  0.00  0.00    -0.308 NA
ATOM     23  C   LIG    1       29.265 -19.842   7.054  0.00  0.00    +0.104 C 
ATOM     24  C   LIG    1       28.029 -19.914   4.950  0.00  0.00    +0.104 C 
ENDBRANCH  21  22
ENDBRANCH  20  21
ENDBRANCH  19  20
ENDBRANCH   1  19
TORSDOF 10
ENDMDL
MODEL 2
REMARK VINA RESULT:      -2.3      2.170      3.339
REMARK  Name = *****
REMARK                            x       y       z     vdW  Elec       q    Type
REMARK                         _______ _______ _______ _____ _____    ______ ____
ROOT
ATOM      1  C   LIG    1       25.923 -15.439   3.076  0.00  0.00    +0.106 C 
ENDROOT
BRANCH   1   5
ATOM      2  C   LIG    1       23.337 -18.756   4.264  0.00  0.00    +0.008 A 
ATOM      3  C   LIG    1       24.583 -18.986   3.703  0.00  0.00    +0.015 A 
ATOM      4  C   LIG    1       25.393 -17.934   3.232  0.00  0.00    +0.006 A 
ATOM      5  C   LIG    1       24.975 -16.588   3.429  0.00  0.00    -0.030 A 
ATOM      6  C   LIG    1       23.725 -16.366   3.950  0.00  0.00    +0.006 A 
ATOM      7  C   LIG    1       22.883 -17.418   4.336  0.00  0.00    +0.015 A 
BRANCH   2   8
ATOM      8  S   LIG    1       22.405 -20.123   4.966  0.00  0.00    -0.125 S 
BRANCH   8   9
ATOM      9  C   LIG    1       23.462 -20.724   6.344  0.00  0.00    +0.074 C 
BRANCH   9  10
ATOM     10  C   LIG    1       24.932 -20.928   5.961  0.00  0.00    +0.011 C 
BRANCH  10  12
ATOM     11  C   LIG    1       27.348 -20.455   6.563  0.00  0.00    +0.004 C 
ATOM     12  C   LIG    1       25.912 -20.512   7.062  0.00  0.00    -0.003 C 
ENDBRANCH  10  12
ENDBRANCH   9  10
ENDBRANCH   8   9
ENDBRANCH   2   8
ENDBRANCH   1   5
BRANCH   1  13
ATOM     13  C   LIG    1       25.147 -14.109   3.246  0.00  0.00    -0.030 A 
ATOM     14  C   LIG    1       24.935 -13.272   2.130  0.00  0.00    +0.005 A 
ATOM     15  C   LIG    1       24.225 -12.075   2.241  0.00  0.00    +0.000 A 
ATOM     16  C   LIG    1       23.714 -11.680   3.474  0.00  0.00    +0.000 A 
ATOM     17  C   LIG    1       23.892 -12.496   4.584  0.00  0.00    +0.000 A 
ATOM     18  C   LIG    1       24.601 -13.685   4.475  0.00  0.00    +0.005 A 
ENDBRANCH   1  13
BRANCH   1  19
ATOM     19  S   LIG    1       27.512 -15.450   4.103  0.00  0.00    -0.147 S 
BRANCH  19  20
ATOM     20  C   LIG    1       28.573 -14.114   3.452  0.00  0.00    +0.085 C 
BRANCH  20  21
ATOM     21  C   LIG    1       28.089 -12.677   3.698  0.00  0.00    +0.094 C 
BRANCH  21  22
ATOM     22  N   LIG    1       28.100 -12.265   5.088  0.00  0.00    -0.308 NA
ATOM     23  C   LIG    1       29.370 -11.691   5.500  0.00  0.00    +0.104 C 
ATOM     24  C   LIG    1       27.554 -13.237   6.019  0.00  0.00    +0.104 C 
ENDBRANCH  21  22
ENDBRANCH  20  21
ENDBRANCH  19  20
ENDBRANCH   1  19
TORSDOF 10
ENDMDL
MODEL 3
REMARK VINA RESULT:      -1.8      1.871      6.954
REMARK  Name = *****
REMARK                            x       y       z     vdW  Elec       q    Type
REMARK                         _______ _______ _______ _____ _____    ______ ____
ROOT
ATOM      1  C   LIG    1       26.307 -19.079   3.510  0.00  0.00    +0.106 C 
ENDROOT
BRANCH   1   5
ATOM      2  C   LIG    1       26.676 -14.745   3.949  0.00  0.00    +0.008 A 
ATOM      3  C   LIG    1       25.582 -15.309   3.313  0.00  0.00    +0.015 A 
ATOM      4  C   LIG    1       25.487 -16.696   3.083  0.00  0.00    +0.006 A 
ATOM      5  C   LIG    1       26.488 -17.561   3.606  0.00  0.00    -0.030 A 
ATOM      6  C   LIG    1       27.588 -16.996   4.201  0.00  0.00    +0.006 A 
ATOM      7  C   LIG    1       27.722 -15.609   4.350  0.00  0.00    +0.015 A 
BRANCH   2   8
ATOM      8  S   LIG    1       26.683 -12.990   4.332  0.00  0.00    -0.125 S 
BRANCH   8   9
ATOM      9  C   LIG    1       25.060 -12.704   5.148  0.00  0.00    +0.074 C 
BRANCH   9  10
ATOM     10  C   LIG    1       24.108 -11.808   4.346  0.00  0.00    +0.011 C 
BRANCH  10  12
ATOM     11  C   LIG    1       24.386 -11.635   1.833  0.00  0.00    +0.004 C 
ATOM     12  C   LIG    1       23.731 -12.390   2.980  0.00  0.00    -0.003 C 
ENDBRANCH  10  12
ENDBRANCH   9  10
ENDBRANCH   8   9
ENDBRANCH   2   8
ENDBRANCH   1   5
BRANCH   1  13
ATOM     13  C   LIG    1       26.945 -19.718   4.769  0.00  0.00    -0.030 A 
ATOM     14  C   LIG    1       26.218 -20.667   5.519  0.00  0.00    +0.005 A 
ATOM     15  C   LIG    1       26.767 -21.278   6.647  0.00  0.00    +0.000 A 
ATOM     16  C   LIG    1       28.055 -20.950   7.061  0.00  0.00    +0.000 A 
ATOM     17  C   LIG    1       28.798 -20.033   6.329  0.00  0.00    +0.000 A 
ATOM     18  C   LIG    1       28.252 -19.423   5.207  0.00  0.00    +0.005 A 
ENDBRANCH   1  13
BRANCH   1  19
ATOM     19  S   LIG    1       24.498 -19.596   3.310  0.00  0.00    -0.147 S 
BRANCH  19  20
ATOM     20  C   LIG    1       23.531 -18.608   4.502  0.00  0.00    +0.085 C 
BRANCH  20  21
ATOM     21  C   LIG    1       22.356 -19.322   5.187  0.00  0.00    +0.094 C 
BRANCH  21  22
ATOM     22  N   LIG    1       22.633 -20.686   5.594  0.00  0.00    -0.308 NA
ATOM     23  C   LIG    1       23.155 -20.780   6.948  0.00  0.00    +0.104 C 
ATOM     24  C   LIG    1       23.357 -21.482   4.619  0.00  0.00    +0.104 C 
ENDBRANCH  21  22
ENDBRANCH  20  21
ENDBRANCH  19  20
ENDBRANCH   1  19
TORSDOF 10
ENDMDL
MODEL 4
REMARK VINA RESULT:      -1.7      1.865      6.969
REMARK  Name = *****
REMARK                            x       y       z     vdW  Elec       q    Type
REMARK                         _______ _______ _______ _____ _____    ______ ____
ROOT
ATOM      1  C   LIG    1       26.185 -19.077   3.519  0.00  0.00    +0.106 C 
ENDROOT
BRANCH   1   5
ATOM      2  C   LIG    1       26.133 -14.715   3.789  0.00  0.00    +0.008 A 
ATOM      3  C   LIG    1       24.955 -15.443   3.741  0.00  0.00    +0.015 A 
ATOM      4  C   LIG    1       24.949 -16.840   3.565  0.00  0.00    +0.006 A 
ATOM      5  C   LIG    1       26.185 -17.546   3.538  0.00  0.00    -0.030 A 
ATOM      6  C   LIG    1       27.349 -16.819   3.547  0.00  0.00    +0.006 A 
ATOM      7  C   LIG    1       27.350 -15.420   3.633  0.00  0.00    +0.015 A 
BRANCH   2   8
ATOM      8  S   LIG    1       26.085 -12.955   4.146  0.00  0.00    -0.125 S 
BRANCH   8   9
ATOM      9  C   LIG    1       25.348 -12.211   2.635  0.00  0.00    +0.074 C 
BRANCH   9  10
ATOM     10  C   LIG    1       23.900 -11.740   2.813  0.00  0.00    +0.011 C 
BRANCH  10  12
ATOM     11  C   LIG    1       24.227 -11.447   5.309  0.00  0.00    +0.004 C 
ATOM     12  C   LIG    1       23.339 -12.014   4.212  0.00  0.00    -0.003 C 
ENDBRANCH  10  12
ENDBRANCH   9  10
ENDBRANCH   8   9
ENDBRANCH   2   8
ENDBRANCH   1   5
BRANCH   1  13
ATOM     13  C   LIG    1       26.948 -19.572   4.773  0.00  0.00    -0.030 A 
ATOM     14  C   LIG    1       28.224 -19.050   5.070  0.00  0.00    +0.005 A 
ATOM     15  C   LIG    1       28.933 -19.458   6.201  0.00  0.00    +0.000 A 
ATOM     16  C   LIG    1       28.387 -20.406   7.062  0.00  0.00    +0.000 A 
ATOM     17  C   LIG    1       27.123 -20.921   6.802  0.00  0.00    +0.000 A 
ATOM     18  C   LIG    1       26.418 -20.518   5.675  0.00  0.00    +0.005 A 
ENDBRANCH   1  13
BRANCH   1  19
ATOM     19  S   LIG    1       24.444 -19.815   3.430  0.00  0.00    -0.147 S 
BRANCH  19  20
ATOM     20  C   LIG    1       23.377 -18.782   4.492  0.00  0.00    +0.085 C 
BRANCH  20  21
ATOM     21  C   LIG    1       22.785 -19.464   5.734  0.00  0.00    +0.094 C 
BRANCH  21  22
ATOM     22  N   LIG    1       22.787 -20.914   5.687  0.00  0.00    -0.308 NA
ATOM     23  C   LIG    1       21.668 -21.459   4.936  0.00  0.00    +0.104 C 
ATOM     24  C   LIG    1       23.025 -21.567   6.962  0.00  0.00    +0.104 C 
ENDBRANCH  21  22
ENDBRANCH  20  21
ENDBRANCH  19  20
ENDBRANCH   1  19
TORSDOF 10
ENDMDL
MODEL 5
REMARK VINA RESULT:      -1.4      2.193      3.781
REMARK  Name = *****
REMARK                            x       y       z     vdW  Elec       q    Type
REMARK                         _______ _______ _______ _____ _____    ______ ____
ROOT
ATOM      1  C   LIG    1       26.993 -16.047   3.265  0.00  0.00    +0.106 C 
ENDROOT
BRANCH   1   5
ATOM      2  C   LIG    1       25.725 -20.040   4.508  0.00  0.00    +0.008 A 
ATOM      3  C   LIG    1       26.910 -19.491   4.969  0.00  0.00    +0.015 A 
ATOM      4  C   LIG    1       27.380 -18.244   4.512  0.00  0.00    +0.006 A 
ATOM      5  C   LIG    1       26.571 -17.472   3.631  0.00  0.00    -0.030 A 
ATOM      6  C   LIG    1       25.417 -18.036   3.148  0.00  0.00    +0.006 A 
ATOM      7  C   LIG    1       24.997 -19.316   3.536  0.00  0.00    +0.015 A 
BRANCH   2   8
ATOM      8  S   LIG    1       25.110 -21.570   5.222  0.00  0.00    -0.125 S 
BRANCH   8   9
ATOM      9  C   LIG    1       23.644 -21.048   6.202  0.00  0.00    +0.074 C 
BRANCH   9  10
ATOM     10  C   LIG    1       22.472 -20.545   5.353  0.00  0.00    +0.011 C 
BRANCH  10  12
ATOM     11  C   LIG    1       21.642 -18.540   4.044  0.00  0.00    +0.004 C 
ATOM     12  C   LIG    1       22.380 -19.018   5.286  0.00  0.00    -0.003 C 
ENDBRANCH  10  12
ENDBRANCH   9  10
ENDBRANCH   8   9
ENDBRANCH   2   8
ENDBRANCH   1   5
BRANCH   1  13
ATOM     13  C   LIG    1       25.720 -15.164   3.231  0.00  0.00    -0.030 A 
ATOM     14  C   LIG    1       25.623 -14.107   2.300  0.00  0.00    +0.005 A 
ATOM     15  C   LIG    1       24.484 -13.304   2.228  0.00  0.00    +0.000 A 
ATOM     16  C   LIG    1       23.415 -13.530   3.090  0.00  0.00    +0.000 A 
ATOM     17  C   LIG    1       23.478 -14.577   4.001  0.00  0.00    +0.000 A 
ATOM     18  C   LIG    1       24.612 -15.376   4.076  0.00  0.00    +0.005 A 
ENDBRANCH   1  13
BRANCH   1  19
ATOM     19  S   LIG    1       28.297 -15.337   4.438  0.00  0.00    -0.147 S 
BRANCH  19  20
ATOM     20  C   LIG    1       28.571 -13.603   3.938  0.00  0.00    +0.085 C 
BRANCH  20  21
ATOM     21  C   LIG    1       27.844 -12.531   4.763  0.00  0.00    +0.094 C 
BRANCH  21  22
ATOM     22  N   LIG    1       26.622 -12.983   5.399  0.00  0.00    -0.308 NA
ATOM     23  C   LIG    1       25.575 -11.975   5.399  0.00  0.00    +0.104 C 
ATOM     24  C   LIG    1       26.808 -13.651   6.676  0.00  0.00    +0.104 C 
ENDBRANCH  21  22
ENDBRANCH  20  21
ENDBRANCH  19  20
ENDBRANCH   1  19
TORSDOF 10
ENDMDL
MODEL 6
REMARK VINA RESULT:      -1.3      2.042      5.923
REMARK  Name = *****
REMARK                            x       y       z     vdW  Elec       q    Type
REMARK                         _______ _______ _______ _____ _____    ______ ____
ROOT
ATOM      1  C   LIG    1       24.004 -18.830   4.716  0.00  0.00    +0.106 C 
ENDROOT
BRANCH   1   5
ATOM      2  C   LIG    1       24.946 -14.787   3.349  0.00  0.00    +0.008 A 
ATOM      3  C   LIG    1       23.792 -15.047   4.069  0.00  0.00    +0.015 A 
ATOM      4  C   LIG    1       23.426 -16.356   4.442  0.00  0.00    +0.006 A 
ATOM      5  C   LIG    1       24.312 -17.435   4.167  0.00  0.00    -0.030 A 
ATOM      6  C   LIG    1       25.435 -17.179   3.420  0.00  0.00    +0.006 A 
ATOM      7  C   LIG    1       25.751 -15.888   2.973  0.00  0.00    +0.015 A 
BRANCH   2   8
ATOM      8  S   LIG    1       25.430 -13.089   3.014  0.00  0.00    -0.125 S 
BRANCH   8   9
ATOM      9  C   LIG    1       27.235 -13.196   2.681  0.00  0.00    +0.074 C 
BRANCH   9  10
ATOM     10  C   LIG    1       28.114 -12.861   3.891  0.00  0.00    +0.011 C 
BRANCH  10  12
ATOM     11  C   LIG    1       26.834 -13.368   6.019  0.00  0.00    +0.004 C 
ATOM     12  C   LIG    1       27.927 -13.826   5.066  0.00  0.00    -0.003 C 
ENDBRANCH  10  12
ENDBRANCH   9  10
ENDBRANCH   8   9
ENDBRANCH   2   8
ENDBRANCH   1   5
BRANCH   1  13
ATOM     13  C   LIG    1       22.547 -19.186   4.331  0.00  0.00    -0.030 A 
ATOM     14  C   LIG    1       22.021 -20.452   4.665  0.00  0.00    +0.005 A 
ATOM     15  C   LIG    1       20.706 -20.801   4.351  0.00  0.00    +0.000 A 
ATOM     16  C   LIG    1       19.885 -19.896   3.686  0.00  0.00    +0.000 A 
ATOM     17  C   LIG    1       20.372 -18.635   3.364  0.00  0.00    +0.000 A 
ATOM     18  C   LIG    1       21.681 -18.288   3.674  0.00  0.00    +0.005 A 
ENDBRANCH   1  13
BRANCH   1  19
ATOM     19  S   LIG    1       25.222 -20.147   4.114  0.00  0.00    -0.147 S 
BRANCH  19  20
ATOM     20  C   LIG    1       25.758 -21.086   5.585  0.00  0.00    +0.085 C 
BRANCH  20  21
ATOM     21  C   LIG    1       26.728 -20.370   6.535  0.00  0.00    +0.094 C 
BRANCH  21  22
ATOM     22  N   LIG    1       28.123 -20.441   6.142  0.00  0.00    -0.308 NA
ATOM     23  C   LIG    1       28.933 -21.222   7.062  0.00  0.00    +0.104 C 
ATOM     24  C   LIG    1       28.715 -19.172   5.755  0.00  0.00    +0.104 C 
ENDBRANCH  21  22
ENDBRANCH  20  21
ENDBRANCH  19  20
ENDBRANCH   1  19
TORSDOF 10
ENDMDL
MODEL 7
REMARK VINA RESULT:      -0.6      2.239      7.244
REMARK  Name = *****
REMARK                            x       y       z     vdW  Elec       q    Type
REMARK                         _______ _______ _______ _____ _____    ______ ____
ROOT
ATOM      1  C   LIG    1       26.151 -19.391   4.306  0.00  0.00    +0.106 C 
ENDROOT
BRANCH   1   5
ATOM      2  C   LIG    1       26.337 -15.151   3.259  0.00  0.00    +0.008 A 
ATOM      3  C   LIG    1       27.465 -15.832   3.687  0.00  0.00    +0.015 A 
ATOM      4  C   LIG    1       27.408 -17.174   4.114  0.00  0.00    +0.006 A 
ATOM      5  C   LIG    1       26.183 -17.890   4.007  0.00  0.00    -0.030 A 
ATOM      6  C   LIG    1       25.060 -17.202   3.619  0.00  0.00    +0.006 A 
ATOM      7  C   LIG    1       25.103 -15.842   3.280  0.00  0.00    +0.015 A 
BRANCH   2   8
ATOM      8  S   LIG    1       26.491 -13.485   2.604  0.00  0.00    -0.125 S 
BRANCH   8   9
ATOM      9  C   LIG    1       24.817 -13.108   1.944  0.00  0.00    +0.074 C 
BRANCH   9  10
ATOM     10  C   LIG    1       23.830 -12.597   3.000  0.00  0.00    +0.011 C 
BRANCH  10  12
ATOM     11  C   LIG    1       23.692 -11.641   5.343  0.00  0.00    +0.004 C 
ATOM     12  C   LIG    1       24.474 -11.673   4.038  0.00  0.00    -0.003 C 
ENDBRANCH  10  12
ENDBRANCH   9  10
ENDBRANCH   8   9
ENDBRANCH   2   8
ENDBRANCH   1   5
BRANCH   1  13
ATOM     13  C   LIG    1       27.311 -19.709   5.282  0.00  0.00    -0.030 A 
ATOM     14  C   LIG    1       27.278 -20.892   6.051  0.00  0.00    +0.005 A 
ATOM     15  C   LIG    1       28.314 -21.222   6.926  0.00  0.00    +0.000 A 
ATOM     16  C   LIG    1       29.408 -20.372   7.062  0.00  0.00    +0.000 A 
ATOM     17  C   LIG    1       29.475 -19.211   6.302  0.00  0.00    +0.000 A 
ATOM     18  C   LIG    1       28.442 -18.881   5.432  0.00  0.00    +0.005 A 
ENDBRANCH   1  13
BRANCH   1  19
ATOM     19  S   LIG    1       24.487 -19.972   4.995  0.00  0.00    -0.147 S 
BRANCH  19  20
ATOM     20  C   LIG    1       23.422 -20.345   3.560  0.00  0.00    +0.085 C 
BRANCH  20  21
ATOM     21  C   LIG    1       22.595 -19.178   3.001  0.00  0.00    +0.094 C 
BRANCH  21  22
ATOM     22  N   LIG    1       21.584 -18.666   3.905  0.00  0.00    -0.308 NA
ATOM     23  C   LIG    1       20.266 -18.589   3.298  0.00  0.00    +0.104 C 
ATOM     24  C   LIG    1       21.970 -17.476   4.645  0.00  0.00    +0.104 C 
ENDBRANCH  21  22
ENDBRANCH  20  21
ENDBRANCH  19  20
ENDBRANCH   1  19
TORSDOF 10
ENDMDL
MODEL 8
REMARK VINA RESULT:      -0.4      2.598      7.220
REMARK  Name = *****
REMARK                            x       y       z     vdW  Elec       q    Type
REMARK                         _______ _______ _______ _____ _____    ______ ____
ROOT
ATOM      1  C   LIG    1       25.844 -19.878   4.585  0.00  0.00    +0.106 C 
ENDROOT
BRANCH   1   5
ATOM      2  C   LIG    1       25.721 -15.703   3.295  0.00  0.00    +0.008 A 
ATOM      3  C   LIG    1       24.557 -16.436   3.456  0.00  0.00    +0.015 A 
ATOM      4  C   LIG    1       24.579 -17.806   3.784  0.00  0.00    +0.006 A 
ATOM      5  C   LIG    1       25.823 -18.439   4.063  0.00  0.00    -0.030 A 
ATOM      6  C   LIG    1       26.975 -17.720   3.865  0.00  0.00    +0.006 A 
ATOM      7  C   LIG    1       26.953 -16.381   3.452  0.00  0.00    +0.015 A 
BRANCH   2   8
ATOM      8  S   LIG    1       25.632 -13.932   3.006  0.00  0.00    -0.125 S 
BRANCH   8   9
ATOM      9  C   LIG    1       25.846 -13.195   4.676  0.00  0.00    +0.074 C 
BRANCH   9  10
ATOM     10  C   LIG    1       27.220 -13.459   5.304  0.00  0.00    +0.011 C 
BRANCH  10  12
ATOM     11  C   LIG    1       29.159 -11.895   4.836  0.00  0.00    +0.004 C 
ATOM     12  C   LIG    1       28.389 -13.122   4.373  0.00  0.00    -0.003 C 
ENDBRANCH  10  12
ENDBRANCH   9  10
ENDBRANCH   8   9
ENDBRANCH   2   8
ENDBRANCH   1   5
BRANCH   1  13
ATOM     13  C   LIG    1       27.133 -20.065   5.423  0.00  0.00    -0.030 A 
ATOM     14  C   LIG    1       27.246 -21.161   6.304  0.00  0.00    +0.005 A 
ATOM     15  C   LIG    1       28.400 -21.372   7.060  0.00  0.00    +0.000 A 
ATOM     16  C   LIG    1       29.470 -20.487   6.962  0.00  0.00    +0.000 A 
ATOM     17  C   LIG    1       29.392 -19.411   6.086  0.00  0.00    +0.000 A 
ATOM     18  C   LIG    1       28.243 -19.199   5.335  0.00  0.00    +0.005 A 
ENDBRANCH   1  13
BRANCH   1  19
ATOM     19  S   LIG    1       24.299 -20.325   5.582  0.00  0.00    -0.147 S 
BRANCH  19  20
ATOM     20  C   LIG    1       22.907 -20.387   4.402  0.00  0.00    +0.085 C 
BRANCH  20  21
ATOM     21  C   LIG    1       21.644 -19.607   4.794  0.00  0.00    +0.094 C 
BRANCH  21  22
ATOM     22  N   LIG    1       21.085 -18.789   3.735  0.00  0.00    -0.308 NA
ATOM     23  C   LIG    1       21.300 -17.367   3.941  0.00  0.00    +0.104 C 
ATOM     24  C   LIG    1       19.729 -19.137   3.344  0.00  0.00    +0.104 C 
ENDBRANCH  21  22
ENDBRANCH  20  21
ENDBRANCH  19  20
ENDBRANCH   1  19
TORSDOF 10
ENDMDL
MODEL 9
REMARK VINA RESULT:      -0.3      2.897      5.018
REMARK  Name = *****
REMARK                            x       y       z     vdW  Elec       q    Type
REMARK                         _______ _______ _______ _____ _____    ______ ____
ROOT
ATOM      1  C   LIG    1       25.693 -14.347   3.562  0.00  0.00    +0.106 C 
ENDROOT
BRANCH   1   5
ATOM      2  C   LIG    1       26.467 -18.619   4.067  0.00  0.00    +0.008 A 
ATOM      3  C   LIG    1       27.457 -17.680   4.305  0.00  0.00    +0.015 A 
ATOM      4  C   LIG    1       27.255 -16.308   4.062  0.00  0.00    +0.006 A 
ATOM      5  C   LIG    1       25.968 -15.850   3.662  0.00  0.00    -0.030 A 
ATOM      6  C   LIG    1       25.002 -16.786   3.391  0.00  0.00    +0.006 A 
ATOM      7  C   LIG    1       25.234 -18.160   3.548  0.00  0.00    +0.015 A 
BRANCH   2   8
ATOM      8  S   LIG    1       26.735 -20.338   4.517  0.00  0.00    -0.125 S 
BRANCH   8   9
ATOM      9  C   LIG    1       25.414 -20.690   5.747  0.00  0.00    +0.074 C 
BRANCH   9  10
ATOM     10  C   LIG    1       24.125 -21.249   5.135  0.00  0.00    +0.011 C 
BRANCH  10  12
ATOM     11  C   LIG    1       22.513 -19.294   5.169  0.00  0.00    +0.004 C 
ATOM     12  C   LIG    1       22.853 -20.658   5.750  0.00  0.00    -0.003 C 
ENDBRANCH  10  12
ENDBRANCH   9  10
ENDBRANCH   8   9
ENDBRANCH   2   8
ENDBRANCH   1   5
BRANCH   1  13
ATOM     13  C   LIG    1       26.945 -13.596   4.079  0.00  0.00    -0.030 A 
ATOM     14  C   LIG    1       27.931 -13.163   3.167  0.00  0.00    +0.005 A 
ATOM     15  C   LIG    1       29.063 -12.466   3.595  0.00  0.00    +0.000 A 
ATOM     16  C   LIG    1       29.242 -12.190   4.947  0.00  0.00    +0.000 A 
ATOM     17  C   LIG    1       28.276 -12.588   5.863  0.00  0.00    +0.000 A 
ATOM     18  C   LIG    1       27.151 -13.284   5.439  0.00  0.00    +0.005 A 
ENDBRANCH   1  13
BRANCH   1  19
ATOM     19  S   LIG    1       25.228 -13.796   1.812  0.00  0.00    -0.147 S 
BRANCH  19  20
ATOM     20  C   LIG    1       24.783 -12.029   1.915  0.00  0.00    +0.085 C 
BRANCH  20  21
ATOM     21  C   LIG    1       23.774 -11.641   3.006  0.00  0.00    +0.094 C 
BRANCH  21  22
ATOM     22  N   LIG    1       23.974 -12.306   4.279  0.00  0.00    -0.308 NA
ATOM     23  C   LIG    1       23.246 -13.560   4.385  0.00  0.00    +0.104 C 
ATOM     24  C   LIG    1       23.856 -11.447   5.444  0.00  0.00    +0.104 C 
ENDBRANCH  21  22
ENDBRANCH  20  21
ENDBRANCH  19  20
ENDBRANCH   1  19
TORSDOF 10
ENDMDL
