MODEL 1
REMARK VINA RESULT:      -4.3      0.000      0.000
REMARK  Name = *****
REMARK                            x       y       z     vdW  Elec       q    Type
REMARK                         _______ _______ _______ _____ _____    ______ ____
ROOT
ATOM      1  C   LIG    1       24.429 -20.646   5.762  0.00  0.00    +0.048 A 
ATOM      2  C   LIG    1       25.174 -20.160   4.671  0.00  0.00    +0.064 A 
ATOM      3  C   LIG    1       24.505 -19.315   3.780  0.00  0.00    +0.135 A 
ATOM      4  N   LIG    1       23.194 -18.987   3.848  0.00  0.00    -0.261 NA
ATOM      5  C   LIG    1       22.519 -19.467   4.910  0.00  0.00    +0.112 A 
ATOM      6  C   LIG    1       23.090 -20.263   5.889  0.00  0.00    +0.044 A 
ENDROOT
BRANCH   1   7
ATOM      7  N   LIG    1       25.042 -21.321   6.836  0.00  0.00    -0.356 N 
ATOM      8  H   LIG    1       24.691 -22.255   6.997  0.00  0.00    +0.142 HD
ATOM      9  H   LIG    1       25.106 -20.774   7.688  0.00  0.00    +0.142 HD
ENDBRANCH   1   7
BRANCH   2  10
ATOM     10  N   LIG    1       26.570 -20.320   4.592  0.00  0.00    -0.355 N 
ATOM     11  H   LIG    1       27.065 -20.038   5.427  0.00  0.00    +0.142 HD
ATOM     12  H   LIG    1       26.860 -21.233   4.257  0.00  0.00    +0.142 HD
ENDBRANCH   2  10
TORSDOF 2
ENDMDL
MODEL 2
REMARK VINA RESULT:      -4.2      1.527      1.822
REMARK  Name = *****
REMARK                            x       y       z     vdW  Elec       q    Type
REMARK                         _______ _______ _______ _____ _____    ______ ____
ROOT
ATOM      1  C   LIG    1       25.630 -20.767   5.944  0.00  0.00    +0.048 A 
ATOM      2  C   LIG    1       25.064 -20.351   4.724  0.00  0.00    +0.064 A 
ATOM      3  C   LIG    1       23.688 -20.103   4.722  0.00  0.00    +0.135 A 
ATOM      4  N   LIG    1       22.857 -20.296   5.773  0.00  0.00    -0.261 NA
ATOM      5  C   LIG    1       23.439 -20.687   6.922  0.00  0.00    +0.112 A 
ATOM      6  C   LIG    1       24.800 -20.906   7.061  0.00  0.00    +0.044 A 
ENDROOT
BRANCH   1   7
ATOM      7  N   LIG    1       27.025 -20.837   6.129  0.00  0.00    -0.356 N 
ATOM      8  H   LIG    1       27.499 -19.946   6.072  0.00  0.00    +0.142 HD
ATOM      9  H   LIG    1       27.481 -21.558   5.580  0.00  0.00    +0.142 HD
ENDBRANCH   1   7
BRANCH   2  10
ATOM     10  N   LIG    1       25.859 -19.981   3.623  0.00  0.00    -0.355 N 
ATOM     11  H   LIG    1       26.411 -20.736   3.242  0.00  0.00    +0.142 HD
ATOM     12  H   LIG    1       25.355 -19.468   2.907  0.00  0.00    +0.142 HD
ENDBRANCH   2  10
TORSDOF 2
ENDMDL
MODEL 3
REMARK VINA RESULT:      -4.1      1.495      2.430
REMARK  Name = *****
REMARK                            x       y       z     vdW  Elec       q    Type
REMARK                         _______ _______ _______ _____ _____    ______ ____
ROOT
ATOM      1  C   LIG    1       25.035 -20.137   4.749  0.00  0.00    +0.048 A 
ATOM      2  C   LIG    1       25.512 -20.630   5.978  0.00  0.00    +0.064 A 
ATOM      3  C   LIG    1       24.555 -20.913   6.957  0.00  0.00    +0.135 A 
ATOM      4  N   LIG    1       23.225 -20.686   6.839  0.00  0.00    -0.261 NA
ATOM      5  C   LIG    1       22.809 -20.221   5.646  0.00  0.00    +0.112 A 
ATOM      6  C   LIG    1       23.658 -19.962   4.582  0.00  0.00    +0.044 A 
ENDROOT
BRANCH   1   7
ATOM      7  N   LIG    1       25.871 -20.023   3.621  0.00  0.00    -0.356 N 
ATOM      8  H   LIG    1       26.326 -20.884   3.348  0.00  0.00    +0.142 HD
ATOM      9  H   LIG    1       26.512 -19.238   3.657  0.00  0.00    +0.142 HD
ENDBRANCH   1   7
BRANCH   2  10
ATOM     10  N   LIG    1       26.849 -21.036   6.149  0.00  0.00    -0.355 N 
ATOM     11  H   LIG    1       27.167 -21.706   5.462  0.00  0.00    +0.142 HD
ATOM     12  H   LIG    1       27.500 -20.267   6.272  0.00  0.00    +0.142 HD
ENDBRANCH   2  10
TORSDOF 2
ENDMDL
MODEL 4
REMARK VINA RESULT:      -4.1      6.950      7.071
REMARK  Name = *****
REMARK                            x       y       z     vdW  Elec       q    Type
REMARK                         _______ _______ _______ _____ _____    ______ ____
ROOT
ATOM      1  C   LIG    1       26.284 -13.487   4.658  0.00  0.00    +0.048 A 
ATOM      2  C   LIG    1       26.998 -13.476   3.445  0.00  0.00    +0.064 A 
ATOM      3  C   LIG    1       26.245 -13.351   2.274  0.00  0.00    +0.135 A 
ATOM      4  N   LIG    1       24.894 -13.310   2.213  0.00  0.00    -0.261 NA
ATOM      5  C   LIG    1       24.249 -13.316   3.396  0.00  0.00    +0.112 A 
ATOM      6  C   LIG    1       24.890 -13.375   4.622  0.00  0.00    +0.044 A 
ENDROOT
BRANCH   1   7
ATOM      7  N   LIG    1       26.936 -13.389   5.903  0.00  0.00    -0.356 N 
ATOM      8  H   LIG    1       27.634 -14.101   6.067  0.00  0.00    +0.142 HD
ATOM      9  H   LIG    1       26.309 -13.267   6.692  0.00  0.00    +0.142 HD
ENDBRANCH   1   7
BRANCH   2  10
ATOM     10  N   LIG    1       28.401 -13.365   3.408  0.00  0.00    -0.355 N 
ATOM     11  H   LIG    1       28.799 -13.478   2.486  0.00  0.00    +0.142 HD
ATOM     12  H   LIG    1       28.761 -12.547   3.890  0.00  0.00    +0.142 HD
ENDBRANCH   2  10
TORSDOF 2
ENDMDL
MODEL 5
REMARK VINA RESULT:      -4.1      0.705      2.214
REMARK  Name = *****
REMARK                            x       y       z     vdW  Elec       q    Type
REMARK                         _______ _______ _______ _____ _____    ______ ____
ROOT
ATOM      1  C   LIG    1       25.123 -19.989   4.708  0.00  0.00    +0.048 A 
ATOM      2  C   LIG    1       24.444 -20.601   5.779  0.00  0.00    +0.064 A 
ATOM      3  C   LIG    1       23.067 -20.372   5.863  0.00  0.00    +0.135 A 
ATOM      4  N   LIG    1       22.357 -19.563   5.042  0.00  0.00    -0.261 NA
ATOM      5  C   LIG    1       23.043 -19.003   4.027  0.00  0.00    +0.112 A 
ATOM      6  C   LIG    1       24.395 -19.205   3.808  0.00  0.00    +0.044 A 
ENDROOT
BRANCH   1   7
ATOM      7  N   LIG    1       26.457 -20.316   4.393  0.00  0.00    -0.356 N 
ATOM      8  H   LIG    1       27.086 -20.312   5.184  0.00  0.00    +0.142 HD
ATOM      9  H   LIG    1       26.829 -19.814   3.594  0.00  0.00    +0.142 HD
ENDBRANCH   1   7
BRANCH   2  10
ATOM     10  N   LIG    1       25.058 -21.571   6.593  0.00  0.00    -0.355 N 
ATOM     11  H   LIG    1       24.485 -21.883   7.365  0.00  0.00    +0.142 HD
ATOM     12  H   LIG    1       25.466 -22.343   6.075  0.00  0.00    +0.142 HD
ENDBRANCH   2  10
TORSDOF 2
ENDMDL
MODEL 6
REMARK VINA RESULT:      -3.9      6.835      7.827
REMARK  Name = *****
REMARK                            x       y       z     vdW  Elec       q    Type
REMARK                         _______ _______ _______ _____ _____    ______ ____
ROOT
ATOM      1  C   LIG    1       25.107 -13.132   2.733  0.00  0.00    +0.048 A 
ATOM      2  C   LIG    1       24.956 -12.989   4.125  0.00  0.00    +0.064 A 
ATOM      3  C   LIG    1       25.999 -13.469   4.923  0.00  0.00    +0.135 A 
ATOM      4  N   LIG    1       27.099 -14.114   4.468  0.00  0.00    -0.261 NA
ATOM      5  C   LIG    1       27.208 -14.223   3.130  0.00  0.00    +0.112 A 
ATOM      6  C   LIG    1       26.269 -13.733   2.238  0.00  0.00    +0.044 A 
ENDROOT
BRANCH   1   7
ATOM      7  N   LIG    1       24.236 -12.499   1.824  0.00  0.00    -0.356 N 
ATOM      8  H   LIG    1       23.438 -12.050   2.253  0.00  0.00    +0.142 HD
ATOM      9  H   LIG    1       23.981 -13.072   1.027  0.00  0.00    +0.142 HD
ENDBRANCH   1   7
BRANCH   2  10
ATOM     10  N   LIG    1       23.929 -12.207   4.686  0.00  0.00    -0.355 N 
ATOM     11  H   LIG    1       23.586 -11.478   4.076  0.00  0.00    +0.142 HD
ATOM     12  H   LIG    1       23.180 -12.751   5.102  0.00  0.00    +0.142 HD
ENDBRANCH   2  10
TORSDOF 2
ENDMDL
MODEL 7
REMARK VINA RESULT:      -3.9      7.007      7.333
REMARK  Name = *****
REMARK                            x       y       z     vdW  Elec       q    Type
REMARK                         _______ _______ _______ _____ _____    ______ ____
ROOT
ATOM      1  C   LIG    1       26.531 -13.434   4.702  0.00  0.00    +0.048 A 
ATOM      2  C   LIG    1       25.338 -13.078   4.044  0.00  0.00    +0.064 A 
ATOM      3  C   LIG    1       25.239 -13.422   2.693  0.00  0.00    +0.135 A 
ATOM      4  N   LIG    1       26.218 -14.003   1.960  0.00  0.00    -0.261 NA
ATOM      5  C   LIG    1       27.339 -14.333   2.628  0.00  0.00    +0.112 A 
ATOM      6  C   LIG    1       27.528 -14.098   3.980  0.00  0.00    +0.044 A 
ENDROOT
BRANCH   1   7
ATOM      7  N   LIG    1       26.662 -13.339   6.102  0.00  0.00    -0.356 N 
ATOM      8  H   LIG    1       26.107 -12.608   6.525  0.00  0.00    +0.142 HD
ATOM      9  H   LIG    1       27.622 -13.339   6.430  0.00  0.00    +0.142 HD
ENDBRANCH   1   7
BRANCH   2  10
ATOM     10  N   LIG    1       24.212 -12.610   4.747  0.00  0.00    -0.355 N 
ATOM     11  H   LIG    1       23.333 -12.969   4.402  0.00  0.00    +0.142 HD
ATOM     12  H   LIG    1       24.295 -12.688   5.755  0.00  0.00    +0.142 HD
ENDBRANCH   2  10
TORSDOF 2
ENDMDL
MODEL 8
REMARK VINA RESULT:      -3.8      6.796      7.487
REMARK  Name = *****
REMARK                            x       y       z     vdW  Elec       q    Type
REMARK                         _______ _______ _______ _____ _____    ______ ____
ROOT
ATOM      1  C   LIG    1       25.107 -12.964   4.112  0.00  0.00    +0.048 A 
ATOM      2  C   LIG    1       25.259 -13.132   2.723  0.00  0.00    +0.064 A 
ATOM      3  C   LIG    1       26.362 -13.877   2.297  0.00  0.00    +0.135 A 
ATOM      4  N   LIG    1       27.321 -14.386   3.105  0.00  0.00    -0.261 NA
ATOM      5  C   LIG    1       27.135 -14.210   4.427  0.00  0.00    +0.112 A 
ATOM      6  C   LIG    1       26.049 -13.542   4.969  0.00  0.00    +0.044 A 
ENDROOT
BRANCH   1   7
ATOM      7  N   LIG    1       23.930 -12.425   4.670  0.00  0.00    -0.356 N 
ATOM      8  H   LIG    1       23.126 -12.456   4.058  0.00  0.00    +0.142 HD
ATOM      9  H   LIG    1       24.055 -11.518   5.107  0.00  0.00    +0.142 HD
ENDBRANCH   1   7
BRANCH   2  10
ATOM     10  N   LIG    1       24.246 -12.772   1.815  0.00  0.00    -0.355 N 
ATOM     11  H   LIG    1       23.375 -12.505   2.253  0.00  0.00    +0.142 HD
ATOM     12  H   LIG    1       24.545 -12.107   1.108  0.00  0.00    +0.142 HD
ENDBRANCH   2  10
TORSDOF 2
ENDMDL
MODEL 9
REMARK VINA RESULT:      -3.8      6.954      7.389
REMARK  Name = *****
REMARK                            x       y       z     vdW  Elec       q    Type
REMARK                         _______ _______ _______ _____ _____    ______ ____
ROOT
ATOM      1  C   LIG    1       26.903 -13.324   3.424  0.00  0.00    +0.048 A 
ATOM      2  C   LIG    1       26.235 -13.278   4.663  0.00  0.00    +0.064 A 
ATOM      3  C   LIG    1       24.838 -13.278   4.623  0.00  0.00    +0.135 A 
ATOM      4  N   LIG    1       24.087 -13.250   3.497  0.00  0.00    -0.261 NA
ATOM      5  C   LIG    1       24.765 -13.302   2.334  0.00  0.00    +0.112 A 
ATOM      6  C   LIG    1       26.146 -13.366   2.250  0.00  0.00    +0.044 A 
ENDROOT
BRANCH   1   7
ATOM      7  N   LIG    1       28.292 -13.547   3.339  0.00  0.00    -0.356 N 
ATOM      8  H   LIG    1       28.769 -12.965   2.664  0.00  0.00    +0.142 HD
ATOM      9  H   LIG    1       28.552 -14.525   3.266  0.00  0.00    +0.142 HD
ENDBRANCH   1   7
BRANCH   2  10
ATOM     10  N   LIG    1       26.915 -13.452   5.882  0.00  0.00    -0.355 N 
ATOM     11  H   LIG    1       27.733 -14.043   5.817  0.00  0.00    +0.142 HD
ATOM     12  H   LIG    1       27.100 -12.586   6.377  0.00  0.00    +0.142 HD
ENDBRANCH   2  10
TORSDOF 2
ENDMDL
