MODEL 1
REMARK VINA RESULT:      -8.4      0.000      0.000
REMARK  Name = *****
REMARK                            x       y       z     vdW  Elec       q    Type
REMARK                         _______ _______ _______ _____ _____    ______ ____
ROOT
ATOM      1  C   LIG    1       24.782 -25.634   6.501  0.00  0.00    +0.067 C 
ATOM      2  C   LIG    1       24.749 -24.344   7.322  0.00  0.00    +0.044 C 
ATOM      3  C   LIG    1       24.789 -23.195   6.325  0.00  0.00    +0.142 C 
ATOM      4  N   LIG    1       25.387 -23.791   5.109  0.00  0.00    -0.305 NA
ATOM      5  H   LIG    1       25.108 -23.247   4.290  0.00  0.00    +0.123 HD
ATOM      6  C   LIG    1       24.791 -25.135   5.049  0.00  0.00    +0.096 C 
ENDROOT
BRANCH   3   7
ATOM      7  C   LIG    1       25.653 -22.045   6.865  0.00  0.00    +0.234 C 
ATOM      8  N   LIG    1       26.986 -22.143   6.496  0.00  0.00    -0.284 N 
ATOM      9  H   LIG    1       27.156 -22.831   5.763  0.00  0.00    +0.155 HD
ATOM     10  O   LIG    1       25.159 -21.191   7.597  0.00  0.00    -0.274 OA
BRANCH   8  11
ATOM     11  C   LIG    1       28.032 -21.281   6.877  0.00  0.00    +0.034 A 
ATOM     12  C   LIG    1       28.928 -21.716   7.860  0.00  0.00    +0.038 A 
ATOM     13  C   LIG    1       30.021 -20.914   8.229  0.00  0.00    +0.061 A 
ATOM     14  C   LIG    1       30.214 -19.668   7.621  0.00  0.00    +0.015 A 
ATOM     15  C   LIG    1       29.295 -19.213   6.679  0.00  0.00    +0.003 A 
ATOM     16  C   LIG    1       28.213 -20.016   6.311  0.00  0.00    +0.023 A 
BRANCH  13  17
ATOM     17  C   LIG    1       30.989 -21.454   9.220  0.00  0.00    +0.337 C 
ATOM     18  O   LIG    1       30.721 -22.375   9.971  0.00  0.00    -0.245 OA
BRANCH  17  19
ATOM     19  O   LIG    1       32.176 -20.811   9.236  0.00  0.00    -0.477 OA
ATOM     20  H   LIG    1       32.773 -21.054   9.966  0.00  0.00    +0.295 HD
ENDBRANCH  17  19
ENDBRANCH  13  17
ENDBRANCH   8  11
ENDBRANCH   3   7
BRANCH   1  21
ATOM     21  S   LIG    1       26.255 -26.652   6.919  0.00  0.00    -0.122 S 
BRANCH  21  26
ATOM     22  C   LIG    1       25.573 -31.211   9.019  0.00  0.00    +0.125 C 
ATOM     23  C   LIG    1       24.929 -29.791   9.108  0.00  0.00    +0.104 C 
ATOM     24  N   LIG    1       24.381 -30.033   7.743  0.00  0.00    -0.260 N 
ATOM     25  C   LIG    1       24.786 -29.003   6.903  0.00  0.00    +0.131 C 
ATOM     26  C   LIG    1       25.518 -28.081   7.558  0.00  0.00    +0.019 C 
ATOM     27  C   LIG    1       25.681 -28.460   9.018  0.00  0.00    +0.046 C 
ATOM     28  C   LIG    1       27.096 -28.583   9.561  0.00  0.00    +0.015 C 
ATOM     29  C   LIG    1       24.941 -31.268   7.630  0.00  0.00    +0.228 C 
ATOM     30  O   LIG    1       24.985 -31.994   6.653  0.00  0.00    -0.275 OA
BRANCH  22  32
ATOM     31  C   LIG    1       24.425 -31.526  11.228  0.00  0.00    +0.038 C 
ATOM     32  C   LIG    1       25.060 -32.216  10.030  0.00  0.00    +0.125 C 
BRANCH  32  33
ATOM     33  O   LIG    1       24.099 -33.045   9.375  0.00  0.00    -0.391 OA
ATOM     34  H   LIG    1       23.335 -33.165   9.968  0.00  0.00    +0.210 HD
ENDBRANCH  32  33
ENDBRANCH  22  32
BRANCH  25  35
ATOM     35  C   LIG    1       24.383 -28.996   5.460  0.00  0.00    +0.352 C 
ATOM     36  O   LIG    1       25.114 -28.644   4.547  0.00  0.00    -0.244 OA
BRANCH  35  37
ATOM     37  O   LIG    1       23.093 -29.335   5.237  0.00  0.00    -0.476 OA
ATOM     38  H   LIG    1       22.813 -30.203   5.605  0.00  0.00    +0.295 HD
ENDBRANCH  35  37
ENDBRANCH  25  35
ENDBRANCH  21  26
ENDBRANCH   1  21
TORSDOF 10
ENDMDL
MODEL 2
REMARK VINA RESULT:      -8.0      1.713      2.472
REMARK  Name = *****
REMARK                            x       y       z     vdW  Elec       q    Type
REMARK                         _______ _______ _______ _____ _____    ______ ____
ROOT
ATOM      1  C   LIG    1       24.807 -27.718   6.200  0.00  0.00    +0.067 C 
ATOM      2  C   LIG    1       24.228 -26.307   6.305  0.00  0.00    +0.044 C 
ATOM      3  C   LIG    1       24.690 -25.556   5.063  0.00  0.00    +0.142 C 
ATOM      4  N   LIG    1       25.893 -26.296   4.620  0.00  0.00    -0.305 NA
ATOM      5  H   LIG    1       26.044 -26.132   3.622  0.00  0.00    +0.123 HD
ATOM      6  C   LIG    1       25.542 -27.705   4.853  0.00  0.00    +0.096 C 
ENDROOT
BRANCH   3   7
ATOM      7  C   LIG    1       25.027 -24.098   5.412  0.00  0.00    +0.234 C 
ATOM      8  N   LIG    1       25.621 -23.959   6.656  0.00  0.00    -0.284 N 
ATOM      9  H   LIG    1       25.933 -24.841   7.061  0.00  0.00    +0.155 HD
ATOM     10  O   LIG    1       24.718 -23.191   4.644  0.00  0.00    -0.274 OA
BRANCH   8  11
ATOM     11  C   LIG    1       25.995 -22.753   7.281  0.00  0.00    +0.034 A 
ATOM     12  C   LIG    1       27.342 -22.375   7.243  0.00  0.00    +0.038 A 
ATOM     13  C   LIG    1       27.752 -21.152   7.802  0.00  0.00    +0.061 A 
ATOM     14  C   LIG    1       26.814 -20.309   8.409  0.00  0.00    +0.015 A 
ATOM     15  C   LIG    1       25.482 -20.708   8.492  0.00  0.00    +0.003 A 
ATOM     16  C   LIG    1       25.078 -21.922   7.931  0.00  0.00    +0.023 A 
BRANCH  13  17
ATOM     17  C   LIG    1       29.178 -20.758   7.665  0.00  0.00    +0.337 C 
ATOM     18  O   LIG    1       29.915 -20.599   8.623  0.00  0.00    -0.245 OA
BRANCH  17  19
ATOM     19  O   LIG    1       29.575 -20.557   6.390  0.00  0.00    -0.477 OA
ATOM     20  H   LIG    1       29.915 -19.667   6.193  0.00  0.00    +0.295 HD
ENDBRANCH  17  19
ENDBRANCH  13  17
ENDBRANCH   8  11
ENDBRANCH   3   7
BRANCH   1  21
ATOM     21  S   LIG    1       25.916 -28.089   7.619  0.00  0.00    -0.122 S 
BRANCH  21  26
ATOM     22  C   LIG    1       24.867 -32.135  10.481  0.00  0.00    +0.125 C 
ATOM     23  C   LIG    1       24.175 -30.794  10.081  0.00  0.00    +0.104 C 
ATOM     24  N   LIG    1       24.006 -31.371   8.717  0.00  0.00    -0.260 N 
ATOM     25  C   LIG    1       24.579 -30.512   7.787  0.00  0.00    +0.131 C 
ATOM     26  C   LIG    1       25.087 -29.409   8.370  0.00  0.00    +0.019 C 
ATOM     27  C   LIG    1       24.880 -29.451   9.873  0.00  0.00    +0.046 C 
ATOM     28  C   LIG    1       26.110 -29.325  10.758  0.00  0.00    +0.015 C 
ATOM     29  C   LIG    1       24.617 -32.545   9.031  0.00  0.00    +0.228 C 
ATOM     30  O   LIG    1       24.935 -33.457   8.289  0.00  0.00    -0.275 OA
BRANCH  22  32
ATOM     31  C   LIG    1       23.386 -32.044  12.504  0.00  0.00    +0.038 C 
ATOM     32  C   LIG    1       24.144 -32.943  11.539  0.00  0.00    +0.125 C 
BRANCH  32  33
ATOM     33  O   LIG    1       23.238 -33.825  10.876  0.00  0.00    -0.391 OA
ATOM     34  H   LIG    1       23.722 -34.629  10.612  0.00  0.00    +0.210 HD
ENDBRANCH  32  33
ENDBRANCH  22  32
BRANCH  25  35
ATOM     35  C   LIG    1       24.561 -30.851   6.328  0.00  0.00    +0.352 C 
ATOM     36  O   LIG    1       25.556 -31.139   5.680  0.00  0.00    -0.244 OA
BRANCH  35  37
ATOM     37  O   LIG    1       23.350 -30.731   5.739  0.00  0.00    -0.476 OA
ATOM     38  H   LIG    1       22.987 -31.556   5.344  0.00  0.00    +0.295 HD
ENDBRANCH  35  37
ENDBRANCH  25  35
ENDBRANCH  21  26
ENDBRANCH   1  21
TORSDOF 10
ENDMDL
MODEL 3
REMARK VINA RESULT:      -7.8      3.293      5.277
REMARK  Name = *****
REMARK                            x       y       z     vdW  Elec       q    Type
REMARK                         _______ _______ _______ _____ _____    ______ ____
ROOT
ATOM      1  C   LIG    1       24.861 -29.891   7.184  0.00  0.00    +0.067 C 
ATOM      2  C   LIG    1       24.655 -28.378   7.253  0.00  0.00    +0.044 C 
ATOM      3  C   LIG    1       25.018 -27.828   5.880  0.00  0.00    +0.142 C 
ATOM      4  N   LIG    1       25.906 -28.861   5.301  0.00  0.00    -0.305 NA
ATOM      5  H   LIG    1       25.888 -28.791   4.281  0.00  0.00    +0.123 HD
ATOM      6  C   LIG    1       25.295 -30.128   5.731  0.00  0.00    +0.096 C 
ENDROOT
BRANCH   3   7
ATOM      7  C   LIG    1       25.743 -26.481   6.016  0.00  0.00    +0.234 C 
ATOM      8  N   LIG    1       24.897 -25.437   6.357  0.00  0.00    -0.284 N 
ATOM      9  H   LIG    1       23.975 -25.744   6.666  0.00  0.00    +0.155 HD
ATOM     10  O   LIG    1       26.944 -26.397   5.774  0.00  0.00    -0.274 OA
BRANCH   8  11
ATOM     11  C   LIG    1       25.246 -24.080   6.501  0.00  0.00    +0.034 A 
ATOM     12  C   LIG    1       24.915 -23.196   5.468  0.00  0.00    +0.038 A 
ATOM     13  C   LIG    1       25.191 -21.823   5.594  0.00  0.00    +0.061 A 
ATOM     14  C   LIG    1       25.809 -21.335   6.751  0.00  0.00    +0.015 A 
ATOM     15  C   LIG    1       26.184 -22.222   7.757  0.00  0.00    +0.003 A 
ATOM     16  C   LIG    1       25.903 -23.585   7.630  0.00  0.00    +0.023 A 
BRANCH  13  17
ATOM     17  C   LIG    1       24.749 -20.913   4.505  0.00  0.00    +0.337 C 
ATOM     18  O   LIG    1       23.578 -20.768   4.199  0.00  0.00    -0.245 OA
BRANCH  17  19
ATOM     19  O   LIG    1       25.760 -20.289   3.864  0.00  0.00    -0.477 OA
ATOM     20  H   LIG    1       26.653 -20.613   4.077  0.00  0.00    +0.295 HD
ENDBRANCH  17  19
ENDBRANCH  13  17
ENDBRANCH   8  11
ENDBRANCH   3   7
BRANCH   1  21
ATOM     21  S   LIG    1       26.116 -30.447   8.408  0.00  0.00    -0.122 S 
BRANCH  21  26
ATOM     22  C   LIG    1       25.520 -29.194  13.280  0.00  0.00    +0.125 C 
ATOM     23  C   LIG    1       25.330 -28.521  11.883  0.00  0.00    +0.104 C 
ATOM     24  N   LIG    1       24.161 -29.424  11.687  0.00  0.00    -0.260 N 
ATOM     25  C   LIG    1       24.335 -30.142  10.511  0.00  0.00    +0.131 C 
ATOM     26  C   LIG    1       25.475 -29.801   9.879  0.00  0.00    +0.019 C 
ATOM     27  C   LIG    1       26.224 -28.736  10.658  0.00  0.00    +0.046 C 
ATOM     28  C   LIG    1       27.659 -29.036  11.062  0.00  0.00    +0.015 C 
ATOM     29  C   LIG    1       24.309 -30.039  12.892  0.00  0.00    +0.228 C 
ATOM     30  O   LIG    1       23.719 -31.014  13.323  0.00  0.00    -0.275 OA
BRANCH  22  32
ATOM     31  C   LIG    1       25.251 -26.818  14.037  0.00  0.00    +0.038 C 
ATOM     32  C   LIG    1       25.341 -28.273  14.469  0.00  0.00    +0.125 C 
BRANCH  32  33
ATOM     33  O   LIG    1       24.144 -28.658  15.146  0.00  0.00    -0.391 OA
ATOM     34  H   LIG    1       24.378 -28.976  16.037  0.00  0.00    +0.210 HD
ENDBRANCH  32  33
ENDBRANCH  22  32
BRANCH  25  35
ATOM     35  C   LIG    1       23.307 -31.138  10.068  0.00  0.00    +0.352 C 
ATOM     36  O   LIG    1       22.295 -30.848   9.449  0.00  0.00    -0.244 OA
BRANCH  35  37
ATOM     37  O   LIG    1       23.538 -32.404  10.484  0.00  0.00    -0.476 OA
ATOM     38  H   LIG    1       24.472 -32.707  10.422  0.00  0.00    +0.295 HD
ENDBRANCH  35  37
ENDBRANCH  25  35
ENDBRANCH  21  26
ENDBRANCH   1  21
TORSDOF 10
ENDMDL
MODEL 4
REMARK VINA RESULT:      -7.7      2.565     10.256
REMARK  Name = *****
REMARK                            x       y       z     vdW  Elec       q    Type
REMARK                         _______ _______ _______ _____ _____    ______ ____
ROOT
ATOM      1  C   LIG    1       26.788 -20.802   6.814  0.00  0.00    +0.067 C 
ATOM      2  C   LIG    1       25.866 -21.763   6.063  0.00  0.00    +0.044 C 
ATOM      3  C   LIG    1       24.795 -22.198   7.053  0.00  0.00    +0.142 C 
ATOM      4  N   LIG    1       25.412 -21.967   8.378  0.00  0.00    -0.305 NA
ATOM      5  H   LIG    1       24.678 -21.851   9.080  0.00  0.00    +0.123 HD
ATOM      6  C   LIG    1       26.149 -20.705   8.206  0.00  0.00    +0.096 C 
ENDROOT
BRANCH   3   7
ATOM      7  C   LIG    1       24.446 -23.680   6.850  0.00  0.00    +0.234 C 
ATOM      8  N   LIG    1       25.548 -24.462   6.539  0.00  0.00    -0.284 N 
ATOM      9  H   LIG    1       26.439 -23.991   6.694  0.00  0.00    +0.155 HD
ATOM     10  O   LIG    1       23.278 -24.055   6.911  0.00  0.00    -0.274 OA
BRANCH   8  11
ATOM     11  C   LIG    1       25.548 -25.839   6.242  0.00  0.00    +0.034 A 
ATOM     12  C   LIG    1       25.668 -26.746   7.301  0.00  0.00    +0.038 A 
ATOM     13  C   LIG    1       25.614 -28.130   7.059  0.00  0.00    +0.061 A 
ATOM     14  C   LIG    1       25.448 -28.608   5.754  0.00  0.00    +0.015 A 
ATOM     15  C   LIG    1       25.379 -27.706   4.695  0.00  0.00    +0.003 A 
ATOM     16  C   LIG    1       25.428 -26.332   4.940  0.00  0.00    +0.023 A 
BRANCH  13  17
ATOM     17  C   LIG    1       25.666 -29.052   8.223  0.00  0.00    +0.337 C 
ATOM     18  O   LIG    1       24.692 -29.662   8.628  0.00  0.00    -0.245 OA
BRANCH  17  19
ATOM     19  O   LIG    1       26.878 -29.125   8.814  0.00  0.00    -0.477 OA
ATOM     20  H   LIG    1       27.135 -30.008   9.132  0.00  0.00    +0.295 HD
ENDBRANCH  17  19
ENDBRANCH  13  17
ENDBRANCH   8  11
ENDBRANCH   3   7
BRANCH   1  21
ATOM     21  S   LIG    1       28.514 -21.435   6.859  0.00  0.00    -0.122 S 
BRANCH  21  26
ATOM     22  C   LIG    1       31.318 -17.579   8.569  0.00  0.00    +0.125 C 
ATOM     23  C   LIG    1       29.904 -18.186   8.836  0.00  0.00    +0.104 C 
ATOM     24  N   LIG    1       30.600 -19.337   9.480  0.00  0.00    -0.260 N 
ATOM     25  C   LIG    1       30.191 -20.514   8.865  0.00  0.00    +0.131 C 
ATOM     26  C   LIG    1       29.278 -20.285   7.902  0.00  0.00    +0.019 C 
ATOM     27  C   LIG    1       28.981 -18.802   7.782  0.00  0.00    +0.046 C 
ATOM     28  C   LIG    1       29.178 -18.152   6.421  0.00  0.00    +0.015 C 
ATOM     29  C   LIG    1       31.845 -18.840   9.248  0.00  0.00    +0.228 C 
ATOM     30  O   LIG    1       32.922 -19.382   9.424  0.00  0.00    -0.275 OA
BRANCH  22  32
ATOM     31  C   LIG    1       31.578 -16.436  10.787  0.00  0.00    +0.038 C 
ATOM     32  C   LIG    1       31.602 -16.269   9.275  0.00  0.00    +0.125 C 
BRANCH  32  33
ATOM     33  O   LIG    1       32.886 -15.812   8.853  0.00  0.00    -0.391 OA
ATOM     34  H   LIG    1       33.234 -16.431   8.186  0.00  0.00    +0.210 HD
ENDBRANCH  32  33
ENDBRANCH  22  32
BRANCH  25  35
ATOM     35  C   LIG    1       30.742 -21.834   9.310  0.00  0.00    +0.352 C 
ATOM     36  O   LIG    1       30.263 -22.507  10.210  0.00  0.00    -0.244 OA
BRANCH  35  37
ATOM     37  O   LIG    1       31.884 -22.203   8.687  0.00  0.00    -0.476 OA
ATOM     38  H   LIG    1       32.042 -23.173   8.629  0.00  0.00    +0.295 HD
ENDBRANCH  35  37
ENDBRANCH  25  35
ENDBRANCH  21  26
ENDBRANCH   1  21
TORSDOF 10
ENDMDL
MODEL 5
REMARK VINA RESULT:      -7.6      2.650      4.766
REMARK  Name = *****
REMARK                            x       y       z     vdW  Elec       q    Type
REMARK                         _______ _______ _______ _____ _____    ______ ____
ROOT
ATOM      1  C   LIG    1       24.874 -29.622   7.156  0.00  0.00    +0.067 C 
ATOM      2  C   LIG    1       24.194 -28.278   6.894  0.00  0.00    +0.044 C 
ATOM      3  C   LIG    1       24.634 -27.833   5.506  0.00  0.00    +0.142 C 
ATOM      4  N   LIG    1       25.899 -28.567   5.276  0.00  0.00    -0.305 NA
ATOM      5  H   LIG    1       26.066 -28.650   4.271  0.00  0.00    +0.123 HD
ATOM      6  C   LIG    1       25.643 -29.894   5.857  0.00  0.00    +0.096 C 
ENDROOT
BRANCH   3   7
ATOM      7  C   LIG    1       24.857 -26.313   5.475  0.00  0.00    +0.234 C 
ATOM      8  N   LIG    1       24.261 -25.652   6.538  0.00  0.00    -0.284 N 
ATOM      9  H   LIG    1       23.947 -26.276   7.282  0.00  0.00    +0.155 HD
ATOM     10  O   LIG    1       25.461 -25.795   4.540  0.00  0.00    -0.274 OA
BRANCH   8  11
ATOM     11  C   LIG    1       24.237 -24.262   6.761  0.00  0.00    +0.034 A 
ATOM     12  C   LIG    1       25.441 -23.618   7.069  0.00  0.00    +0.038 A 
ATOM     13  C   LIG    1       25.476 -22.223   7.241  0.00  0.00    +0.061 A 
ATOM     14  C   LIG    1       24.303 -21.471   7.113  0.00  0.00    +0.015 A 
ATOM     15  C   LIG    1       23.096 -22.118   6.855  0.00  0.00    +0.003 A 
ATOM     16  C   LIG    1       23.066 -23.503   6.681  0.00  0.00    +0.023 A 
BRANCH  13  17
ATOM     17  C   LIG    1       26.791 -21.577   7.489  0.00  0.00    +0.337 C 
ATOM     18  O   LIG    1       27.521 -21.198   6.590  0.00  0.00    -0.245 OA
BRANCH  17  19
ATOM     19  O   LIG    1       27.119 -21.480   8.795  0.00  0.00    -0.477 OA
ATOM     20  H   LIG    1       27.364 -20.588   9.100  0.00  0.00    +0.295 HD
ENDBRANCH  17  19
ENDBRANCH  13  17
ENDBRANCH   8  11
ENDBRANCH   3   7
BRANCH   1  21
ATOM     21  S   LIG    1       25.967 -29.536   8.633  0.00  0.00    -0.122 S 
BRANCH  21  26
ATOM     22  C   LIG    1       24.429 -31.892  12.845  0.00  0.00    +0.125 C 
ATOM     23  C   LIG    1       23.795 -31.372  11.516  0.00  0.00    +0.104 C 
ATOM     24  N   LIG    1       24.508 -32.484  10.825  0.00  0.00    -0.260 N 
ATOM     25  C   LIG    1       25.294 -31.955   9.809  0.00  0.00    +0.131 C 
ATOM     26  C   LIG    1       25.165 -30.617   9.720  0.00  0.00    +0.019 C 
ATOM     27  C   LIG    1       24.200 -30.098  10.770  0.00  0.00    +0.046 C 
ATOM     28  C   LIG    1       24.707 -29.030  11.727  0.00  0.00    +0.015 C 
ATOM     29  C   LIG    1       25.087 -32.952  11.964  0.00  0.00    +0.228 C 
ATOM     30  O   LIG    1       25.937 -33.816  12.083  0.00  0.00    -0.275 OA
BRANCH  22  32
ATOM     31  C   LIG    1       22.033 -31.900  13.589  0.00  0.00    +0.038 C 
ATOM     32  C   LIG    1       23.441 -32.398  13.877  0.00  0.00    +0.125 C 
BRANCH  32  33
ATOM     33  O   LIG    1       23.472 -33.825  13.850  0.00  0.00    -0.391 OA
ATOM     34  H   LIG    1       24.237 -34.131  14.371  0.00  0.00    +0.210 HD
ENDBRANCH  32  33
ENDBRANCH  22  32
BRANCH  25  35
ATOM     35  C   LIG    1       26.132 -32.852   8.951  0.00  0.00    +0.352 C 
ATOM     36  O   LIG    1       25.737 -33.380   7.922  0.00  0.00    -0.244 OA
BRANCH  35  37
ATOM     37  O   LIG    1       27.362 -33.114   9.447  0.00  0.00    -0.476 OA
ATOM     38  H   LIG    1       27.503 -32.861  10.387  0.00  0.00    +0.295 HD
ENDBRANCH  35  37
ENDBRANCH  25  35
ENDBRANCH  21  26
ENDBRANCH   1  21
TORSDOF 10
ENDMDL
MODEL 6
REMARK VINA RESULT:      -7.4      2.488      9.773
REMARK  Name = *****
REMARK                            x       y       z     vdW  Elec       q    Type
REMARK                         _______ _______ _______ _____ _____    ______ ____
ROOT
ATOM      1  C   LIG    1       23.893 -21.939   5.511  0.00  0.00    +0.067 C 
ATOM      2  C   LIG    1       24.836 -23.136   5.387  0.00  0.00    +0.044 C 
ATOM      3  C   LIG    1       23.997 -24.378   5.658  0.00  0.00    +0.142 C 
ATOM      4  N   LIG    1       22.847 -23.873   6.441  0.00  0.00    -0.305 NA
ATOM      5  H   LIG    1       22.058 -24.516   6.339  0.00  0.00    +0.123 HD
ATOM      6  C   LIG    1       22.532 -22.583   5.807  0.00  0.00    +0.096 C 
ENDROOT
BRANCH   3   7
ATOM      7  C   LIG    1       24.808 -25.409   6.459  0.00  0.00    +0.234 C 
ATOM      8  N   LIG    1       24.332 -26.703   6.321  0.00  0.00    -0.284 N 
ATOM      9  H   LIG    1       23.660 -26.812   5.561  0.00  0.00    +0.155 HD
ATOM     10  O   LIG    1       25.735 -25.044   7.178  0.00  0.00    -0.274 OA
BRANCH   8  11
ATOM     11  C   LIG    1       24.822 -27.855   6.967  0.00  0.00    +0.034 A 
ATOM     12  C   LIG    1       24.292 -29.098   6.602  0.00  0.00    +0.038 A 
ATOM     13  C   LIG    1       24.791 -30.279   7.178  0.00  0.00    +0.061 A 
ATOM     14  C   LIG    1       25.817 -30.217   8.127  0.00  0.00    +0.015 A 
ATOM     15  C   LIG    1       26.311 -28.977   8.527  0.00  0.00    +0.003 A 
ATOM     16  C   LIG    1       25.815 -27.806   7.949  0.00  0.00    +0.023 A 
BRANCH  13  17
ATOM     17  C   LIG    1       24.252 -31.578   6.700  0.00  0.00    +0.337 C 
ATOM     18  O   LIG    1       24.642 -32.652   7.123  0.00  0.00    -0.245 OA
BRANCH  17  19
ATOM     19  O   LIG    1       23.318 -31.464   5.731  0.00  0.00    -0.477 OA
ATOM     20  H   LIG    1       23.410 -32.083   4.986  0.00  0.00    +0.295 HD
ENDBRANCH  17  19
ENDBRANCH  13  17
ENDBRANCH   8  11
ENDBRANCH   3   7
BRANCH   1  21
ATOM     21  S   LIG    1       24.447 -20.792   6.838  0.00  0.00    -0.122 S 
BRANCH  21  26
ATOM     22  C   LIG    1       29.321 -19.425   7.027  0.00  0.00    +0.125 C 
ATOM     23  C   LIG    1       28.496 -20.729   6.786  0.00  0.00    +0.104 C 
ATOM     24  N   LIG    1       28.100 -20.150   5.471  0.00  0.00    -0.260 N 
ATOM     25  C   LIG    1       26.713 -20.123   5.388  0.00  0.00    +0.131 C 
ATOM     26  C   LIG    1       26.135 -20.645   6.486  0.00  0.00    +0.019 C 
ATOM     27  C   LIG    1       27.184 -21.099   7.484  0.00  0.00    +0.046 C 
ATOM     28  C   LIG    1       27.118 -20.521   8.889  0.00  0.00    +0.015 C 
ATOM     29  C   LIG    1       28.797 -18.997   5.658  0.00  0.00    +0.228 C 
ATOM     30  O   LIG    1       28.794 -17.990   4.973  0.00  0.00    -0.275 OA
BRANCH  22  32
ATOM     31  C   LIG    1       31.469 -18.496   7.930  0.00  0.00    +0.038 C 
ATOM     32  C   LIG    1       30.819 -19.621   7.139  0.00  0.00    +0.125 C 
BRANCH  32  33
ATOM     33  O   LIG    1       31.050 -20.872   7.786  0.00  0.00    -0.391 OA
ATOM     34  H   LIG    1       31.085 -21.572   7.108  0.00  0.00    +0.210 HD
ENDBRANCH  32  33
ENDBRANCH  22  32
BRANCH  25  35
ATOM     35  C   LIG    1       26.036 -19.579   4.167  0.00  0.00    +0.352 C 
ATOM     36  O   LIG    1       25.299 -20.232   3.445  0.00  0.00    -0.244 OA
BRANCH  35  37
ATOM     37  O   LIG    1       26.368 -18.303   3.863  0.00  0.00    -0.476 OA
ATOM     38  H   LIG    1       27.007 -18.196   3.123  0.00  0.00    +0.295 HD
ENDBRANCH  35  37
ENDBRANCH  25  35
ENDBRANCH  21  26
ENDBRANCH   1  21
TORSDOF 10
ENDMDL
MODEL 7
REMARK VINA RESULT:      -7.3      3.045      9.487
REMARK  Name = *****
REMARK                            x       y       z     vdW  Elec       q    Type
REMARK                         _______ _______ _______ _____ _____    ______ ____
ROOT
ATOM      1  C   LIG    1       25.358 -24.791   5.814  0.00  0.00    +0.067 C 
ATOM      2  C   LIG    1       25.947 -25.801   6.799  0.00  0.00    +0.044 C 
ATOM      3  C   LIG    1       25.725 -27.179   6.191  0.00  0.00    +0.142 C 
ATOM      4  N   LIG    1       24.596 -26.983   5.254  0.00  0.00    -0.305 NA
ATOM      5  H   LIG    1       24.622 -27.708   4.534  0.00  0.00    +0.123 HD
ATOM      6  C   LIG    1       24.865 -25.666   4.654  0.00  0.00    +0.096 C 
ENDROOT
BRANCH   3   7
ATOM      7  C   LIG    1       25.371 -28.198   7.285  0.00  0.00    +0.234 C 
ATOM      8  N   LIG    1       26.211 -28.130   8.386  0.00  0.00    -0.284 N 
ATOM      9  H   LIG    1       26.796 -27.295   8.402  0.00  0.00    +0.155 HD
ATOM     10  O   LIG    1       24.461 -29.004   7.110  0.00  0.00    -0.274 OA
BRANCH   8  11
ATOM     11  C   LIG    1       26.181 -28.962   9.522  0.00  0.00    +0.034 A 
ATOM     12  C   LIG    1       27.305 -28.991  10.355  0.00  0.00    +0.038 A 
ATOM     13  C   LIG    1       27.298 -29.761  11.531  0.00  0.00    +0.061 A 
ATOM     14  C   LIG    1       26.167 -30.512  11.870  0.00  0.00    +0.015 A 
ATOM     15  C   LIG    1       25.067 -30.523  11.016  0.00  0.00    +0.003 A 
ATOM     16  C   LIG    1       25.076 -29.753   9.851  0.00  0.00    +0.023 A 
BRANCH  13  17
ATOM     17  C   LIG    1       28.485 -29.696  12.423  0.00  0.00    +0.337 C 
ATOM     18  O   LIG    1       28.452 -30.034  13.593  0.00  0.00    -0.245 OA
BRANCH  17  19
ATOM     19  O   LIG    1       29.591 -29.195  11.832  0.00  0.00    -0.477 OA
ATOM     20  H   LIG    1       30.008 -29.772  11.168  0.00  0.00    +0.295 HD
ENDBRANCH  17  19
ENDBRANCH  13  17
ENDBRANCH   8  11
ENDBRANCH   3   7
BRANCH   1  21
ATOM     21  S   LIG    1       24.013 -23.808   6.594  0.00  0.00    -0.122 S 
BRANCH  21  26
ATOM     22  C   LIG    1       25.792 -19.820   4.027  0.00  0.00    +0.125 C 
ATOM     23  C   LIG    1       24.555 -20.161   4.918  0.00  0.00    +0.104 C 
ATOM     24  N   LIG    1       25.488 -20.178   6.081  0.00  0.00    -0.260 N 
ATOM     25  C   LIG    1       25.382 -21.401   6.730  0.00  0.00    +0.131 C 
ATOM     26  C   LIG    1       24.461 -22.196   6.152  0.00  0.00    +0.019 C 
ATOM     27  C   LIG    1       23.826 -21.507   4.959  0.00  0.00    +0.046 C 
ATOM     28  C   LIG    1       23.893 -22.217   3.616  0.00  0.00    +0.015 C 
ATOM     29  C   LIG    1       26.586 -19.895   5.329  0.00  0.00    +0.228 C 
ATOM     30  O   LIG    1       27.756 -19.890   5.667  0.00  0.00    -0.275 OA
BRANCH  22  32
ATOM     31  C   LIG    1       24.487 -17.698   3.728  0.00  0.00    +0.038 C 
ATOM     32  C   LIG    1       25.743 -18.466   3.349  0.00  0.00    +0.125 C 
BRANCH  32  33
ATOM     33  O   LIG    1       26.904 -17.735   3.746  0.00  0.00    -0.391 OA
ATOM     34  H   LIG    1       26.770 -16.795   3.527  0.00  0.00    +0.210 HD
ENDBRANCH  32  33
ENDBRANCH  22  32
BRANCH  25  35
ATOM     35  C   LIG    1       26.219 -21.697   7.937  0.00  0.00    +0.352 C 
ATOM     36  O   LIG    1       25.845 -21.527   9.088  0.00  0.00    -0.244 OA
BRANCH  35  37
ATOM     37  O   LIG    1       27.481 -22.097   7.660  0.00  0.00    -0.476 OA
ATOM     38  H   LIG    1       28.022 -21.463   7.138  0.00  0.00    +0.295 HD
ENDBRANCH  35  37
ENDBRANCH  25  35
ENDBRANCH  21  26
ENDBRANCH   1  21
TORSDOF 10
ENDMDL
MODEL 8
REMARK VINA RESULT:      -7.3      1.772      2.225
REMARK  Name = *****
REMARK                            x       y       z     vdW  Elec       q    Type
REMARK                         _______ _______ _______ _____ _____    ______ ____
ROOT
ATOM      1  C   LIG    1       24.516 -26.074   6.264  0.00  0.00    +0.067 C 
ATOM      2  C   LIG    1       24.237 -24.675   6.815  0.00  0.00    +0.044 C 
ATOM      3  C   LIG    1       24.264 -23.727   5.623  0.00  0.00    +0.142 C 
ATOM      4  N   LIG    1       25.068 -24.444   4.608  0.00  0.00    -0.305 NA
ATOM      5  H   LIG    1       24.828 -24.098   3.677  0.00  0.00    +0.123 HD
ATOM      6  C   LIG    1       24.642 -25.845   4.751  0.00  0.00    +0.096 C 
ENDROOT
BRANCH   3   7
ATOM      7  C   LIG    1       24.919 -22.393   6.013  0.00  0.00    +0.234 C 
ATOM      8  N   LIG    1       26.216 -22.537   6.480  0.00  0.00    -0.284 N 
ATOM      9  H   LIG    1       26.612 -23.460   6.304  0.00  0.00    +0.155 HD
ATOM     10  O   LIG    1       24.278 -21.347   5.950  0.00  0.00    -0.274 OA
BRANCH   8  11
ATOM     11  C   LIG    1       27.057 -21.516   6.964  0.00  0.00    +0.034 A 
ATOM     12  C   LIG    1       27.712 -20.700   6.036  0.00  0.00    +0.038 A 
ATOM     13  C   LIG    1       28.515 -19.631   6.472  0.00  0.00    +0.061 A 
ATOM     14  C   LIG    1       28.669 -19.384   7.841  0.00  0.00    +0.015 A 
ATOM     15  C   LIG    1       28.057 -20.227   8.766  0.00  0.00    +0.003 A 
ATOM     16  C   LIG    1       27.257 -21.284   8.328  0.00  0.00    +0.023 A 
BRANCH  13  17
ATOM     17  C   LIG    1       29.126 -18.745   5.448  0.00  0.00    +0.337 C 
ATOM     18  O   LIG    1       30.306 -18.440   5.457  0.00  0.00    -0.245 OA
BRANCH  17  19
ATOM     19  O   LIG    1       28.252 -18.280   4.530  0.00  0.00    -0.477 OA
ATOM     20  H   LIG    1       28.524 -17.467   4.068  0.00  0.00    +0.295 HD
ENDBRANCH  17  19
ENDBRANCH  13  17
ENDBRANCH   8  11
ENDBRANCH   3   7
BRANCH   1  21
ATOM     21  S   LIG    1       26.036 -26.791   7.010  0.00  0.00    -0.122 S 
BRANCH  21  26
ATOM     22  C   LIG    1       25.779 -31.366   9.169  0.00  0.00    +0.125 C 
ATOM     23  C   LIG    1       24.978 -30.026   9.206  0.00  0.00    +0.104 C 
ATOM     24  N   LIG    1       24.517 -30.348   7.826  0.00  0.00    -0.260 N 
ATOM     25  C   LIG    1       24.838 -29.292   6.983  0.00  0.00    +0.131 C 
ATOM     26  C   LIG    1       25.437 -28.284   7.647  0.00  0.00    +0.019 C 
ATOM     27  C   LIG    1       25.581 -28.621   9.120  0.00  0.00    +0.046 C 
ATOM     28  C   LIG    1       26.978 -28.577   9.719  0.00  0.00    +0.015 C 
ATOM     29  C   LIG    1       25.214 -31.514   7.758  0.00  0.00    +0.228 C 
ATOM     30  O   LIG    1       25.378 -32.245   6.798  0.00  0.00    -0.275 OA
BRANCH  22  32
ATOM     31  C   LIG    1       25.835 -33.795   9.798  0.00  0.00    +0.038 C 
ATOM     32  C   LIG    1       25.340 -32.408  10.179  0.00  0.00    +0.125 C 
BRANCH  32  33
ATOM     33  O   LIG    1       25.865 -32.032  11.452  0.00  0.00    -0.391 OA
ATOM     34  H   LIG    1       25.122 -31.909  12.072  0.00  0.00    +0.210 HD
ENDBRANCH  32  33
ENDBRANCH  22  32
BRANCH  25  35
ATOM     35  C   LIG    1       24.496 -29.351   5.525  0.00  0.00    +0.352 C 
ATOM     36  O   LIG    1       25.324 -29.367   4.627  0.00  0.00    -0.244 OA
BRANCH  35  37
ATOM     37  O   LIG    1       23.171 -29.300   5.258  0.00  0.00    -0.476 OA
ATOM     38  H   LIG    1       22.933 -29.041   4.340  0.00  0.00    +0.295 HD
ENDBRANCH  35  37
ENDBRANCH  25  35
ENDBRANCH  21  26
ENDBRANCH   1  21
TORSDOF 10
ENDMDL
MODEL 9
REMARK VINA RESULT:      -7.3      2.795      9.302
REMARK  Name = *****
REMARK                            x       y       z     vdW  Elec       q    Type
REMARK                         _______ _______ _______ _____ _____    ______ ____
ROOT
ATOM      1  C   LIG    1       23.974 -22.070   5.610  0.00  0.00    +0.067 C 
ATOM      2  C   LIG    1       24.930 -23.252   5.451  0.00  0.00    +0.044 C 
ATOM      3  C   LIG    1       24.113 -24.509   5.719  0.00  0.00    +0.142 C 
ATOM      4  N   LIG    1       22.971 -24.031   6.531  0.00  0.00    -0.305 NA
ATOM      5  H   LIG    1       22.189 -24.682   6.435  0.00  0.00    +0.123 HD
ATOM      6  C   LIG    1       22.627 -22.736   5.921  0.00  0.00    +0.096 C 
ENDROOT
BRANCH   3   7
ATOM      7  C   LIG    1       24.952 -25.540   6.490  0.00  0.00    +0.234 C 
ATOM      8  N   LIG    1       24.477 -26.836   6.361  0.00  0.00    -0.284 N 
ATOM      9  H   LIG    1       23.782 -26.944   5.622  0.00  0.00    +0.155 HD
ATOM     10  O   LIG    1       25.900 -25.175   7.180  0.00  0.00    -0.274 OA
BRANCH   8  11
ATOM     11  C   LIG    1       24.991 -27.988   6.986  0.00  0.00    +0.034 A 
ATOM     12  C   LIG    1       25.758 -27.829   8.145  0.00  0.00    +0.038 A 
ATOM     13  C   LIG    1       26.243 -28.954   8.836  0.00  0.00    +0.061 A 
ATOM     14  C   LIG    1       25.967 -30.241   8.360  0.00  0.00    +0.015 A 
ATOM     15  C   LIG    1       25.245 -30.398   7.179  0.00  0.00    +0.003 A 
ATOM     16  C   LIG    1       24.762 -29.279   6.499  0.00  0.00    +0.023 A 
BRANCH  13  17
ATOM     17  C   LIG    1       26.984 -28.736  10.105  0.00  0.00    +0.337 C 
ATOM     18  O   LIG    1       26.801 -27.767  10.820  0.00  0.00    -0.245 OA
BRANCH  17  19
ATOM     19  O   LIG    1       27.903 -29.688  10.376  0.00  0.00    -0.477 OA
ATOM     20  H   LIG    1       28.250 -29.687  11.285  0.00  0.00    +0.295 HD
ENDBRANCH  17  19
ENDBRANCH  13  17
ENDBRANCH   8  11
ENDBRANCH   3   7
BRANCH   1  21
ATOM     21  S   LIG    1       24.538 -20.934   6.942  0.00  0.00    -0.122 S 
BRANCH  21  26
ATOM     22  C   LIG    1       29.357 -19.373   6.961  0.00  0.00    +0.125 C 
ATOM     23  C   LIG    1       28.577 -20.709   6.749  0.00  0.00    +0.104 C 
ATOM     24  N   LIG    1       28.112 -20.148   5.449  0.00  0.00    -0.260 N 
ATOM     25  C   LIG    1       26.724 -20.176   5.414  0.00  0.00    +0.131 C 
ATOM     26  C   LIG    1       26.206 -20.721   6.531  0.00  0.00    +0.019 C 
ATOM     27  C   LIG    1       27.307 -21.131   7.492  0.00  0.00    +0.046 C 
ATOM     28  C   LIG    1       27.267 -20.555   8.898  0.00  0.00    +0.015 C 
ATOM     29  C   LIG    1       28.769 -18.968   5.612  0.00  0.00    +0.228 C 
ATOM     30  O   LIG    1       28.701 -17.962   4.928  0.00  0.00    -0.275 OA
BRANCH  22  32
ATOM     31  C   LIG    1       31.487 -18.423   7.886  0.00  0.00    +0.038 C 
ATOM     32  C   LIG    1       30.865 -19.509   7.021  0.00  0.00    +0.125 C 
BRANCH  32  33
ATOM     33  O   LIG    1       31.168 -20.796   7.558  0.00  0.00    -0.391 OA
ATOM     34  H   LIG    1       31.166 -20.738   8.531  0.00  0.00    +0.210 HD
ENDBRANCH  32  33
ENDBRANCH  22  32
BRANCH  25  35
ATOM     35  C   LIG    1       25.983 -19.660   4.219  0.00  0.00    +0.352 C 
ATOM     36  O   LIG    1       25.228 -20.337   3.537  0.00  0.00    -0.244 OA
BRANCH  35  37
ATOM     37  O   LIG    1       26.277 -18.383   3.885  0.00  0.00    -0.476 OA
ATOM     38  H   LIG    1       26.164 -18.156   2.935  0.00  0.00    +0.295 HD
ENDBRANCH  35  37
ENDBRANCH  25  35
ENDBRANCH  21  26
ENDBRANCH   1  21
TORSDOF 10
ENDMDL
