MODEL 1
REMARK VINA RESULT:      -6.7      0.000      0.000
REMARK  Name = *****
REMARK                            x       y       z     vdW  Elec       q    Type
REMARK                         _______ _______ _______ _____ _____    ______ ____
ROOT
ATOM      1  C   LIG    1       30.486 -19.789   7.618  0.00  0.00    +0.182 C 
ENDROOT
BRANCH   1   2
ATOM      2  C   LIG    1       29.604 -19.384   6.426  0.00  0.00    +0.338 C 
ATOM      3  O   LIG    1       28.622 -20.010   6.051  0.00  0.00    -0.248 OA
BRANCH   2   4
ATOM      4  O   LIG    1       30.014 -18.244   5.826  0.00  0.00    -0.479 OA
ATOM      5  H   LIG    1       30.026 -17.481   6.444  0.00  0.00    +0.295 HD
ENDBRANCH   2   4
ENDBRANCH   1   2
BRANCH   1   6
ATOM      6  O   LIG    1       31.861 -19.908   7.184  0.00  0.00    -0.377 OA
ATOM      7  H   LIG    1       31.864 -19.757   6.207  0.00  0.00    +0.211 HD
ENDBRANCH   1   6
BRANCH   1   8
ATOM      8  C   LIG    1       30.343 -18.756   8.764  0.00  0.00    +0.167 C 
BRANCH   8  10
ATOM      9  O   LIG    1       32.177 -18.218  10.226  0.00  0.00    -0.251 OA
ATOM     10  C   LIG    1       31.657 -18.133   9.131  0.00  0.00    +0.308 C 
BRANCH  10  11
ATOM     11  O   LIG    1       32.183 -17.390   8.140  0.00  0.00    -0.480 OA
ATOM     12  H   LIG    1       33.009 -16.999   8.495  0.00  0.00    +0.295 HD
ENDBRANCH  10  11
ENDBRANCH   8  10
ENDBRANCH   1   8
BRANCH   1  13
ATOM     13  C   LIG    1       30.035 -21.151   8.164  0.00  0.00    +0.167 C 
BRANCH  13  14
ATOM     14  C   LIG    1       30.983 -21.866   9.096  0.00  0.00    +0.308 C 
ATOM     15  O   LIG    1       30.746 -21.997  10.290  0.00  0.00    -0.251 OA
BRANCH  14  16
ATOM     16  O   LIG    1       32.160 -22.251   8.565  0.00  0.00    -0.480 OA
ATOM     17  H   LIG    1       32.160 -22.323   7.586  0.00  0.00    +0.295 HD
ENDBRANCH  14  16
ENDBRANCH  13  14
ENDBRANCH   1  13
TORSDOF 9
ENDMDL
MODEL 2
REMARK VINA RESULT:      -6.4      0.770      3.930
REMARK  Name = *****
REMARK                            x       y       z     vdW  Elec       q    Type
REMARK                         _______ _______ _______ _____ _____    ______ ____
ROOT
ATOM      1  C   LIG    1       30.629 -19.860   7.987  0.00  0.00    +0.182 C 
ENDROOT
BRANCH   1   2
ATOM      2  C   LIG    1       30.963 -21.037   8.917  0.00  0.00    +0.338 C 
ATOM      3  O   LIG    1       30.159 -21.895   9.258  0.00  0.00    -0.248 OA
BRANCH   2   4
ATOM      4  O   LIG    1       32.252 -21.044   9.322  0.00  0.00    -0.479 OA
ATOM      5  H   LIG    1       32.576 -21.950   9.520  0.00  0.00    +0.295 HD
ENDBRANCH   2   4
ENDBRANCH   1   2
BRANCH   1   6
ATOM      6  O   LIG    1       31.685 -19.701   7.010  0.00  0.00    -0.377 OA
ATOM      7  H   LIG    1       31.458 -20.290   6.249  0.00  0.00    +0.211 HD
ENDBRANCH   1   6
BRANCH   1   8
ATOM      8  C   LIG    1       29.258 -20.091   7.304  0.00  0.00    +0.167 C 
BRANCH   8  10
ATOM      9  O   LIG    1       29.732 -18.311   5.755  0.00  0.00    -0.251 OA
ATOM     10  C   LIG    1       29.134 -19.337   6.013  0.00  0.00    +0.308 C 
BRANCH  10  11
ATOM     11  O   LIG    1       28.222 -19.868   5.178  0.00  0.00    -0.480 OA
ATOM     12  H   LIG    1       27.655 -20.454   5.724  0.00  0.00    +0.295 HD
ENDBRANCH  10  11
ENDBRANCH   8  10
ENDBRANCH   1   8
BRANCH   1  13
ATOM     13  C   LIG    1       30.528 -18.562   8.800  0.00  0.00    +0.167 C 
BRANCH  13  14
ATOM     14  C   LIG    1       31.824 -17.895   9.196  0.00  0.00    +0.308 C 
ATOM     15  O   LIG    1       32.325 -18.055  10.302  0.00  0.00    -0.251 OA
BRANCH  14  16
ATOM     16  O   LIG    1       32.337 -17.022   8.308  0.00  0.00    -0.480 OA
ATOM     17  H   LIG    1       31.762 -16.250   8.117  0.00  0.00    +0.295 HD
ENDBRANCH  14  16
ENDBRANCH  13  14
ENDBRANCH   1  13
TORSDOF 9
ENDMDL
MODEL 3
REMARK VINA RESULT:      -6.4      0.872      4.041
REMARK  Name = *****
REMARK                            x       y       z     vdW  Elec       q    Type
REMARK                         _______ _______ _______ _____ _____    ______ ____
ROOT
ATOM      1  C   LIG    1       30.521 -19.761   7.934  0.00  0.00    +0.182 C 
ENDROOT
BRANCH   1   2
ATOM      2  C   LIG    1       31.079 -19.089   9.199  0.00  0.00    +0.338 C 
ATOM      3  O   LIG    1       32.270 -19.015   9.472  0.00  0.00    -0.248 OA
BRANCH   2   4
ATOM      4  O   LIG    1       30.116 -18.567   9.991  0.00  0.00    -0.479 OA
ATOM      5  H   LIG    1       30.488 -18.085  10.762  0.00  0.00    +0.295 HD
ENDBRANCH   2   4
ENDBRANCH   1   2
BRANCH   1   6
ATOM      6  O   LIG    1       31.538 -19.777   6.906  0.00  0.00    -0.377 OA
ATOM      7  H   LIG    1       31.600 -20.709   6.583  0.00  0.00    +0.211 HD
ENDBRANCH   1   6
BRANCH   1   8
ATOM      8  C   LIG    1       30.028 -21.193   8.264  0.00  0.00    +0.167 C 
BRANCH   8  10
ATOM      9  O   LIG    1       30.778 -22.312  10.257  0.00  0.00    -0.251 OA
ATOM     10  C   LIG    1       31.003 -21.943   9.122  0.00  0.00    +0.308 C 
BRANCH  10  11
ATOM     11  O   LIG    1       32.203 -22.106   8.536  0.00  0.00    -0.480 OA
ATOM     12  H   LIG    1       32.049 -22.652   7.736  0.00  0.00    +0.295 HD
ENDBRANCH  10  11
ENDBRANCH   8  10
ENDBRANCH   1   8
BRANCH   1  13
ATOM     13  C   LIG    1       29.317 -18.967   7.407  0.00  0.00    +0.167 C 
BRANCH  13  14
ATOM     14  C   LIG    1       29.070 -19.000   5.918  0.00  0.00    +0.308 C 
ATOM     15  O   LIG    1       28.328 -19.825   5.401  0.00  0.00    -0.251 OA
BRANCH  14  16
ATOM     16  O   LIG    1       29.803 -18.147   5.177  0.00  0.00    -0.480 OA
ATOM     17  H   LIG    1       29.991 -17.288   5.612  0.00  0.00    +0.295 HD
ENDBRANCH  14  16
ENDBRANCH  13  14
ENDBRANCH   1  13
TORSDOF 9
ENDMDL
MODEL 4
REMARK VINA RESULT:      -6.3      1.546      3.683
REMARK  Name = *****
REMARK                            x       y       z     vdW  Elec       q    Type
REMARK                         _______ _______ _______ _____ _____    ______ ____
ROOT
ATOM      1  C   LIG    1       30.666 -19.328   8.403  0.00  0.00    +0.182 C 
ENDROOT
BRANCH   1   2
ATOM      2  C   LIG    1       31.147 -20.753   8.722  0.00  0.00    +0.338 C 
ATOM      3  O   LIG    1       32.140 -21.012   9.390  0.00  0.00    -0.248 OA
BRANCH   2   4
ATOM      4  O   LIG    1       30.351 -21.711   8.198  0.00  0.00    -0.479 OA
ATOM      5  H   LIG    1       29.637 -21.981   8.815  0.00  0.00    +0.295 HD
ENDBRANCH   2   4
ENDBRANCH   1   2
BRANCH   1   6
ATOM      6  O   LIG    1       29.261 -19.209   8.723  0.00  0.00    -0.377 OA
ATOM      7  H   LIG    1       28.862 -18.621   8.035  0.00  0.00    +0.211 HD
ENDBRANCH   1   6
BRANCH   1   8
ATOM      8  C   LIG    1       31.514 -18.291   9.183  0.00  0.00    +0.167 C 
BRANCH   8  10
ATOM      9  O   LIG    1       30.227 -16.527  10.194  0.00  0.00    -0.251 OA
ATOM     10  C   LIG    1       30.730 -17.629  10.278  0.00  0.00    +0.308 C 
BRANCH  10  11
ATOM     11  O   LIG    1       30.700 -18.351  11.413  0.00  0.00    -0.480 OA
ATOM     12  H   LIG    1       30.672 -19.293  11.143  0.00  0.00    +0.295 HD
ENDBRANCH  10  11
ENDBRANCH   8  10
ENDBRANCH   1   8
BRANCH   1  13
ATOM     13  C   LIG    1       30.844 -19.038   6.906  0.00  0.00    +0.167 C 
BRANCH  13  14
ATOM     14  C   LIG    1       29.594 -18.989   6.061  0.00  0.00    +0.308 C 
ATOM     15  O   LIG    1       28.788 -19.911   6.039  0.00  0.00    -0.251 OA
BRANCH  14  16
ATOM     16  O   LIG    1       29.472 -17.926   5.243  0.00  0.00    -0.480 OA
ATOM     17  H   LIG    1       28.652 -17.917   4.705  0.00  0.00    +0.295 HD
ENDBRANCH  14  16
ENDBRANCH  13  14
ENDBRANCH   1  13
TORSDOF 9
ENDMDL
MODEL 5
REMARK VINA RESULT:      -6.0      0.971      3.177
REMARK  Name = *****
REMARK                            x       y       z     vdW  Elec       q    Type
REMARK                         _______ _______ _______ _____ _____    ______ ____
ROOT
ATOM      1  C   LIG    1       30.077 -19.750   7.911  0.00  0.00    +0.182 C 
ENDROOT
BRANCH   1   2
ATOM      2  C   LIG    1       29.316 -19.308   6.650  0.00  0.00    +0.338 C 
ATOM      3  O   LIG    1       28.244 -19.780   6.291  0.00  0.00    -0.248 OA
BRANCH   2   4
ATOM      4  O   LIG    1       29.944 -18.325   5.969  0.00  0.00    -0.479 OA
ATOM      5  H   LIG    1       29.681 -18.299   5.023  0.00  0.00    +0.295 HD
ENDBRANCH   2   4
ENDBRANCH   1   2
BRANCH   1   6
ATOM      6  O   LIG    1       29.476 -19.141   9.077  0.00  0.00    -0.377 OA
ATOM      7  H   LIG    1       28.928 -18.384   8.752  0.00  0.00    +0.211 HD
ENDBRANCH   1   6
BRANCH   1   8
ATOM      8  C   LIG    1       30.078 -21.296   8.019  0.00  0.00    +0.167 C 
BRANCH   8  10
ATOM      9  O   LIG    1       30.836 -21.634  10.278  0.00  0.00    -0.251 OA
ATOM     10  C   LIG    1       31.011 -21.788   9.086  0.00  0.00    +0.308 C 
BRANCH  10  11
ATOM     11  O   LIG    1       32.122 -22.361   8.589  0.00  0.00    -0.480 OA
ATOM     12  H   LIG    1       32.191 -22.070   7.655  0.00  0.00    +0.295 HD
ENDBRANCH  10  11
ENDBRANCH   8  10
ENDBRANCH   1   8
BRANCH   1  13
ATOM     13  C   LIG    1       31.539 -19.292   7.828  0.00  0.00    +0.167 C 
BRANCH  13  14
ATOM     14  C   LIG    1       31.991 -18.250   8.822  0.00  0.00    +0.308 C 
ATOM     15  O   LIG    1       31.998 -18.462  10.028  0.00  0.00    -0.251 OA
BRANCH  14  16
ATOM     16  O   LIG    1       32.274 -17.033   8.318  0.00  0.00    -0.480 OA
ATOM     17  H   LIG    1       32.080 -16.933   7.361  0.00  0.00    +0.295 HD
ENDBRANCH  14  16
ENDBRANCH  13  14
ENDBRANCH   1  13
TORSDOF 9
ENDMDL
MODEL 6
REMARK VINA RESULT:      -6.0      1.840      3.348
REMARK  Name = *****
REMARK                            x       y       z     vdW  Elec       q    Type
REMARK                         _______ _______ _______ _____ _____    ______ ____
ROOT
ATOM      1  C   LIG    1       29.687 -19.909   7.711  0.00  0.00    +0.182 C 
ENDROOT
BRANCH   1   2
ATOM      2  C   LIG    1       30.667 -19.127   6.823  0.00  0.00    +0.338 C 
ATOM      3  O   LIG    1       31.885 -19.228   6.884  0.00  0.00    -0.248 OA
BRANCH   2   4
ATOM      4  O   LIG    1       30.048 -18.310   5.942  0.00  0.00    -0.479 OA
ATOM      5  H   LIG    1       30.075 -18.661   5.025  0.00  0.00    +0.295 HD
ENDBRANCH   2   4
ENDBRANCH   1   2
BRANCH   1   6
ATOM      6  O   LIG    1       29.534 -19.228   8.979  0.00  0.00    -0.377 OA
ATOM      7  H   LIG    1       30.400 -19.310   9.451  0.00  0.00    +0.211 HD
ENDBRANCH   1   6
BRANCH   1   8
ATOM      8  C   LIG    1       28.325 -20.072   6.990  0.00  0.00    +0.167 C 
BRANCH   8  10
ATOM      9  O   LIG    1       26.857 -20.340   8.878  0.00  0.00    -0.251 OA
ATOM     10  C   LIG    1       27.315 -20.780   7.842  0.00  0.00    +0.308 C 
BRANCH  10  11
ATOM     11  O   LIG    1       27.010 -22.009   7.387  0.00  0.00    -0.480 OA
ATOM     12  H   LIG    1       26.293 -21.891   6.728  0.00  0.00    +0.295 HD
ENDBRANCH  10  11
ENDBRANCH   8  10
ENDBRANCH   1   8
BRANCH   1  13
ATOM     13  C   LIG    1       30.236 -21.316   7.985  0.00  0.00    +0.167 C 
BRANCH  13  14
ATOM     14  C   LIG    1       31.060 -21.502   9.237  0.00  0.00    +0.308 C 
ATOM     15  O   LIG    1       30.655 -22.156  10.190  0.00  0.00    -0.251 OA
BRANCH  14  16
ATOM     16  O   LIG    1       32.215 -20.812   9.294  0.00  0.00    -0.480 OA
ATOM     17  H   LIG    1       32.660 -20.689   8.428  0.00  0.00    +0.295 HD
ENDBRANCH  14  16
ENDBRANCH  13  14
ENDBRANCH   1  13
TORSDOF 9
ENDMDL
MODEL 7
REMARK VINA RESULT:      -6.0      2.144      3.081
REMARK  Name = *****
REMARK                            x       y       z     vdW  Elec       q    Type
REMARK                         _______ _______ _______ _____ _____    ______ ____
ROOT
ATOM      1  C   LIG    1       28.904 -20.058   7.268  0.00  0.00    +0.182 C 
ENDROOT
BRANCH   1   2
ATOM      2  C   LIG    1       28.743 -19.443   5.868  0.00  0.00    +0.338 C 
ATOM      3  O   LIG    1       29.349 -18.454   5.476  0.00  0.00    -0.248 OA
BRANCH   2   4
ATOM      4  O   LIG    1       27.862 -20.113   5.093  0.00  0.00    -0.479 OA
ATOM      5  H   LIG    1       27.976 -19.911   4.138  0.00  0.00    +0.295 HD
ENDBRANCH   2   4
ENDBRANCH   1   2
BRANCH   1   6
ATOM      6  O   LIG    1       29.465 -21.386   7.151  0.00  0.00    -0.377 OA
ATOM      7  H   LIG    1       30.398 -21.329   7.473  0.00  0.00    +0.211 HD
ENDBRANCH   1   6
BRANCH   1   8
ATOM      8  C   LIG    1       29.791 -19.146   8.153  0.00  0.00    +0.167 C 
BRANCH   8  10
ATOM      9  O   LIG    1       31.756 -20.040   9.216  0.00  0.00    -0.251 OA
ATOM     10  C   LIG    1       31.211 -19.624   8.213  0.00  0.00    +0.308 C 
BRANCH  10  11
ATOM     11  O   LIG    1       31.866 -19.476   7.047  0.00  0.00    -0.480 OA
ATOM     12  H   LIG    1       32.403 -18.660   7.132  0.00  0.00    +0.295 HD
ENDBRANCH  10  11
ENDBRANCH   8  10
ENDBRANCH   1   8
BRANCH   1  13
ATOM     13  C   LIG    1       27.534 -20.174   7.950  0.00  0.00    +0.167 C 
BRANCH  13  14
ATOM     14  C   LIG    1       26.916 -21.549   8.025  0.00  0.00    +0.308 C 
ATOM     15  O   LIG    1       26.920 -22.316   7.070  0.00  0.00    -0.251 OA
BRANCH  14  16
ATOM     16  O   LIG    1       26.257 -21.842   9.162  0.00  0.00    -0.480 OA
ATOM     17  H   LIG    1       25.779 -22.699   9.147  0.00  0.00    +0.295 HD
ENDBRANCH  14  16
ENDBRANCH  13  14
ENDBRANCH   1  13
TORSDOF 9
ENDMDL
MODEL 8
REMARK VINA RESULT:      -5.8      5.717      7.824
REMARK  Name = *****
REMARK                            x       y       z     vdW  Elec       q    Type
REMARK                         _______ _______ _______ _____ _____    ______ ____
ROOT
ATOM      1  C   LIG    1       24.572 -22.651   6.701  0.00  0.00    +0.182 C 
ENDROOT
BRANCH   1   2
ATOM      2  C   LIG    1       24.195 -24.139   6.635  0.00  0.00    +0.338 C 
ATOM      3  O   LIG    1       25.005 -25.057   6.659  0.00  0.00    -0.248 OA
BRANCH   2   4
ATOM      4  O   LIG    1       22.862 -24.345   6.559  0.00  0.00    -0.479 OA
ATOM      5  H   LIG    1       22.405 -23.645   6.044  0.00  0.00    +0.295 HD
ENDBRANCH   2   4
ENDBRANCH   1   2
BRANCH   1   6
ATOM      6  O   LIG    1       25.148 -22.241   5.438  0.00  0.00    -0.377 OA
ATOM      7  H   LIG    1       24.889 -22.925   4.773  0.00  0.00    +0.211 HD
ENDBRANCH   1   6
BRANCH   1   8
ATOM      8  C   LIG    1       23.327 -21.799   7.055  0.00  0.00    +0.167 C 
BRANCH   8  10
ATOM      9  O   LIG    1       23.044 -19.843   5.684  0.00  0.00    -0.251 OA
ATOM     10  C   LIG    1       22.820 -21.020   5.878  0.00  0.00    +0.308 C 
BRANCH  10  11
ATOM     11  O   LIG    1       22.012 -21.741   5.079  0.00  0.00    -0.480 OA
ATOM     12  H   LIG    1       22.540 -22.508   4.770  0.00  0.00    +0.295 HD
ENDBRANCH  10  11
ENDBRANCH   8  10
ENDBRANCH   1   8
BRANCH   1  13
ATOM     13  C   LIG    1       25.617 -22.422   7.802  0.00  0.00    +0.167 C 
BRANCH  13  14
ATOM     14  C   LIG    1       25.981 -20.992   8.120  0.00  0.00    +0.308 C 
ATOM     15  O   LIG    1       26.447 -20.237   7.276  0.00  0.00    -0.251 OA
BRANCH  14  16
ATOM     16  O   LIG    1       25.874 -20.626   9.412  0.00  0.00    -0.480 OA
ATOM     17  H   LIG    1       26.624 -20.910   9.979  0.00  0.00    +0.295 HD
ENDBRANCH  14  16
ENDBRANCH  13  14
ENDBRANCH   1  13
TORSDOF 9
ENDMDL
MODEL 9
REMARK VINA RESULT:      -5.7      5.928      7.974
REMARK  Name = *****
REMARK                            x       y       z     vdW  Elec       q    Type
REMARK                         _______ _______ _______ _____ _____    ______ ____
ROOT
ATOM      1  C   LIG    1       24.435 -21.680   7.283  0.00  0.00    +0.182 C 
ENDROOT
BRANCH   1   2
ATOM      2  C   LIG    1       25.565 -20.952   8.028  0.00  0.00    +0.338 C 
ATOM      3  O   LIG    1       25.736 -21.001   9.239  0.00  0.00    -0.248 OA
BRANCH   2   4
ATOM      4  O   LIG    1       26.374 -20.248   7.206  0.00  0.00    -0.479 OA
ATOM      5  H   LIG    1       26.342 -19.283   7.388  0.00  0.00    +0.295 HD
ENDBRANCH   2   4
ENDBRANCH   1   2
BRANCH   1   6
ATOM      6  O   LIG    1       23.196 -21.528   8.014  0.00  0.00    -0.377 OA
ATOM      7  H   LIG    1       23.200 -20.614   8.392  0.00  0.00    +0.211 HD
ENDBRANCH   1   6
BRANCH   1   8
ATOM      8  C   LIG    1       24.308 -21.132   5.838  0.00  0.00    +0.167 C 
BRANCH   8  10
ATOM      9  O   LIG    1       22.576 -19.465   5.740  0.00  0.00    -0.251 OA
ATOM     10  C   LIG    1       22.932 -20.611   5.550  0.00  0.00    +0.308 C 
BRANCH  10  11
ATOM     11  O   LIG    1       22.086 -21.566   5.123  0.00  0.00    -0.480 OA
ATOM     12  H   LIG    1       22.591 -22.407   5.129  0.00  0.00    +0.295 HD
ENDBRANCH  10  11
ENDBRANCH   8  10
ENDBRANCH   1   8
BRANCH   1  13
ATOM     13  C   LIG    1       24.753 -23.178   7.183  0.00  0.00    +0.167 C 
BRANCH  13  14
ATOM     14  C   LIG    1       23.728 -24.056   6.505  0.00  0.00    +0.308 C 
ATOM     15  O   LIG    1       22.549 -24.051   6.835  0.00  0.00    -0.251 OA
BRANCH  14  16
ATOM     16  O   LIG    1       24.204 -24.930   5.598  0.00  0.00    -0.480 OA
ATOM     17  H   LIG    1       25.119 -25.238   5.769  0.00  0.00    +0.295 HD
ENDBRANCH  14  16
ENDBRANCH  13  14
ENDBRANCH   1  13
TORSDOF 9
ENDMDL
