MODEL 1
REMARK VINA RESULT:      -2.0      0.000      0.000
REMARK  Name = *****
REMARK                            x       y       z     vdW  Elec       q    Type
REMARK                         _______ _______ _______ _____ _____    ______ ____
ROOT
ATOM      1  C   LIG    1       24.929 -14.126   3.501  0.00  0.00    +0.125 A 
ATOM      2  C   LIG    1       26.161 -14.708   3.196  0.00  0.00    +0.071 A 
ATOM      3 CL   LIG    1       27.564 -13.802   2.762  0.00  0.00    -0.081 Cl
ATOM      4  C   LIG    1       26.295 -16.106   3.231  0.00  0.00    +0.073 A 
ATOM      5  C   LIG    1       25.220 -16.931   3.579  0.00  0.00    +0.149 A 
ATOM      6  N   LIG    1       25.348 -18.315   3.553  0.00  0.00    -0.200 N 
ATOM      7  H   LIG    1       26.286 -18.708   3.498  0.00  0.00    +0.298 HD
ATOM      8  C   LIG    1       24.327 -19.195   3.824  0.00  0.00    +0.328 C 
ATOM      9  N   LIG    1       23.102 -18.901   4.111  0.00  0.00    +0.091 NA
ATOM     10  S   LIG    1       22.636 -17.360   4.271  0.00  0.00    +0.182 S 
ATOM     11  O   LIG    1       22.369 -17.101   5.673  0.00  0.00    -0.125 OA
ATOM     12  O   LIG    1       21.631 -17.069   3.266  0.00  0.00    -0.125 OA
ATOM     13  C   LIG    1       24.007 -16.326   3.867  0.00  0.00    +0.181 A 
ATOM     14  C   LIG    1       23.842 -14.938   3.842  0.00  0.00    +0.065 A 
ENDROOT
BRANCH   1  15
ATOM     15  S   LIG    1       24.728 -12.377   3.428  0.00  0.00    +0.057 S 
ATOM     16  O   LIG    1       23.845 -11.966   4.488  0.00  0.00    -0.153 OA
ATOM     17  O   LIG    1       26.023 -11.775   3.181  0.00  0.00    -0.153 OA
BRANCH  15  18
ATOM     18  N   LIG    1       23.861 -12.123   2.009  0.00  0.00    -0.203 NA
ATOM     19  H   LIG    1       24.504 -11.976   1.230  0.00  0.00    +0.144 HD
ATOM     20  H   LIG    1       23.201 -12.888   1.864  0.00  0.00    +0.144 HD
ENDBRANCH  15  18
ENDBRANCH   1  15
BRANCH   8  21
ATOM     21  C   LIG    1       24.652 -20.698   3.718  0.00  0.00    +0.200 C 
BRANCH  21  22
ATOM     22  S   LIG    1       24.282 -21.567   5.293  0.00  0.00    -0.144 S 
BRANCH  22  23
ATOM     23  C   LIG    1       25.104 -20.465   6.506  0.00  0.00    +0.104 C 
BRANCH  23  24
ATOM     24  C   LIG    1       26.609 -20.521   6.436  0.00  0.00    -0.037 A 
ATOM     25  C   LIG    1       27.326 -21.571   7.028  0.00  0.00    +0.004 A 
ATOM     26  C   LIG    1       28.723 -21.546   7.062  0.00  0.00    +0.000 A 
ATOM     27  C   LIG    1       29.420 -20.485   6.485  0.00  0.00    +0.000 A 
ATOM     28  C   LIG    1       28.720 -19.465   5.845  0.00  0.00    +0.000 A 
ATOM     29  C   LIG    1       27.325 -19.485   5.814  0.00  0.00    +0.004 A 
ENDBRANCH  23  24
ENDBRANCH  22  23
ENDBRANCH  21  22
ENDBRANCH   8  21
TORSDOF 6
ENDMDL
MODEL 2
REMARK VINA RESULT:       0.0      3.203      4.619
REMARK  Name = *****
REMARK                            x       y       z     vdW  Elec       q    Type
REMARK                         _______ _______ _______ _____ _____    ______ ____
ROOT
ATOM      1  C   LIG    1       27.353 -14.808   3.736  0.00  0.00    +0.125 A 
ATOM      2  C   LIG    1       26.074 -15.042   3.230  0.00  0.00    +0.071 A 
ATOM      3 CL   LIG    1       25.109 -13.830   2.471  0.00  0.00    -0.081 Cl
ATOM      4  C   LIG    1       25.512 -16.326   3.333  0.00  0.00    +0.073 A 
ATOM      5  C   LIG    1       26.216 -17.382   3.923  0.00  0.00    +0.149 A 
ATOM      6  N   LIG    1       25.627 -18.632   4.073  0.00  0.00    -0.200 N 
ATOM      7  H   LIG    1       24.775 -18.827   3.551  0.00  0.00    +0.298 HD
ATOM      8  C   LIG    1       26.226 -19.704   4.692  0.00  0.00    +0.328 C 
ATOM      9  N   LIG    1       27.391 -19.727   5.252  0.00  0.00    +0.091 NA
ATOM     10  S   LIG    1       28.360 -18.433   5.205  0.00  0.00    +0.182 S 
ATOM     11  O   LIG    1       29.472 -18.718   4.319  0.00  0.00    -0.125 OA
ATOM     12  O   LIG    1       28.600 -17.978   6.562  0.00  0.00    -0.125 OA
ATOM     13  C   LIG    1       27.479 -17.117   4.426  0.00  0.00    +0.181 A 
ATOM     14  C   LIG    1       28.066 -15.851   4.337  0.00  0.00    +0.065 A 
ENDROOT
BRANCH   1  15
ATOM     15  S   LIG    1       28.063 -13.197   3.649  0.00  0.00    +0.057 S 
ATOM     16  O   LIG    1       29.472 -13.323   3.382  0.00  0.00    -0.153 OA
ATOM     17  O   LIG    1       27.173 -12.343   2.888  0.00  0.00    -0.153 OA
BRANCH  15  18
ATOM     18  N   LIG    1       27.964 -12.620   5.226  0.00  0.00    -0.203 NA
ATOM     19  H   LIG    1       27.372 -13.236   5.785  0.00  0.00    +0.144 HD
ATOM     20  H   LIG    1       28.902 -12.489   5.607  0.00  0.00    +0.144 HD
ENDBRANCH  15  18
ENDBRANCH   1  15
BRANCH   8  21
ATOM     21  C   LIG    1       25.407 -21.006   4.788  0.00  0.00    +0.200 C 
BRANCH  21  22
ATOM     22  S   LIG    1       25.265 -21.572   6.528  0.00  0.00    -0.144 S 
BRANCH  22  23
ATOM     23  C   LIG    1       23.446 -21.567   6.756  0.00  0.00    +0.104 C 
BRANCH  23  24
ATOM     24  C   LIG    1       22.732 -20.631   5.814  0.00  0.00    -0.037 A 
ATOM     25  C   LIG    1       21.946 -21.121   4.759  0.00  0.00    +0.004 A 
ATOM     26  C   LIG    1       21.391 -20.245   3.822  0.00  0.00    +0.000 A 
ATOM     27  C   LIG    1       21.594 -18.871   3.939  0.00  0.00    +0.000 A 
ATOM     28  C   LIG    1       22.325 -18.369   5.013  0.00  0.00    +0.000 A 
ATOM     29  C   LIG    1       22.885 -19.241   5.948  0.00  0.00    +0.004 A 
ENDBRANCH  23  24
ENDBRANCH  22  23
ENDBRANCH  21  22
ENDBRANCH   8  21
TORSDOF 6
ENDMDL
