MODEL 1
REMARK VINA RESULT:      12.6      0.000      0.000
REMARK  Name = *****
REMARK                            x       y       z     vdW  Elec       q    Type
REMARK                         _______ _______ _______ _____ _____    ______ ____
ROOT
ATOM      1  O   LIG    1       21.203 -15.897   2.379  0.00  0.00    -0.273 OA
ATOM      2  C   LIG    1       21.253 -16.929   3.035  0.00  0.00    +0.238 C 
ATOM      3  C   LIG    1       22.193 -17.293   4.225  0.00  0.00    +0.115 C 
ATOM      4  C   LIG    1       21.718 -16.370   5.373  0.00  0.00    +0.051 C 
ATOM      5  C   LIG    1       22.803 -15.562   6.078  0.00  0.00    +0.087 C 
ATOM      6  N   LIG    1       23.876 -15.088   5.212  0.00  0.00    -0.302 NA
ATOM      7  C   LIG    1       24.540 -16.256   4.620  0.00  0.00    +0.087 C 
ATOM      8  C   LIG    1       23.647 -17.105   3.717  0.00  0.00    +0.051 C 
ATOM      9  N   LIG    1       21.853 -18.730   4.411  0.00  0.00    -0.300 N 
ATOM     10  C   LIG    1       20.719 -19.125   3.605  0.00  0.00    +0.214 C 
ATOM     11  N   LIG    1       20.386 -17.960   2.857  0.00  0.00    -0.298 N 
ATOM     12  H   LIG    1       19.711 -17.954   2.101  0.00  0.00    +0.150 HD
ENDROOT
BRANCH   9  13
ATOM     13  C   LIG    1       22.448 -19.653   5.249  0.00  0.00    +0.032 A 
ATOM     14  C   LIG    1       23.817 -19.674   5.517  0.00  0.00    +0.023 A 
ATOM     15  C   LIG    1       24.390 -20.592   6.411  0.00  0.00    +0.002 A 
ATOM     16  C   LIG    1       23.600 -21.542   7.044  0.00  0.00    +0.000 A 
ATOM     17  C   LIG    1       22.240 -21.572   6.781  0.00  0.00    +0.002 A 
ATOM     18  C   LIG    1       21.679 -20.636   5.901  0.00  0.00    +0.023 A 
ENDBRANCH   9  13
BRANCH   6  19
ATOM     19  C   LIG    1       23.495 -14.087   4.201  0.00  0.00    +0.084 C 
BRANCH  19  20
ATOM     20  C   LIG    1       24.645 -13.504   3.361  0.00  0.00    +0.016 C 
BRANCH  20  21
ATOM     21  C   LIG    1       25.201 -14.569   2.389  0.00  0.00    +0.014 C 
BRANCH  21  22
ATOM     22  C   LIG    1       26.636 -15.034   2.741  0.00  0.00    +0.049 C 
BRANCH  22  23
ATOM     23  C   LIG    1       26.645 -16.509   3.190  0.00  0.00    -0.040 A 
ATOM     24  C   LIG    1       25.724 -17.467   2.723  0.00  0.00    +0.007 A 
ATOM     25  C   LIG    1       25.779 -18.801   3.143  0.00  0.00    +0.038 A 
ATOM     26  C   LIG    1       26.766 -19.202   4.028  0.00  0.00    +0.123 A 
ATOM     27  F   LIG    1       26.817 -20.480   4.428  0.00  0.00    -0.205 F 
ATOM     28  C   LIG    1       27.700 -18.291   4.500  0.00  0.00    +0.038 A 
ATOM     29  C   LIG    1       27.644 -16.955   4.081  0.00  0.00    +0.007 A 
ENDBRANCH  22  23
BRANCH  22  30
ATOM     30  C   LIG    1       27.350 -14.065   3.685  0.00  0.00    -0.040 A 
ATOM     31  C   LIG    1       26.883 -13.828   4.991  0.00  0.00    +0.007 A 
ATOM     32  C   LIG    1       27.567 -12.976   5.856  0.00  0.00    +0.038 A 
ATOM     33  C   LIG    1       28.683 -12.292   5.397  0.00  0.00    +0.123 A 
ATOM     34  F   LIG    1       29.326 -11.452   6.219  0.00  0.00    -0.205 F 
ATOM     35  C   LIG    1       29.130 -12.451   4.090  0.00  0.00    +0.038 A 
ATOM     36  C   LIG    1       28.477 -13.348   3.241  0.00  0.00    +0.007 A 
ENDBRANCH  22  30
ENDBRANCH  21  22
ENDBRANCH  20  21
ENDBRANCH  19  20
ENDBRANCH   6  19
TORSDOF 7
ENDMDL
MODEL 2
REMARK VINA RESULT:      15.4      2.439      6.913
REMARK  Name = *****
REMARK                            x       y       z     vdW  Elec       q    Type
REMARK                         _______ _______ _______ _____ _____    ______ ____
ROOT
ATOM      1  O   LIG    1       23.105 -16.042   3.813  0.00  0.00    -0.273 OA
ATOM      2  C   LIG    1       23.866 -15.084   3.868  0.00  0.00    +0.238 C 
ATOM      3  C   LIG    1       25.422 -15.057   3.749  0.00  0.00    +0.115 C 
ATOM      4  C   LIG    1       25.690 -15.419   2.269  0.00  0.00    +0.051 C 
ATOM      5  C   LIG    1       26.697 -16.537   2.022  0.00  0.00    +0.087 C 
ATOM      6  N   LIG    1       26.666 -17.619   3.001  0.00  0.00    -0.302 NA
ATOM      7  C   LIG    1       26.979 -17.054   4.320  0.00  0.00    +0.087 C 
ATOM      8  C   LIG    1       25.967 -16.029   4.829  0.00  0.00    +0.051 C 
ATOM      9  N   LIG    1       25.695 -13.635   4.094  0.00  0.00    -0.300 N 
ATOM     10  C   LIG    1       24.479 -12.859   4.191  0.00  0.00    +0.214 C 
ATOM     11  N   LIG    1       23.432 -13.802   3.978  0.00  0.00    -0.298 N 
ATOM     12  H   LIG    1       22.451 -13.589   4.114  0.00  0.00    +0.150 HD
ENDROOT
BRANCH   9  13
ATOM     13  C   LIG    1       26.916 -13.016   4.280  0.00  0.00    +0.032 A 
ATOM     14  C   LIG    1       27.402 -12.641   5.534  0.00  0.00    +0.023 A 
ATOM     15  C   LIG    1       28.667 -12.058   5.701  0.00  0.00    +0.002 A 
ATOM     16  C   LIG    1       29.475 -11.804   4.600  0.00  0.00    +0.000 A 
ATOM     17  C   LIG    1       29.014 -12.136   3.336  0.00  0.00    +0.002 A 
ATOM     18  C   LIG    1       27.757 -12.736   3.186  0.00  0.00    +0.023 A 
ENDBRANCH   9  13
BRANCH   6  19
ATOM     19  C   LIG    1       25.444 -18.439   3.017  0.00  0.00    +0.084 C 
BRANCH  19  20
ATOM     20  C   LIG    1       25.250 -19.386   1.819  0.00  0.00    +0.016 C 
BRANCH  20  21
ATOM     21  C   LIG    1       24.488 -20.658   2.250  0.00  0.00    +0.014 C 
BRANCH  21  22
ATOM     22  C   LIG    1       24.156 -20.693   3.763  0.00  0.00    +0.049 C 
BRANCH  22  23
ATOM     23  C   LIG    1       22.999 -19.729   4.097  0.00  0.00    -0.040 A 
ATOM     24  C   LIG    1       22.841 -19.114   5.354  0.00  0.00    +0.007 A 
ATOM     25  C   LIG    1       21.786 -18.231   5.610  0.00  0.00    +0.038 A 
ATOM     26  C   LIG    1       20.878 -17.938   4.606  0.00  0.00    +0.123 A 
ATOM     27  F   LIG    1       19.870 -17.090   4.853  0.00  0.00    -0.205 F 
ATOM     28  C   LIG    1       21.008 -18.512   3.350  0.00  0.00    +0.038 A 
ATOM     29  C   LIG    1       22.063 -19.398   3.095  0.00  0.00    +0.007 A 
ENDBRANCH  22  23
BRANCH  22  30
ATOM     30  C   LIG    1       25.401 -20.540   4.639  0.00  0.00    -0.040 A 
ATOM     31  C   LIG    1       26.697 -20.609   4.097  0.00  0.00    +0.007 A 
ATOM     32  C   LIG    1       27.823 -20.425   4.898  0.00  0.00    +0.038 A 
ATOM     33  C   LIG    1       27.664 -20.247   6.265  0.00  0.00    +0.123 A 
ATOM     34  F   LIG    1       28.746 -20.095   7.041  0.00  0.00    -0.205 F 
ATOM     35  C   LIG    1       26.399 -20.242   6.842  0.00  0.00    +0.038 A 
ATOM     36  C   LIG    1       25.269 -20.371   6.030  0.00  0.00    +0.007 A 
ENDBRANCH  22  30
ENDBRANCH  21  22
ENDBRANCH  20  21
ENDBRANCH  19  20
ENDBRANCH   6  19
TORSDOF 7
ENDMDL
