MODEL 1
REMARK VINA RESULT:      -8.0      0.000      0.000
REMARK  Name = *****
REMARK                            x       y       z     vdW  Elec       q    Type
REMARK                         _______ _______ _______ _____ _____    ______ ____
ROOT
ATOM      1  C   LIG    1       22.667 -21.524   5.888  0.00  0.00    +0.129 C 
ATOM      2  N   LIG    1       23.784 -20.753   5.369  0.00  0.00    -0.330 N 
ATOM      3  C   LIG    1       25.016 -20.618   5.982  0.00  0.00    +0.039 C 
ATOM      4  C   LIG    1       25.971 -20.129   5.008  0.00  0.00    +0.006 C 
ATOM      5  C   LIG    1       27.265 -19.915   5.257  0.00  0.00    +0.041 C 
ATOM      6  C   LIG    1       27.780 -20.159   6.626  0.00  0.00    +0.129 C 
ATOM      7  C   LIG    1       26.774 -20.669   7.665  0.00  0.00    +0.207 C 
ATOM      8  O   LIG    1       27.118 -20.905   8.817  0.00  0.00    -0.285 OA
ATOM      9  N   LIG    1       29.042 -19.920   6.860  0.00  0.00    -0.175 NA
ATOM     10  C   LIG    1       25.248 -19.910   3.704  0.00  0.00    +0.164 C 
ATOM     11  C   LIG    1       25.371 -20.875   7.244  0.00  0.00    +0.076 C 
ATOM     12  C   LIG    1       23.916 -20.669   3.902  0.00  0.00    +0.140 C 
ENDROOT
BRANCH   9  13
ATOM     13  N   LIG    1       29.515 -20.146   8.125  0.00  0.00    -0.190 N 
ATOM     14  H   LIG    1       28.885 -20.474   8.862  0.00  0.00    +0.179 HD
ATOM     15  C   LIG    1       30.821 -19.909   8.470  0.00  0.00    +0.317 C 
ATOM     16  O   LIG    1       31.263 -20.057   9.603  0.00  0.00    -0.251 OA
ATOM     17  N   LIG    1       31.600 -19.491   7.440  0.00  0.00    -0.312 N 
ATOM     18  H   LIG    1       32.523 -19.148   7.654  0.00  0.00    +0.146 HD
ATOM     19  H   LIG    1       31.100 -19.160   6.627  0.00  0.00    +0.146 HD
ENDBRANCH   9  13
BRANCH  10  20
ATOM     20  O   LIG    1       25.013 -18.510   3.551  0.00  0.00    -0.386 OA
ATOM     21  H   LIG    1       24.533 -18.407   2.708  0.00  0.00    +0.210 HD
ENDBRANCH  10  20
TORSDOF 2
ENDMDL
MODEL 2
REMARK VINA RESULT:      -7.9      1.714      2.692
REMARK  Name = *****
REMARK                            x       y       z     vdW  Elec       q    Type
REMARK                         _______ _______ _______ _____ _____    ______ ____
ROOT
ATOM      1  C   LIG    1       23.628 -20.516   3.802  0.00  0.00    +0.129 C 
ATOM      2  N   LIG    1       24.109 -21.041   5.068  0.00  0.00    -0.330 N 
ATOM      3  C   LIG    1       25.315 -20.717   5.662  0.00  0.00    +0.039 C 
ATOM      4  C   LIG    1       25.268 -21.109   7.056  0.00  0.00    +0.006 C 
ATOM      5  C   LIG    1       26.256 -20.913   7.931  0.00  0.00    +0.041 C 
ATOM      6  C   LIG    1       27.512 -20.278   7.463  0.00  0.00    +0.129 C 
ATOM      7  C   LIG    1       27.572 -19.867   5.986  0.00  0.00    +0.207 C 
ATOM      8  O   LIG    1       28.569 -19.329   5.519  0.00  0.00    -0.285 OA
ATOM      9  N   LIG    1       28.479 -20.117   8.325  0.00  0.00    -0.175 NA
ATOM     10  C   LIG    1       23.937 -21.764   7.320  0.00  0.00    +0.164 C 
ATOM     11  C   LIG    1       26.394 -20.134   5.133  0.00  0.00    +0.076 C 
ATOM     12  C   LIG    1       23.093 -21.370   6.087  0.00  0.00    +0.140 C 
ENDROOT
BRANCH   9  13
ATOM     13  N   LIG    1       29.637 -19.531   7.889  0.00  0.00    -0.190 N 
ATOM     14  H   LIG    1       29.629 -18.575   7.525  0.00  0.00    +0.179 HD
ATOM     15  C   LIG    1       30.835 -20.199   7.881  0.00  0.00    +0.317 C 
ATOM     16  O   LIG    1       31.879 -19.720   7.455  0.00  0.00    -0.251 OA
ATOM     17  N   LIG    1       30.773 -21.456   8.392  0.00  0.00    -0.312 N 
ATOM     18  H   LIG    1       31.575 -22.055   8.271  0.00  0.00    +0.146 HD
ATOM     19  H   LIG    1       29.844 -21.843   8.475  0.00  0.00    +0.146 HD
ENDBRANCH   9  13
BRANCH  10  20
ATOM     20  O   LIG    1       24.133 -23.177   7.366  0.00  0.00    -0.386 OA
ATOM     21  H   LIG    1       25.096 -23.314   7.445  0.00  0.00    +0.210 HD
ENDBRANCH  10  20
TORSDOF 2
ENDMDL
MODEL 3
REMARK VINA RESULT:      -7.7      1.956      3.005
REMARK  Name = *****
REMARK                            x       y       z     vdW  Elec       q    Type
REMARK                         _______ _______ _______ _____ _____    ______ ____
ROOT
ATOM      1  C   LIG    1       24.081 -20.706   4.729  0.00  0.00    +0.129 C 
ATOM      2  N   LIG    1       24.955 -21.419   5.645  0.00  0.00    -0.330 N 
ATOM      3  C   LIG    1       26.203 -20.988   6.057  0.00  0.00    +0.039 C 
ATOM      4  C   LIG    1       26.586 -21.734   7.240  0.00  0.00    +0.006 C 
ATOM      5  C   LIG    1       27.721 -21.548   7.917  0.00  0.00    +0.041 C 
ATOM      6  C   LIG    1       28.688 -20.536   7.429  0.00  0.00    +0.129 C 
ATOM      7  C   LIG    1       28.293 -19.747   6.174  0.00  0.00    +0.207 C 
ATOM      8  O   LIG    1       29.030 -18.885   5.710  0.00  0.00    -0.285 OA
ATOM      9  N   LIG    1       29.805 -20.385   8.089  0.00  0.00    -0.175 NA
ATOM     10  C   LIG    1       25.497 -22.730   7.545  0.00  0.00    +0.164 C 
ATOM     11  C   LIG    1       26.995 -20.049   5.534  0.00  0.00    +0.076 C 
ATOM     12  C   LIG    1       24.308 -22.234   6.691  0.00  0.00    +0.140 C 
ENDROOT
BRANCH   9  13
ATOM     13  N   LIG    1       30.696 -19.449   7.635  0.00  0.00    -0.190 N 
ATOM     14  H   LIG    1       30.854 -19.327   6.632  0.00  0.00    +0.179 HD
ATOM     15  C   LIG    1       31.437 -18.672   8.489  0.00  0.00    +0.317 C 
ATOM     16  O   LIG    1       32.274 -17.859   8.116  0.00  0.00    -0.251 OA
ATOM     17  N   LIG    1       31.165 -18.877   9.803  0.00  0.00    -0.312 N 
ATOM     18  H   LIG    1       31.780 -18.459  10.484  0.00  0.00    +0.146 HD
ATOM     19  H   LIG    1       30.661 -19.727  10.013  0.00  0.00    +0.146 HD
ENDBRANCH   9  13
BRANCH  10  20
ATOM     20  O   LIG    1       25.930 -24.017   7.108  0.00  0.00    -0.386 OA
ATOM     21  H   LIG    1       25.119 -24.526   6.919  0.00  0.00    +0.210 HD
ENDBRANCH  10  20
TORSDOF 2
ENDMDL
MODEL 4
REMARK VINA RESULT:      -7.6      5.158      7.044
REMARK  Name = *****
REMARK                            x       y       z     vdW  Elec       q    Type
REMARK                         _______ _______ _______ _____ _____    ______ ____
ROOT
ATOM      1  C   LIG    1       26.321 -20.712   7.284  0.00  0.00    +0.129 C 
ATOM      2  N   LIG    1       25.167 -21.490   6.869  0.00  0.00    -0.330 N 
ATOM      3  C   LIG    1       25.158 -22.856   6.653  0.00  0.00    +0.039 C 
ATOM      4  C   LIG    1       23.784 -23.318   6.645  0.00  0.00    +0.006 C 
ATOM      5  C   LIG    1       23.415 -24.591   6.492  0.00  0.00    +0.041 C 
ATOM      6  C   LIG    1       24.462 -25.621   6.285  0.00  0.00    +0.129 C 
ATOM      7  C   LIG    1       25.918 -25.139   6.285  0.00  0.00    +0.207 C 
ATOM      8  O   LIG    1       26.845 -25.924   6.130  0.00  0.00    -0.285 OA
ATOM      9  N   LIG    1       24.082 -26.858   6.111  0.00  0.00    -0.175 NA
ATOM     10  C   LIG    1       22.882 -22.125   6.830  0.00  0.00    +0.164 C 
ATOM     11  C   LIG    1       26.181 -23.697   6.480  0.00  0.00    +0.076 C 
ATOM     12  C   LIG    1       23.844 -21.022   7.326  0.00  0.00    +0.140 C 
ENDROOT
BRANCH   9  13
ATOM     13  N   LIG    1       25.052 -27.806   5.920  0.00  0.00    -0.190 N 
ATOM     14  H   LIG    1       26.037 -27.579   6.077  0.00  0.00    +0.179 HD
ATOM     15  C   LIG    1       24.760 -29.071   5.476  0.00  0.00    +0.317 C 
ATOM     16  O   LIG    1       25.607 -29.926   5.252  0.00  0.00    -0.251 OA
ATOM     17  N   LIG    1       23.433 -29.305   5.304  0.00  0.00    -0.312 N 
ATOM     18  H   LIG    1       23.161 -30.153   4.832  0.00  0.00    +0.146 HD
ATOM     19  H   LIG    1       22.850 -28.481   5.267  0.00  0.00    +0.146 HD
ENDBRANCH   9  13
BRANCH  10  20
ATOM     20  O   LIG    1       22.330 -21.779   5.560  0.00  0.00    -0.386 OA
ATOM     21  H   LIG    1       22.892 -22.215   4.892  0.00  0.00    +0.210 HD
ENDBRANCH  10  20
TORSDOF 2
ENDMDL
MODEL 5
REMARK VINA RESULT:      -6.9      2.439      5.784
REMARK  Name = *****
REMARK                            x       y       z     vdW  Elec       q    Type
REMARK                         _______ _______ _______ _____ _____    ______ ____
ROOT
ATOM      1  C   LIG    1       31.230 -20.777   8.813  0.00  0.00    +0.129 C 
ATOM      2  N   LIG    1       30.459 -20.203   7.724  0.00  0.00    -0.330 N 
ATOM      3  C   LIG    1       29.198 -20.615   7.333  0.00  0.00    +0.039 C 
ATOM      4  C   LIG    1       28.604 -19.582   6.508  0.00  0.00    +0.006 C 
ATOM      5  C   LIG    1       27.377 -19.641   5.987  0.00  0.00    +0.041 C 
ATOM      6  C   LIG    1       26.554 -20.850   6.230  0.00  0.00    +0.129 C 
ATOM      7  C   LIG    1       27.178 -21.952   7.096  0.00  0.00    +0.207 C 
ATOM      8  O   LIG    1       26.563 -22.980   7.353  0.00  0.00    -0.285 OA
ATOM      9  N   LIG    1       25.365 -20.903   5.692  0.00  0.00    -0.175 NA
ATOM     10  C   LIG    1       29.606 -18.467   6.352  0.00  0.00    +0.164 C 
ATOM     11  C   LIG    1       28.545 -21.745   7.620  0.00  0.00    +0.076 C 
ATOM     12  C   LIG    1       30.649 -18.765   7.453  0.00  0.00    +0.140 C 
ENDROOT
BRANCH   9  13
ATOM     13  N   LIG    1       24.608 -22.021   5.917  0.00  0.00    -0.190 N 
ATOM     14  H   LIG    1       24.810 -22.893   5.421  0.00  0.00    +0.179 HD
ATOM     15  C   LIG    1       23.536 -22.017   6.773  0.00  0.00    +0.317 C 
ATOM     16  O   LIG    1       22.813 -22.987   6.961  0.00  0.00    -0.251 OA
ATOM     17  N   LIG    1       23.337 -20.834   7.407  0.00  0.00    -0.312 N 
ATOM     18  H   LIG    1       22.480 -20.713   7.924  0.00  0.00    +0.146 HD
ATOM     19  H   LIG    1       23.814 -20.041   7.002  0.00  0.00    +0.146 HD
ENDBRANCH   9  13
BRANCH  10  20
ATOM     20  O   LIG    1       30.196 -18.573   5.056  0.00  0.00    -0.386 OA
ATOM     21  H   LIG    1       29.470 -18.446   4.417  0.00  0.00    +0.210 HD
ENDBRANCH  10  20
TORSDOF 2
ENDMDL
MODEL 6
REMARK VINA RESULT:      -6.8      4.912      6.497
REMARK  Name = *****
REMARK                            x       y       z     vdW  Elec       q    Type
REMARK                         _______ _______ _______ _____ _____    ______ ____
ROOT
ATOM      1  C   LIG    1       23.242 -20.384   6.573  0.00  0.00    +0.129 C 
ATOM      2  N   LIG    1       24.391 -21.146   7.033  0.00  0.00    -0.330 N 
ATOM      3  C   LIG    1       24.562 -22.509   6.873  0.00  0.00    +0.039 C 
ATOM      4  C   LIG    1       25.958 -22.832   7.089  0.00  0.00    +0.006 C 
ATOM      5  C   LIG    1       26.476 -24.057   6.982  0.00  0.00    +0.041 C 
ATOM      6  C   LIG    1       25.578 -25.188   6.648  0.00  0.00    +0.129 C 
ATOM      7  C   LIG    1       24.097 -24.856   6.424  0.00  0.00    +0.207 C 
ATOM      8  O   LIG    1       23.289 -25.729   6.135  0.00  0.00    -0.285 OA
ATOM      9  N   LIG    1       26.097 -26.384   6.572  0.00  0.00    -0.175 NA
ATOM     10  C   LIG    1       26.687 -21.564   7.452  0.00  0.00    +0.164 C 
ATOM     11  C   LIG    1       23.664 -23.448   6.562  0.00  0.00    +0.076 C 
ATOM     12  C   LIG    1       25.693 -20.452   7.050  0.00  0.00    +0.140 C 
ENDROOT
BRANCH   9  13
ATOM     13  N   LIG    1       25.264 -27.427   6.264  0.00  0.00    -0.190 N 
ATOM     14  H   LIG    1       24.651 -27.376   5.446  0.00  0.00    +0.179 HD
ATOM     15  C   LIG    1       25.183 -28.552   7.044  0.00  0.00    +0.317 C 
ATOM     16  O   LIG    1       24.416 -29.480   6.821  0.00  0.00    -0.251 OA
ATOM     17  N   LIG    1       26.035 -28.556   8.101  0.00  0.00    -0.312 N 
ATOM     18  H   LIG    1       25.917 -29.273   8.800  0.00  0.00    +0.146 HD
ATOM     19  H   LIG    1       26.430 -27.658   8.341  0.00  0.00    +0.146 HD
ENDBRANCH   9  13
BRANCH  10  20
ATOM     20  O   LIG    1       26.905 -21.560   8.863  0.00  0.00    -0.386 OA
ATOM     21  H   LIG    1       26.089 -21.916   9.264  0.00  0.00    +0.210 HD
ENDBRANCH  10  20
TORSDOF 2
ENDMDL
MODEL 7
REMARK VINA RESULT:      -6.8      2.883      5.920
REMARK  Name = *****
REMARK                            x       y       z     vdW  Elec       q    Type
REMARK                         _______ _______ _______ _____ _____    ______ ____
ROOT
ATOM      1  C   LIG    1       29.277 -18.007   4.981  0.00  0.00    +0.129 C 
ATOM      2  N   LIG    1       29.226 -18.898   6.128  0.00  0.00    -0.330 N 
ATOM      3  C   LIG    1       28.251 -19.851   6.358  0.00  0.00    +0.039 C 
ATOM      4  C   LIG    1       28.737 -20.785   7.354  0.00  0.00    +0.006 C 
ATOM      5  C   LIG    1       28.059 -21.849   7.788  0.00  0.00    +0.041 C 
ATOM      6  C   LIG    1       26.700 -22.101   7.251  0.00  0.00    +0.129 C 
ATOM      7  C   LIG    1       26.175 -21.113   6.201  0.00  0.00    +0.207 C 
ATOM      8  O   LIG    1       25.066 -21.252   5.699  0.00  0.00    -0.285 OA
ATOM      9  N   LIG    1       26.040 -23.132   7.705  0.00  0.00    -0.175 NA
ATOM     10  C   LIG    1       30.105 -20.336   7.796  0.00  0.00    +0.164 C 
ATOM     11  C   LIG    1       27.043 -19.983   5.803  0.00  0.00    +0.076 C 
ATOM     12  C   LIG    1       30.516 -19.315   6.710  0.00  0.00    +0.140 C 
ENDROOT
BRANCH   9  13
ATOM     13  N   LIG    1       24.785 -23.361   7.207  0.00  0.00    -0.190 N 
ATOM     14  H   LIG    1       24.070 -22.630   7.249  0.00  0.00    +0.179 HD
ATOM     15  C   LIG    1       24.420 -24.571   6.675  0.00  0.00    +0.317 C 
ATOM     16  O   LIG    1       23.294 -24.821   6.264  0.00  0.00    -0.251 OA
ATOM     17  N   LIG    1       25.422 -25.486   6.638  0.00  0.00    -0.312 N 
ATOM     18  H   LIG    1       25.184 -26.438   6.409  0.00  0.00    +0.146 HD
ATOM     19  H   LIG    1       26.220 -25.277   7.221  0.00  0.00    +0.146 HD
ENDBRANCH   9  13
BRANCH  10  20
ATOM     20  O   LIG    1       29.980 -19.697   9.066  0.00  0.00    -0.386 OA
ATOM     21  H   LIG    1       29.044 -19.431   9.144  0.00  0.00    +0.210 HD
ENDBRANCH  10  20
TORSDOF 2
ENDMDL
MODEL 8
REMARK VINA RESULT:      -6.3      5.921      7.521
REMARK  Name = *****
REMARK                            x       y       z     vdW  Elec       q    Type
REMARK                         _______ _______ _______ _____ _____    ______ ____
ROOT
ATOM      1  C   LIG    1       26.323 -29.216   8.595  0.00  0.00    +0.129 C 
ATOM      2  N   LIG    1       25.536 -28.774   7.457  0.00  0.00    -0.330 N 
ATOM      3  C   LIG    1       25.458 -27.473   6.995  0.00  0.00    +0.039 C 
ATOM      4  C   LIG    1       24.921 -27.487   5.649  0.00  0.00    +0.006 C 
ATOM      5  C   LIG    1       24.742 -26.401   4.895  0.00  0.00    +0.041 C 
ATOM      6  C   LIG    1       25.081 -25.072   5.459  0.00  0.00    +0.129 C 
ATOM      7  C   LIG    1       25.644 -25.048   6.887  0.00  0.00    +0.207 C 
ATOM      8  O   LIG    1       25.958 -23.994   7.426  0.00  0.00    -0.285 OA
ATOM      9  N   LIG    1       24.876 -24.017   4.717  0.00  0.00    -0.175 NA
ATOM     10  C   LIG    1       24.608 -28.913   5.279  0.00  0.00    +0.164 C 
ATOM     11  C   LIG    1       25.802 -26.333   7.601  0.00  0.00    +0.076 C 
ATOM     12  C   LIG    1       25.359 -29.735   6.351  0.00  0.00    +0.140 C 
ENDROOT
BRANCH   9  13
ATOM     13  N   LIG    1       25.190 -22.792   5.242  0.00  0.00    -0.190 N 
ATOM     14  H   LIG    1       25.827 -22.718   6.039  0.00  0.00    +0.179 HD
ATOM     15  C   LIG    1       24.643 -21.630   4.761  0.00  0.00    +0.317 C 
ATOM     16  O   LIG    1       24.868 -20.524   5.238  0.00  0.00    -0.251 OA
ATOM     17  N   LIG    1       23.819 -21.803   3.696  0.00  0.00    -0.312 N 
ATOM     18  H   LIG    1       23.264 -21.018   3.395  0.00  0.00    +0.146 HD
ATOM     19  H   LIG    1       23.503 -22.751   3.544  0.00  0.00    +0.146 HD
ENDBRANCH   9  13
BRANCH  10  20
ATOM     20  O   LIG    1       23.198 -29.107   5.391  0.00  0.00    -0.386 OA
ATOM     21  H   LIG    1       22.868 -28.377   5.948  0.00  0.00    +0.210 HD
ENDBRANCH  10  20
TORSDOF 2
ENDMDL
MODEL 9
REMARK VINA RESULT:      -5.5      7.519      9.030
REMARK  Name = *****
REMARK                            x       y       z     vdW  Elec       q    Type
REMARK                         _______ _______ _______ _____ _____    ______ ____
ROOT
ATOM      1  C   LIG    1       23.757 -31.821   6.443  0.00  0.00    +0.129 C 
ATOM      2  N   LIG    1       24.691 -30.931   7.112  0.00  0.00    -0.330 N 
ATOM      3  C   LIG    1       24.887 -29.598   6.802  0.00  0.00    +0.039 C 
ATOM      4  C   LIG    1       25.575 -28.959   7.906  0.00  0.00    +0.006 C 
ATOM      5  C   LIG    1       25.894 -27.664   7.950  0.00  0.00    +0.041 C 
ATOM      6  C   LIG    1       25.560 -26.803   6.790  0.00  0.00    +0.129 C 
ATOM      7  C   LIG    1       24.839 -27.474   5.614  0.00  0.00    +0.207 C 
ATOM      8  O   LIG    1       24.518 -26.834   4.620  0.00  0.00    -0.285 OA
ATOM      9  N   LIG    1       25.903 -25.544   6.839  0.00  0.00    -0.175 NA
ATOM     10  C   LIG    1       25.856 -30.002   8.956  0.00  0.00    +0.164 C 
ATOM     11  C   LIG    1       24.534 -28.918   5.707  0.00  0.00    +0.076 C 
ATOM     12  C   LIG    1       24.945 -31.180   8.544  0.00  0.00    +0.140 C 
ENDROOT
BRANCH   9  13
ATOM     13  N   LIG    1       25.593 -24.753   5.765  0.00  0.00    -0.190 N 
ATOM     14  H   LIG    1       25.794 -25.069   4.813  0.00  0.00    +0.179 HD
ATOM     15  C   LIG    1       25.046 -23.503   5.912  0.00  0.00    +0.317 C 
ATOM     16  O   LIG    1       24.800 -22.754   4.975  0.00  0.00    -0.251 OA
ATOM     17  N   LIG    1       24.792 -23.157   7.200  0.00  0.00    -0.312 N 
ATOM     18  H   LIG    1       24.541 -22.200   7.391  0.00  0.00    +0.146 HD
ATOM     19  H   LIG    1       25.256 -23.721   7.899  0.00  0.00    +0.146 HD
ENDBRANCH   9  13
BRANCH  10  20
ATOM     20  O   LIG    1       27.232 -30.371   8.865  0.00  0.00    -0.386 OA
ATOM     21  H   LIG    1       27.400 -30.556   7.922  0.00  0.00    +0.210 HD
ENDBRANCH  10  20
TORSDOF 2
ENDMDL
