MODEL 1
REMARK VINA RESULT:      -7.2      0.000      0.000
REMARK  Name = *****
REMARK                            x       y       z     vdW  Elec       q    Type
REMARK                         _______ _______ _______ _____ _____    ______ ____
ROOT
ATOM      1  C   LIG    1       24.976 -22.010   6.847  0.00  0.00    +0.134 A 
ATOM      2  C   LIG    1       25.610 -23.217   6.585  0.00  0.00    +0.051 A 
ATOM      3  C   LIG    1       24.858 -24.391   6.436  0.00  0.00    -0.027 A 
ATOM      4  C   LIG    1       23.462 -24.323   6.612  0.00  0.00    +0.005 A 
ATOM      5  C   LIG    1       22.837 -23.113   6.914  0.00  0.00    +0.004 A 
ATOM      6  C   LIG    1       23.596 -21.953   7.039  0.00  0.00    +0.046 A 
ENDROOT
BRANCH   3   7
ATOM      7  C   LIG    1       25.508 -25.707   6.011  0.00  0.00    +0.083 C 
ATOM      8  C   LIG    1       25.422 -25.908   4.483  0.00  0.00    +0.029 C 
BRANCH   7   9
ATOM      9  N   LIG    1       25.049 -26.895   6.780  0.00  0.00    -0.302 NA
ATOM     10  C   LIG    1       26.088 -27.535   7.588  0.00  0.00    +0.105 C 
ATOM     11  C   LIG    1       24.390 -27.897   5.937  0.00  0.00    +0.105 C 
ENDBRANCH   7   9
ENDBRANCH   3   7
BRANCH   1  12
ATOM     12  O   LIG    1       25.651 -20.773   6.951  0.00  0.00    -0.411 OA
BRANCH  12  14
ATOM     13  N   LIG    1       27.818 -20.076   7.321  0.00  0.00    -0.270 N 
ATOM     14  C   LIG    1       26.631 -20.503   7.924  0.00  0.00    +0.408 C 
ATOM     15  O   LIG    1       26.484 -20.625   9.136  0.00  0.00    -0.226 OA
ATOM     16  C   LIG    1       28.932 -19.693   8.169  0.00  0.00    +0.135 C 
BRANCH  13  18
ATOM     17  C   LIG    1       28.956 -18.872   5.484  0.00  0.00    +0.024 C 
ATOM     18  C   LIG    1       27.990 -19.979   5.879  0.00  0.00    +0.107 C 
ENDBRANCH  13  18
ENDBRANCH  12  14
ENDBRANCH   1  12
TORSDOF 5
ENDMDL
MODEL 2
REMARK VINA RESULT:      -7.1      2.787      4.907
REMARK  Name = *****
REMARK                            x       y       z     vdW  Elec       q    Type
REMARK                         _______ _______ _______ _____ _____    ______ ____
ROOT
ATOM      1  C   LIG    1       28.713 -20.341   7.696  0.00  0.00    +0.134 A 
ATOM      2  C   LIG    1       27.617 -21.123   8.037  0.00  0.00    +0.051 A 
ATOM      3  C   LIG    1       26.549 -21.269   7.140  0.00  0.00    -0.027 A 
ATOM      4  C   LIG    1       26.591 -20.564   5.921  0.00  0.00    +0.005 A 
ATOM      5  C   LIG    1       27.678 -19.748   5.604  0.00  0.00    +0.004 A 
ATOM      6  C   LIG    1       28.740 -19.630   6.497  0.00  0.00    +0.046 A 
ENDROOT
BRANCH   3   7
ATOM      7  C   LIG    1       25.395 -22.230   7.423  0.00  0.00    +0.083 C 
ATOM      8  C   LIG    1       25.836 -23.700   7.255  0.00  0.00    +0.029 C 
BRANCH   7   9
ATOM      9  N   LIG    1       24.138 -21.914   6.692  0.00  0.00    -0.302 NA
ATOM     10  C   LIG    1       23.419 -20.744   7.197  0.00  0.00    +0.105 C 
ATOM     11  C   LIG    1       23.227 -23.059   6.609  0.00  0.00    +0.105 C 
ENDBRANCH   7   9
ENDBRANCH   3   7
BRANCH   1  12
ATOM     12  O   LIG    1       29.856 -20.189   8.513  0.00  0.00    -0.411 OA
BRANCH  12  14
ATOM     13  N   LIG    1       31.075 -18.281   8.952  0.00  0.00    -0.270 N 
ATOM     14  C   LIG    1       30.975 -19.420   8.147  0.00  0.00    +0.408 C 
ATOM     15  O   LIG    1       31.762 -19.693   7.246  0.00  0.00    -0.226 OA
ATOM     16  C   LIG    1       32.206 -17.391   8.763  0.00  0.00    +0.135 C 
BRANCH  13  18
ATOM     17  C   LIG    1       30.665 -16.969  11.008  0.00  0.00    +0.024 C 
ATOM     18  C   LIG    1       30.107 -17.949   9.988  0.00  0.00    +0.107 C 
ENDBRANCH  13  18
ENDBRANCH  12  14
ENDBRANCH   1  12
TORSDOF 5
ENDMDL
MODEL 3
REMARK VINA RESULT:      -7.1      4.149      5.169
REMARK  Name = *****
REMARK                            x       y       z     vdW  Elec       q    Type
REMARK                         _______ _______ _______ _____ _____    ______ ____
ROOT
ATOM      1  C   LIG    1       27.593 -20.437   6.545  0.00  0.00    +0.134 A 
ATOM      2  C   LIG    1       26.680 -20.387   5.500  0.00  0.00    +0.051 A 
ATOM      3  C   LIG    1       25.303 -20.421   5.765  0.00  0.00    -0.027 A 
ATOM      4  C   LIG    1       24.878 -20.562   7.100  0.00  0.00    +0.005 A 
ATOM      5  C   LIG    1       25.803 -20.651   8.141  0.00  0.00    +0.004 A 
ATOM      6  C   LIG    1       27.166 -20.596   7.862  0.00  0.00    +0.046 A 
ENDROOT
BRANCH   3   7
ATOM      7  C   LIG    1       24.272 -20.228   4.654  0.00  0.00    +0.083 C 
ATOM      8  C   LIG    1       24.758 -19.201   3.609  0.00  0.00    +0.029 C 
BRANCH   7   9
ATOM      9  N   LIG    1       22.891 -19.954   5.138  0.00  0.00    -0.302 NA
ATOM     10  C   LIG    1       21.955 -21.065   4.965  0.00  0.00    +0.105 C 
ATOM     11  C   LIG    1       22.322 -18.731   4.565  0.00  0.00    +0.105 C 
ENDBRANCH   7   9
ENDBRANCH   3   7
BRANCH   1  12
ATOM     12  O   LIG    1       28.993 -20.348   6.371  0.00  0.00    -0.411 OA
BRANCH  12  14
ATOM     13  N   LIG    1       30.497 -20.009   8.085  0.00  0.00    -0.270 N 
ATOM     14  C   LIG    1       29.799 -19.405   7.035  0.00  0.00    +0.408 C 
ATOM     15  O   LIG    1       29.885 -18.215   6.750  0.00  0.00    -0.226 OA
ATOM     16  C   LIG    1       31.431 -19.206   8.854  0.00  0.00    +0.135 C 
BRANCH  13  18
ATOM     17  C   LIG    1       31.553 -21.948   9.201  0.00  0.00    +0.024 C 
ATOM     18  C   LIG    1       30.350 -21.414   8.438  0.00  0.00    +0.107 C 
ENDBRANCH  13  18
ENDBRANCH  12  14
ENDBRANCH   1  12
TORSDOF 5
ENDMDL
MODEL 4
REMARK VINA RESULT:      -7.0      2.432      6.810
REMARK  Name = *****
REMARK                            x       y       z     vdW  Elec       q    Type
REMARK                         _______ _______ _______ _____ _____    ______ ____
ROOT
ATOM      1  C   LIG    1       26.970 -20.955   7.237  0.00  0.00    +0.134 A 
ATOM      2  C   LIG    1       28.265 -20.825   7.719  0.00  0.00    +0.051 A 
ATOM      3  C   LIG    1       29.201 -20.045   7.023  0.00  0.00    -0.027 A 
ATOM      4  C   LIG    1       28.811 -19.451   5.807  0.00  0.00    +0.005 A 
ATOM      5  C   LIG    1       27.518 -19.620   5.310  0.00  0.00    +0.004 A 
ATOM      6  C   LIG    1       26.596 -20.381   6.023  0.00  0.00    +0.046 A 
ENDROOT
BRANCH   3   7
ATOM      7  C   LIG    1       30.590 -19.767   7.595  0.00  0.00    +0.083 C 
ATOM      8  C   LIG    1       30.971 -20.803   8.674  0.00  0.00    +0.029 C 
BRANCH   7   9
ATOM      9  N   LIG    1       30.801 -18.362   8.040  0.00  0.00    -0.302 NA
ATOM     10  C   LIG    1       32.181 -18.040   8.401  0.00  0.00    +0.105 C 
ATOM     11  C   LIG    1       29.898 -17.969   9.126  0.00  0.00    +0.105 C 
ENDBRANCH   7   9
ENDBRANCH   3   7
BRANCH   1  12
ATOM     12  O   LIG    1       25.950 -21.671   7.905  0.00  0.00    -0.411 OA
BRANCH  12  14
ATOM     13  N   LIG    1       24.045 -22.748   7.178  0.00  0.00    -0.270 N 
ATOM     14  C   LIG    1       25.414 -22.882   7.432  0.00  0.00    +0.408 C 
ATOM     15  O   LIG    1       26.042 -23.922   7.265  0.00  0.00    -0.226 OA
ATOM     16  C   LIG    1       23.325 -23.880   6.625  0.00  0.00    +0.135 C 
BRANCH  13  18
ATOM     17  C   LIG    1       22.995 -20.763   6.140  0.00  0.00    +0.024 C 
ATOM     18  C   LIG    1       23.305 -21.518   7.424  0.00  0.00    +0.107 C 
ENDBRANCH  13  18
ENDBRANCH  12  14
ENDBRANCH   1  12
TORSDOF 5
ENDMDL
MODEL 5
REMARK VINA RESULT:      -6.8      2.868      7.188
REMARK  Name = *****
REMARK                            x       y       z     vdW  Elec       q    Type
REMARK                         _______ _______ _______ _____ _____    ______ ____
ROOT
ATOM      1  C   LIG    1       27.975 -20.732   6.875  0.00  0.00    +0.134 A 
ATOM      2  C   LIG    1       29.111 -20.459   7.625  0.00  0.00    +0.051 A 
ATOM      3  C   LIG    1       29.935 -19.376   7.286  0.00  0.00    -0.027 A 
ATOM      4  C   LIG    1       29.613 -18.616   6.144  0.00  0.00    +0.005 A 
ATOM      5  C   LIG    1       28.491 -18.923   5.374  0.00  0.00    +0.004 A 
ATOM      6  C   LIG    1       27.672 -19.989   5.735  0.00  0.00    +0.046 A 
ENDROOT
BRANCH   3   7
ATOM      7  C   LIG    1       31.112 -18.962   8.168  0.00  0.00    +0.083 C 
ATOM      8  C   LIG    1       31.467 -20.068   9.186  0.00  0.00    +0.029 C 
BRANCH   7   9
ATOM      9  N   LIG    1       30.967 -17.620   8.796  0.00  0.00    -0.302 NA
ATOM     10  C   LIG    1       32.232 -16.971   9.140  0.00  0.00    +0.105 C 
ATOM     11  C   LIG    1       30.082 -17.634   9.965  0.00  0.00    +0.105 C 
ENDBRANCH   7   9
ENDBRANCH   3   7
BRANCH   1  12
ATOM     12  O   LIG    1       27.060 -21.765   7.183  0.00  0.00    -0.411 OA
BRANCH  12  14
ATOM     13  N   LIG    1       24.765 -21.924   7.016  0.00  0.00    -0.270 N 
ATOM     14  C   LIG    1       25.833 -21.545   7.835  0.00  0.00    +0.408 C 
ATOM     15  O   LIG    1       25.699 -21.081   8.963  0.00  0.00    -0.226 OA
ATOM     16  C   LIG    1       23.415 -21.827   7.540  0.00  0.00    +0.135 C 
BRANCH  13  18
ATOM     17  C   LIG    1       24.438 -21.455   4.609  0.00  0.00    +0.024 C 
ATOM     18  C   LIG    1       24.940 -22.432   5.662  0.00  0.00    +0.107 C 
ENDBRANCH  13  18
ENDBRANCH  12  14
ENDBRANCH   1  12
TORSDOF 5
ENDMDL
MODEL 6
REMARK VINA RESULT:      -6.8      3.987      4.866
REMARK  Name = *****
REMARK                            x       y       z     vdW  Elec       q    Type
REMARK                         _______ _______ _______ _____ _____    ______ ____
ROOT
ATOM      1  C   LIG    1       27.157 -20.220   7.023  0.00  0.00    +0.134 A 
ATOM      2  C   LIG    1       26.364 -20.328   5.888  0.00  0.00    +0.051 A 
ATOM      3  C   LIG    1       25.006 -20.659   6.006  0.00  0.00    -0.027 A 
ATOM      4  C   LIG    1       24.488 -20.929   7.287  0.00  0.00    +0.005 A 
ATOM      5  C   LIG    1       25.301 -20.856   8.418  0.00  0.00    +0.004 A 
ATOM      6  C   LIG    1       26.642 -20.508   8.286  0.00  0.00    +0.046 A 
ENDROOT
BRANCH   3   7
ATOM      7  C   LIG    1       24.075 -20.649   4.794  0.00  0.00    +0.083 C 
ATOM      8  C   LIG    1       24.724 -19.928   3.593  0.00  0.00    +0.029 C 
BRANCH   7   9
ATOM      9  N   LIG    1       22.696 -20.170   5.083  0.00  0.00    -0.302 NA
ATOM     10  C   LIG    1       21.639 -21.124   4.748  0.00  0.00    +0.105 C 
ATOM     11  C   LIG    1       22.406 -18.872   4.467  0.00  0.00    +0.105 C 
ENDBRANCH   7   9
ENDBRANCH   3   7
BRANCH   1  12
ATOM     12  O   LIG    1       28.516 -19.833   6.998  0.00  0.00    -0.411 OA
BRANCH  12  14
ATOM     13  N   LIG    1       30.390 -19.559   8.315  0.00  0.00    -0.270 N 
ATOM     14  C   LIG    1       29.522 -20.488   7.732  0.00  0.00    +0.408 C 
ATOM     15  O   LIG    1       29.641 -21.704   7.850  0.00  0.00    -0.226 OA
ATOM     16  C   LIG    1       31.462 -20.045   9.163  0.00  0.00    +0.135 C 
BRANCH  13  18
ATOM     17  C   LIG    1       30.269 -17.364   9.448  0.00  0.00    +0.024 C 
ATOM     18  C   LIG    1       30.261 -18.121   8.128  0.00  0.00    +0.107 C 
ENDBRANCH  13  18
ENDBRANCH  12  14
ENDBRANCH   1  12
TORSDOF 5
ENDMDL
MODEL 7
REMARK VINA RESULT:      -6.8      2.310      6.613
REMARK  Name = *****
REMARK                            x       y       z     vdW  Elec       q    Type
REMARK                         _______ _______ _______ _____ _____    ______ ____
ROOT
ATOM      1  C   LIG    1       25.075 -24.684   6.491  0.00  0.00    +0.134 A 
ATOM      2  C   LIG    1       25.661 -23.441   6.290  0.00  0.00    +0.051 A 
ATOM      3  C   LIG    1       24.875 -22.280   6.309  0.00  0.00    -0.027 A 
ATOM      4  C   LIG    1       23.483 -22.411   6.479  0.00  0.00    +0.005 A 
ATOM      5  C   LIG    1       22.898 -23.667   6.642  0.00  0.00    +0.004 A 
ATOM      6  C   LIG    1       23.694 -24.809   6.640  0.00  0.00    +0.046 A 
ENDROOT
BRANCH   3   7
ATOM      7  C   LIG    1       25.504 -20.890   6.230  0.00  0.00    +0.083 C 
ATOM      8  C   LIG    1       25.333 -20.274   4.825  0.00  0.00    +0.029 C 
BRANCH   7   9
ATOM      9  N   LIG    1       26.906 -20.821   6.727  0.00  0.00    -0.302 NA
ATOM     10  C   LIG    1       27.037 -20.392   8.119  0.00  0.00    +0.105 C 
ATOM     11  C   LIG    1       27.771 -20.004   5.872  0.00  0.00    +0.105 C 
ENDBRANCH   7   9
ENDBRANCH   3   7
BRANCH   1  12
ATOM     12  O   LIG    1       25.800 -25.896   6.548  0.00  0.00    -0.411 OA
BRANCH  12  14
ATOM     13  N   LIG    1       25.388 -28.114   6.070  0.00  0.00    -0.270 N 
ATOM     14  C   LIG    1       25.756 -26.874   5.538  0.00  0.00    +0.408 C 
ATOM     15  O   LIG    1       26.008 -26.686   4.352  0.00  0.00    -0.226 OA
ATOM     16  C   LIG    1       25.231 -29.240   5.168  0.00  0.00    +0.135 C 
BRANCH  13  18
ATOM     17  C   LIG    1       24.403 -29.637   7.751  0.00  0.00    +0.024 C 
ATOM     18  C   LIG    1       25.136 -28.330   7.487  0.00  0.00    +0.107 C 
ENDBRANCH  13  18
ENDBRANCH  12  14
ENDBRANCH   1  12
TORSDOF 5
ENDMDL
MODEL 8
REMARK VINA RESULT:      -6.5      3.516      6.071
REMARK  Name = *****
REMARK                            x       y       z     vdW  Elec       q    Type
REMARK                         _______ _______ _______ _____ _____    ______ ____
ROOT
ATOM      1  C   LIG    1       25.741 -21.216   6.282  0.00  0.00    +0.134 A 
ATOM      2  C   LIG    1       26.726 -20.241   6.367  0.00  0.00    +0.051 A 
ATOM      3  C   LIG    1       27.755 -20.359   7.313  0.00  0.00    -0.027 A 
ATOM      4  C   LIG    1       27.731 -21.452   8.201  0.00  0.00    +0.005 A 
ATOM      5  C   LIG    1       26.715 -22.406   8.135  0.00  0.00    +0.004 A 
ATOM      6  C   LIG    1       25.712 -22.284   7.177  0.00  0.00    +0.046 A 
ENDROOT
BRANCH   3   7
ATOM      7  C   LIG    1       28.928 -19.381   7.341  0.00  0.00    +0.083 C 
ATOM      8  C   LIG    1       29.725 -19.422   6.019  0.00  0.00    +0.029 C 
BRANCH   7   9
ATOM      9  N   LIG    1       29.796 -19.496   8.545  0.00  0.00    -0.302 NA
ATOM     10  C   LIG    1       30.082 -18.226   9.212  0.00  0.00    +0.105 C 
ATOM     11  C   LIG    1       31.048 -20.209   8.276  0.00  0.00    +0.105 C 
ENDBRANCH   7   9
ENDBRANCH   3   7
BRANCH   1  12
ATOM     12  O   LIG    1       24.705 -21.205   5.321  0.00  0.00    -0.411 OA
BRANCH  12  14
ATOM     13  N   LIG    1       23.529 -19.485   4.332  0.00  0.00    -0.270 N 
ATOM     14  C   LIG    1       23.572 -20.375   5.410  0.00  0.00    +0.408 C 
ATOM     15  O   LIG    1       22.732 -20.410   6.303  0.00  0.00    -0.226 OA
ATOM     16  C   LIG    1       22.396 -18.585   4.218  0.00  0.00    +0.135 C 
BRANCH  13  18
ATOM     17  C   LIG    1       25.425 -18.182   3.423  0.00  0.00    +0.024 C 
ATOM     18  C   LIG    1       24.558 -19.427   3.304  0.00  0.00    +0.107 C 
ENDBRANCH  13  18
ENDBRANCH  12  14
ENDBRANCH   1  12
TORSDOF 5
ENDMDL
MODEL 9
REMARK VINA RESULT:      -6.5      3.840      4.709
REMARK  Name = *****
REMARK                            x       y       z     vdW  Elec       q    Type
REMARK                         _______ _______ _______ _____ _____    ______ ____
ROOT
ATOM      1  C   LIG    1       27.563 -21.226   7.122  0.00  0.00    +0.134 A 
ATOM      2  C   LIG    1       26.672 -20.756   6.166  0.00  0.00    +0.051 A 
ATOM      3  C   LIG    1       25.297 -20.716   6.443  0.00  0.00    -0.027 A 
ATOM      4  C   LIG    1       24.845 -21.212   7.681  0.00  0.00    +0.005 A 
ATOM      5  C   LIG    1       25.744 -21.719   8.620  0.00  0.00    +0.004 A 
ATOM      6  C   LIG    1       27.107 -21.734   8.338  0.00  0.00    +0.046 A 
ENDROOT
BRANCH   3   7
ATOM      7  C   LIG    1       24.307 -20.077   5.471  0.00  0.00    +0.083 C 
ATOM      8  C   LIG    1       22.894 -20.678   5.633  0.00  0.00    +0.029 C 
BRANCH   7   9
ATOM      9  N   LIG    1       24.766 -20.049   4.056  0.00  0.00    -0.302 NA
ATOM     10  C   LIG    1       24.736 -18.725   3.433  0.00  0.00    +0.105 C 
ATOM     11  C   LIG    1       24.055 -21.012   3.209  0.00  0.00    +0.105 C 
ENDBRANCH   7   9
ENDBRANCH   3   7
BRANCH   1  12
ATOM     12  O   LIG    1       28.965 -21.244   6.948  0.00  0.00    -0.411 OA
BRANCH  12  14
ATOM     13  N   LIG    1       30.533 -19.574   7.217  0.00  0.00    -0.270 N 
ATOM     14  C   LIG    1       29.866 -20.633   7.840  0.00  0.00    +0.408 C 
ATOM     15  O   LIG    1       30.056 -20.972   9.004  0.00  0.00    -0.226 OA
ATOM     16  C   LIG    1       31.464 -18.781   7.999  0.00  0.00    +0.135 C 
BRANCH  13  18
ATOM     17  C   LIG    1       29.219 -18.185   5.648  0.00  0.00    +0.024 C 
ATOM     18  C   LIG    1       30.327 -19.213   5.822  0.00  0.00    +0.107 C 
ENDBRANCH  13  18
ENDBRANCH  12  14
ENDBRANCH   1  12
TORSDOF 5
ENDMDL
