MODEL 1
REMARK VINA RESULT:       0.8      0.000      0.000
REMARK  Name = *****
REMARK                            x       y       z     vdW  Elec       q    Type
REMARK                         _______ _______ _______ _____ _____    ______ ____
ROOT
ATOM      1  N   LIG    1       27.547 -17.084   4.971  0.00  0.00    -0.300 N 
ATOM      2  H   LIG    1       26.722 -17.161   5.569  0.00  0.00    +0.150 HD
ATOM      3  C   LIG    1       28.416 -18.160   5.031  0.00  0.00    +0.235 C 
ATOM      4  O   LIG    1       29.470 -18.179   4.403  0.00  0.00    -0.274 OA
ENDROOT
BRANCH   1  10
ATOM      5  C   LIG    1       24.199 -14.779   5.436  0.00  0.00    +0.025 C 
ATOM      6  C   LIG    1       24.471 -14.497   3.946  0.00  0.00    +0.042 C 
ATOM      7  CA  LIG    1       25.557 -13.403   3.778  0.00  0.00    +0.201 C 
ATOM      8  N   LIG    1       26.861 -14.083   3.714  0.00  0.00    -0.271 N 
ATOM      9  C   LIG    1       26.883 -15.428   3.106  0.00  0.00    +0.165 C 
ATOM     10  CA  LIG    1       27.872 -15.857   4.218  0.00  0.00    +0.190 C 
ATOM     11  C   LIG    1       27.475 -14.502   4.871  0.00  0.00    +0.240 C 
ATOM     12  O   LIG    1       27.477 -13.991   5.963  0.00  0.00    -0.273 OA
ATOM     13  S   LIG    1       25.167 -16.054   3.210  0.00  0.00    -0.127 S 
ATOM     14  C   LIG    1       23.126 -14.211   3.268  0.00  0.00    +0.025 C 
BRANCH   7  15
ATOM     15  C   LIG    1       25.433 -12.504   2.536  0.00  0.00    +0.327 C 
ATOM     16  O   LIG    1       24.398 -11.983   2.150  0.00  0.00    -0.249 OA
BRANCH  15  17
ATOM     17  OXT LIG    1       26.621 -12.260   1.923  0.00  0.00    -0.479 OA
ATOM     18  HXT LIG    1       26.712 -12.831   1.133  0.00  0.00    +0.295 HD
ENDBRANCH  15  17
ENDBRANCH   7  15
ENDBRANCH   1  10
BRANCH   3  19
ATOM     19  CA  LIG    1       27.869 -19.344   5.871  0.00  0.00    +0.168 C 
BRANCH  19  20
ATOM     20  C   LIG    1       26.513 -19.851   5.413  0.00  0.00    -0.022 A 
ATOM     21  C   LIG    1       25.673 -20.519   6.321  0.00  0.00    +0.009 A 
ATOM     22  C   LIG    1       24.421 -20.991   5.922  0.00  0.00    +0.045 A 
ATOM     23  C   LIG    1       24.000 -20.807   4.612  0.00  0.00    +0.117 A 
ATOM     24  C   LIG    1       24.812 -20.156   3.691  0.00  0.00    +0.045 A 
ATOM     25  C   LIG    1       26.064 -19.676   4.092  0.00  0.00    +0.009 A 
BRANCH  23  26
ATOM     26  O   LIG    1       22.769 -21.283   4.268  0.00  0.00    -0.507 OA
ATOM     27  H   LIG    1       22.407 -21.781   5.020  0.00  0.00    +0.292 HD
ENDBRANCH  23  26
ENDBRANCH  19  20
BRANCH  19  28
ATOM     28  N   LIG    1       28.872 -20.443   5.919  0.00  0.00    -0.316 NA
ATOM     29  H1  LIG    1       28.370 -21.297   6.169  0.00  0.00    +0.119 HD
ATOM     30  H2  LIG    1       29.204 -20.607   4.968  0.00  0.00    +0.119 HD
ENDBRANCH  19  28
ENDBRANCH   3  19
TORSDOF 7
ENDMDL
MODEL 2
REMARK VINA RESULT:       1.9      2.252      2.889
REMARK  Name = *****
REMARK                            x       y       z     vdW  Elec       q    Type
REMARK                         _______ _______ _______ _____ _____    ______ ____
ROOT
ATOM      1  N   LIG    1       25.439 -17.880   4.065  0.00  0.00    -0.300 N 
ATOM      2  H   LIG    1       24.642 -17.491   4.574  0.00  0.00    +0.150 HD
ATOM      3  C   LIG    1       25.735 -19.199   4.360  0.00  0.00    +0.235 C 
ATOM      4  O   LIG    1       26.695 -19.777   3.858  0.00  0.00    -0.274 OA
ENDROOT
BRANCH   1  10
ATOM      5  C   LIG    1       25.788 -14.367   6.133  0.00  0.00    +0.025 C 
ATOM      6  C   LIG    1       25.615 -13.787   4.716  0.00  0.00    +0.042 C 
ATOM      7  CA  LIG    1       26.958 -13.804   3.942  0.00  0.00    +0.201 C 
ATOM      8  N   LIG    1       27.036 -15.087   3.224  0.00  0.00    -0.271 N 
ATOM      9  C   LIG    1       25.762 -15.673   2.765  0.00  0.00    +0.165 C 
ATOM     10  CA  LIG    1       26.304 -17.058   3.196  0.00  0.00    +0.190 C 
ATOM     11  C   LIG    1       27.419 -16.226   3.894  0.00  0.00    +0.240 C 
ATOM     12  O   LIG    1       28.215 -16.355   4.790  0.00  0.00    -0.273 OA
ATOM     13  S   LIG    1       24.458 -14.914   3.799  0.00  0.00    -0.127 S 
ATOM     14  C   LIG    1       24.939 -12.417   4.848  0.00  0.00    +0.025 C 
BRANCH   7  15
ATOM     15  C   LIG    1       27.168 -12.677   2.916  0.00  0.00    +0.327 C 
ATOM     16  O   LIG    1       26.338 -12.312   2.097  0.00  0.00    -0.249 OA
BRANCH  15  17
ATOM     17  OXT LIG    1       28.363 -12.043   3.044  0.00  0.00    -0.479 OA
ATOM     18  HXT LIG    1       28.738 -11.855   2.159  0.00  0.00    +0.295 HD
ENDBRANCH  15  17
ENDBRANCH   7  15
ENDBRANCH   1  10
BRANCH   3  19
ATOM     19  CA  LIG    1       24.687 -19.872   5.285  0.00  0.00    +0.168 C 
BRANCH  19  20
ATOM     20  C   LIG    1       23.256 -19.739   4.793  0.00  0.00    -0.022 A 
ATOM     21  C   LIG    1       22.792 -18.499   4.323  0.00  0.00    +0.009 A 
ATOM     22  C   LIG    1       21.480 -18.354   3.864  0.00  0.00    +0.045 A 
ATOM     23  C   LIG    1       20.621 -19.443   3.878  0.00  0.00    +0.117 A 
ATOM     24  C   LIG    1       21.052 -20.680   4.344  0.00  0.00    +0.045 A 
ATOM     25  C   LIG    1       22.367 -20.828   4.797  0.00  0.00    +0.009 A 
BRANCH  23  26
ATOM     26  O   LIG    1       19.350 -19.256   3.418  0.00  0.00    -0.507 OA
ATOM     27  H   LIG    1       19.276 -19.661   2.539  0.00  0.00    +0.292 HD
ENDBRANCH  23  26
ENDBRANCH  19  20
BRANCH  19  28
ATOM     28  N   LIG    1       25.051 -21.296   5.519  0.00  0.00    -0.316 NA
ATOM     29  H1  LIG    1       25.847 -21.301   6.158  0.00  0.00    +0.119 HD
ATOM     30  H2  LIG    1       24.292 -21.732   6.045  0.00  0.00    +0.119 HD
ENDBRANCH  19  28
ENDBRANCH   3  19
TORSDOF 7
ENDMDL
MODEL 3
REMARK VINA RESULT:       3.0      2.934      4.341
REMARK  Name = *****
REMARK                            x       y       z     vdW  Elec       q    Type
REMARK                         _______ _______ _______ _____ _____    ______ ____
ROOT
ATOM      1  N   LIG    1       23.287 -13.895   4.659  0.00  0.00    -0.300 N 
ATOM      2  H   LIG    1       22.571 -13.821   5.384  0.00  0.00    +0.150 HD
ATOM      3  C   LIG    1       23.428 -15.154   4.102  0.00  0.00    +0.235 C 
ATOM      4  O   LIG    1       24.283 -15.397   3.255  0.00  0.00    -0.274 OA
ENDROOT
BRANCH   1  10
ATOM      5  C   LIG    1       26.669 -15.821   3.398  0.00  0.00    +0.025 C 
ATOM      6  C   LIG    1       27.332 -14.718   4.246  0.00  0.00    +0.042 C 
ATOM      7  CA  LIG    1       27.437 -13.393   3.448  0.00  0.00    +0.201 C 
ATOM      8  N   LIG    1       26.210 -12.623   3.710  0.00  0.00    -0.271 N 
ATOM      9  C   LIG    1       25.588 -12.789   5.038  0.00  0.00    +0.165 C 
ATOM     10  CA  LIG    1       24.209 -12.788   4.336  0.00  0.00    +0.190 C 
ATOM     11  C   LIG    1       25.050 -12.927   3.034  0.00  0.00    +0.240 C 
ATOM     12  O   LIG    1       24.905 -13.313   1.901  0.00  0.00    -0.273 OA
ATOM     13  S   LIG    1       26.208 -14.383   5.687  0.00  0.00    -0.127 S 
ATOM     14  C   LIG    1       28.652 -15.274   4.792  0.00  0.00    +0.025 C 
BRANCH   7  15
ATOM     15  C   LIG    1       28.638 -12.491   3.777  0.00  0.00    +0.327 C 
ATOM     16  O   LIG    1       28.888 -12.035   4.883  0.00  0.00    -0.249 OA
BRANCH  15  17
ATOM     17  OXT LIG    1       29.474 -12.295   2.725  0.00  0.00    -0.479 OA
ATOM     18  HXT LIG    1       29.159 -11.544   2.183  0.00  0.00    +0.295 HD
ENDBRANCH  15  17
ENDBRANCH   7  15
ENDBRANCH   1  10
BRANCH   3  19
ATOM     19  CA  LIG    1       22.347 -16.160   4.576  0.00  0.00    +0.168 C 
BRANCH  19  20
ATOM     20  C   LIG    1       22.772 -17.614   4.475  0.00  0.00    -0.022 A 
ATOM     21  C   LIG    1       24.001 -17.943   3.877  0.00  0.00    +0.009 A 
ATOM     22  C   LIG    1       24.412 -19.274   3.776  0.00  0.00    +0.045 A 
ATOM     23  C   LIG    1       23.598 -20.287   4.263  0.00  0.00    +0.117 A 
ATOM     24  C   LIG    1       22.375 -19.991   4.853  0.00  0.00    +0.045 A 
ATOM     25  C   LIG    1       21.965 -18.658   4.962  0.00  0.00    +0.009 A 
BRANCH  23  26
ATOM     26  O   LIG    1       24.042 -21.571   4.144  0.00  0.00    -0.507 OA
ATOM     27  H   LIG    1       23.890 -21.869   3.232  0.00  0.00    +0.292 HD
ENDBRANCH  23  26
ENDBRANCH  19  20
BRANCH  19  28
ATOM     28  N   LIG    1       21.901 -15.819   5.954  0.00  0.00    -0.316 NA
ATOM     29  H1  LIG    1       22.255 -16.549   6.574  0.00  0.00    +0.119 HD
ATOM     30  H2  LIG    1       22.392 -14.972   6.244  0.00  0.00    +0.119 HD
ENDBRANCH  19  28
ENDBRANCH   3  19
TORSDOF 7
ENDMDL
MODEL 4
REMARK VINA RESULT:       3.1      2.333      6.733
REMARK  Name = *****
REMARK                            x       y       z     vdW  Elec       q    Type
REMARK                         _______ _______ _______ _____ _____    ______ ____
ROOT
ATOM      1  N   LIG    1       26.151 -17.233   3.319  0.00  0.00    -0.300 N 
ATOM      2  H   LIG    1       25.579 -16.931   2.528  0.00  0.00    +0.150 HD
ATOM      3  C   LIG    1       27.152 -16.352   3.689  0.00  0.00    +0.235 C 
ATOM      4  O   LIG    1       27.943 -16.609   4.591  0.00  0.00    -0.274 OA
ENDROOT
BRANCH   1  10
ATOM      5  C   LIG    1       22.330 -18.343   2.367  0.00  0.00    +0.025 C 
ATOM      6  C   LIG    1       22.364 -18.849   3.822  0.00  0.00    +0.042 C 
ATOM      7  CA  LIG    1       23.055 -20.233   3.911  0.00  0.00    +0.201 C 
ATOM      8  N   LIG    1       24.490 -19.995   4.139  0.00  0.00    -0.271 N 
ATOM      9  C   LIG    1       24.852 -18.793   4.914  0.00  0.00    +0.165 C 
ATOM     10  CA  LIG    1       26.024 -18.573   3.927  0.00  0.00    +0.190 C 
ATOM     11  C   LIG    1       25.307 -19.666   3.082  0.00  0.00    +0.240 C 
ATOM     12  O   LIG    1       25.261 -20.036   1.936  0.00  0.00    -0.273 OA
ATOM     13  S   LIG    1       23.417 -17.665   4.791  0.00  0.00    -0.127 S 
ATOM     14  C   LIG    1       20.937 -18.779   4.378  0.00  0.00    +0.025 C 
BRANCH   7  15
ATOM     15  C   LIG    1       22.553 -21.176   5.018  0.00  0.00    +0.327 C 
ATOM     16  O   LIG    1       23.198 -21.504   6.003  0.00  0.00    -0.249 OA
BRANCH  15  17
ATOM     17  OXT LIG    1       21.264 -21.571   4.852  0.00  0.00    -0.479 OA
ATOM     18  HXT LIG    1       20.897 -21.883   5.704  0.00  0.00    +0.295 HD
ENDBRANCH  15  17
ENDBRANCH   7  15
ENDBRANCH   1  10
BRANCH   3  19
ATOM     19  CA  LIG    1       27.091 -15.001   2.928  0.00  0.00    +0.168 C 
BRANCH  19  20
ATOM     20  C   LIG    1       26.028 -14.049   3.446  0.00  0.00    -0.022 A 
ATOM     21  C   LIG    1       25.993 -13.715   4.811  0.00  0.00    +0.009 A 
ATOM     22  C   LIG    1       25.025 -12.840   5.308  0.00  0.00    +0.045 A 
ATOM     23  C   LIG    1       24.079 -12.298   4.450  0.00  0.00    +0.117 A 
ATOM     24  C   LIG    1       24.085 -12.616   3.096  0.00  0.00    +0.045 A 
ATOM     25  C   LIG    1       25.059 -13.487   2.596  0.00  0.00    +0.009 A 
BRANCH  23  26
ATOM     26  O   LIG    1       23.154 -11.447   4.979  0.00  0.00    -0.507 OA
ATOM     27  H   LIG    1       22.645 -11.051   4.253  0.00  0.00    +0.292 HD
ENDBRANCH  23  26
ENDBRANCH  19  20
BRANCH  19  28
ATOM     28  N   LIG    1       28.434 -14.360   2.917  0.00  0.00    -0.316 NA
ATOM     29  H1  LIG    1       29.115 -15.084   3.152  0.00  0.00    +0.119 HD
ATOM     30  H2  LIG    1       28.652 -14.102   1.954  0.00  0.00    +0.119 HD
ENDBRANCH  19  28
ENDBRANCH   3  19
TORSDOF 7
ENDMDL
MODEL 5
REMARK VINA RESULT:       3.2      2.791      4.503
REMARK  Name = *****
REMARK                            x       y       z     vdW  Elec       q    Type
REMARK                         _______ _______ _______ _____ _____    ______ ____
ROOT
ATOM      1  N   LIG    1       23.471 -15.051   4.149  0.00  0.00    -0.300 N 
ATOM      2  H   LIG    1       23.670 -15.340   3.189  0.00  0.00    +0.150 HD
ATOM      3  C   LIG    1       22.502 -15.797   4.796  0.00  0.00    +0.235 C 
ATOM      4  O   LIG    1       22.130 -15.531   5.935  0.00  0.00    -0.274 OA
ENDROOT
BRANCH   1  10
ATOM      5  C   LIG    1       26.871 -14.455   1.953  0.00  0.00    +0.025 C 
ATOM      6  C   LIG    1       27.438 -14.140   3.350  0.00  0.00    +0.042 C 
ATOM      7  CA  LIG    1       27.104 -12.685   3.769  0.00  0.00    +0.201 C 
ATOM      8  N   LIG    1       25.817 -12.718   4.484  0.00  0.00    -0.271 N 
ATOM      9  C   LIG    1       25.516 -13.936   5.261  0.00  0.00    +0.165 C 
ATOM     10  CA  LIG    1       24.057 -13.837   4.752  0.00  0.00    +0.190 C 
ATOM     11  C   LIG    1       24.639 -12.774   3.776  0.00  0.00    +0.240 C 
ATOM     12  O   LIG    1       24.360 -12.274   2.715  0.00  0.00    -0.273 OA
ATOM     13  S   LIG    1       26.572 -15.254   4.558  0.00  0.00    -0.127 S 
ATOM     14  C   LIG    1       28.927 -14.507   3.348  0.00  0.00    +0.025 C 
BRANCH   7  15
ATOM     15  C   LIG    1       28.128 -11.984   4.677  0.00  0.00    +0.327 C 
ATOM     16  O   LIG    1       29.155 -11.447   4.289  0.00  0.00    -0.249 OA
BRANCH  15  17
ATOM     17  OXT LIG    1       27.754 -11.935   5.982  0.00  0.00    -0.479 OA
ATOM     18  HXT LIG    1       28.421 -11.445   6.503  0.00  0.00    +0.295 HD
ENDBRANCH  15  17
ENDBRANCH   7  15
ENDBRANCH   1  10
BRANCH   3  19
ATOM     19  CA  LIG    1       22.034 -17.033   3.983  0.00  0.00    +0.168 C 
BRANCH  19  20
ATOM     20  C   LIG    1       22.908 -18.260   4.168  0.00  0.00    -0.022 A 
ATOM     21  C   LIG    1       24.216 -18.270   3.653  0.00  0.00    +0.009 A 
ATOM     22  C   LIG    1       25.039 -19.387   3.813  0.00  0.00    +0.045 A 
ATOM     23  C   LIG    1       24.562 -20.505   4.483  0.00  0.00    +0.117 A 
ATOM     24  C   LIG    1       23.270 -20.525   4.998  0.00  0.00    +0.045 A 
ATOM     25  C   LIG    1       22.447 -19.404   4.844  0.00  0.00    +0.009 A 
BRANCH  23  26
ATOM     26  O   LIG    1       25.401 -21.571   4.618  0.00  0.00    -0.507 OA
ATOM     27  H   LIG    1       25.034 -22.320   4.119  0.00  0.00    +0.292 HD
ENDBRANCH  23  26
ENDBRANCH  19  20
BRANCH  19  28
ATOM     28  N   LIG    1       20.607 -17.332   4.284  0.00  0.00    -0.316 NA
ATOM     29  H1  LIG    1       20.459 -17.125   5.272  0.00  0.00    +0.119 HD
ATOM     30  H2  LIG    1       20.031 -16.651   3.787  0.00  0.00    +0.119 HD
ENDBRANCH  19  28
ENDBRANCH   3  19
TORSDOF 7
ENDMDL
