MODEL 1
REMARK VINA RESULT:      -3.4      0.000      0.000
REMARK  Name = *****
REMARK                            x       y       z     vdW  Elec       q    Type
REMARK                         _______ _______ _______ _____ _____    ______ ____
ROOT
ATOM      1  C   LIG    1       25.559 -13.382   2.291  0.00  0.00    +0.096 C 
ATOM      2  N   LIG    1       26.850 -14.070   2.108  0.00  0.00    -0.314 NA
ATOM      3  H   LIG    1       26.681 -15.074   2.151  0.00  0.00    +0.122 HD
ATOM      4  C   LIG    1       27.736 -13.710   3.231  0.00  0.00    +0.096 C 
ATOM      5  C   LIG    1       27.106 -14.011   4.609  0.00  0.00    +0.096 C 
ATOM      6  N   LIG    1       25.802 -13.358   4.791  0.00  0.00    -0.314 NA
ATOM      7  H   LIG    1       25.378 -13.676   5.662  0.00  0.00    +0.122 HD
ATOM      8  C   LIG    1       24.913 -13.668   3.664  0.00  0.00    +0.096 C 
ENDROOT
TORSDOF 0
ENDMDL
MODEL 2
REMARK VINA RESULT:      -3.4      0.027      2.127
REMARK  Name = *****
REMARK                            x       y       z     vdW  Elec       q    Type
REMARK                         _______ _______ _______ _____ _____    ______ ____
ROOT
ATOM      1  C   LIG    1       24.921 -13.707   3.670  0.00  0.00    +0.096 C 
ATOM      2  N   LIG    1       25.804 -13.342   4.793  0.00  0.00    -0.314 NA
ATOM      3  H   LIG    1       25.970 -12.338   4.748  0.00  0.00    +0.122 HD
ATOM      4  C   LIG    1       27.099 -14.025   4.612  0.00  0.00    +0.096 C 
ATOM      5  C   LIG    1       27.746 -13.726   3.242  0.00  0.00    +0.096 C 
ATOM      6  N   LIG    1       26.863 -14.055   2.114  0.00  0.00    -0.314 NA
ATOM      7  H   LIG    1       27.286 -13.737   1.243  0.00  0.00    +0.122 HD
ATOM      8  C   LIG    1       25.550 -13.419   2.290  0.00  0.00    +0.096 C 
ENDROOT
TORSDOF 0
ENDMDL
MODEL 3
REMARK VINA RESULT:      -3.2      0.742      2.039
REMARK  Name = *****
REMARK                            x       y       z     vdW  Elec       q    Type
REMARK                         _______ _______ _______ _____ _____    ______ ____
ROOT
ATOM      1  C   LIG    1       27.818 -14.111   3.988  0.00  0.00    +0.096 C 
ATOM      2  N   LIG    1       27.537 -13.570   2.645  0.00  0.00    -0.314 NA
ATOM      3  H   LIG    1       27.692 -12.563   2.673  0.00  0.00    +0.122 HD
ATOM      4  C   LIG    1       26.113 -13.801   2.336  0.00  0.00    +0.096 C 
ATOM      5  C   LIG    1       25.166 -13.219   3.408  0.00  0.00    +0.096 C 
ATOM      6  N   LIG    1       25.458 -13.726   4.756  0.00  0.00    -0.314 NA
ATOM      7  H   LIG    1       24.886 -13.230   5.440  0.00  0.00    +0.122 HD
ATOM      8  C   LIG    1       26.880 -13.544   5.075  0.00  0.00    +0.096 C 
ENDROOT
TORSDOF 0
ENDMDL
MODEL 4
REMARK VINA RESULT:      -3.1      0.580      2.844
REMARK  Name = *****
REMARK                            x       y       z     vdW  Elec       q    Type
REMARK                         _______ _______ _______ _____ _____    ______ ____
ROOT
ATOM      1  C   LIG    1       26.901 -13.773   4.662  0.00  0.00    +0.096 C 
ATOM      2  N   LIG    1       25.444 -13.547   4.695  0.00  0.00    -0.314 NA
ATOM      3  H   LIG    1       24.986 -14.455   4.755  0.00  0.00    +0.122 HD
ATOM      4  C   LIG    1       25.039 -12.917   3.424  0.00  0.00    +0.096 C 
ATOM      5  C   LIG    1       25.473 -13.734   2.187  0.00  0.00    +0.096 C 
ATOM      6  N   LIG    1       26.919 -13.995   2.160  0.00  0.00    -0.314 NA
ATOM      7  H   LIG    1       27.139 -14.629   1.392  0.00  0.00    +0.122 HD
ATOM      8  C   LIG    1       27.357 -14.586   3.431  0.00  0.00    +0.096 C 
ENDROOT
TORSDOF 0
ENDMDL
MODEL 5
REMARK VINA RESULT:      -3.1      7.123      7.645
REMARK  Name = *****
REMARK                            x       y       z     vdW  Elec       q    Type
REMARK                         _______ _______ _______ _____ _____    ______ ____
ROOT
ATOM      1  C   LIG    1       24.520 -21.300   4.470  0.00  0.00    +0.096 C 
ATOM      2  N   LIG    1       23.302 -21.571   5.255  0.00  0.00    -0.314 NA
ATOM      3  H   LIG    1       22.601 -21.959   4.625  0.00  0.00    +0.122 HD
ATOM      4  C   LIG    1       22.786 -20.292   5.777  0.00  0.00    +0.096 C 
ATOM      5  C   LIG    1       22.541 -19.249   4.665  0.00  0.00    +0.096 C 
ATOM      6  N   LIG    1       23.739 -18.994   3.853  0.00  0.00    -0.314 NA
ATOM      7  H   LIG    1       23.499 -18.389   3.068  0.00  0.00    +0.122 HD
ATOM      8  C   LIG    1       24.297 -20.257   3.353  0.00  0.00    +0.096 C 
ENDROOT
TORSDOF 0
ENDMDL
MODEL 6
REMARK VINA RESULT:      -3.1      7.193      7.553
REMARK  Name = *****
REMARK                            x       y       z     vdW  Elec       q    Type
REMARK                         _______ _______ _______ _____ _____    ______ ____
ROOT
ATOM      1  C   LIG    1       24.398 -21.572   5.581  0.00  0.00    +0.096 C 
ATOM      2  N   LIG    1       25.264 -20.937   4.571  0.00  0.00    -0.314 NA
ATOM      3  H   LIG    1       25.798 -20.202   5.032  0.00  0.00    +0.122 HD
ATOM      4  C   LIG    1       24.409 -20.304   3.549  0.00  0.00    +0.096 C 
ATOM      5  C   LIG    1       23.394 -19.309   4.153  0.00  0.00    +0.096 C 
ATOM      6  N   LIG    1       22.546 -19.921   5.186  0.00  0.00    -0.314 NA
ATOM      7  H   LIG    1       21.975 -19.203   5.630  0.00  0.00    +0.122 HD
ATOM      8  C   LIG    1       23.373 -20.594   6.196  0.00  0.00    +0.096 C 
ENDROOT
TORSDOF 0
ENDMDL
MODEL 7
REMARK VINA RESULT:      -3.1      7.101      7.291
REMARK  Name = *****
REMARK                            x       y       z     vdW  Elec       q    Type
REMARK                         _______ _______ _______ _____ _____    ______ ____
ROOT
ATOM      1  C   LIG    1       25.273 -19.696   3.701  0.00  0.00    +0.096 C 
ATOM      2  N   LIG    1       26.481 -20.075   4.457  0.00  0.00    -0.314 NA
ATOM      3  H   LIG    1       26.888 -20.895   4.009  0.00  0.00    +0.122 HD
ATOM      4  C   LIG    1       26.078 -20.458   5.823  0.00  0.00    +0.096 C 
ATOM      5  C   LIG    1       25.008 -21.572   5.841  0.00  0.00    +0.096 C 
ATOM      6  N   LIG    1       23.812 -21.220   5.063  0.00  0.00    -0.314 NA
ATOM      7  H   LIG    1       23.188 -22.025   5.012  0.00  0.00    +0.122 HD
ATOM      8  C   LIG    1       24.188 -20.795   3.709  0.00  0.00    +0.096 C 
ENDROOT
TORSDOF 0
ENDMDL
MODEL 8
REMARK VINA RESULT:      -3.1      7.437      7.722
REMARK  Name = *****
REMARK                            x       y       z     vdW  Elec       q    Type
REMARK                         _______ _______ _______ _____ _____    ______ ____
ROOT
ATOM      1  C   LIG    1       24.960 -20.448   4.421  0.00  0.00    +0.096 C 
ATOM      2  N   LIG    1       25.625 -21.239   5.473  0.00  0.00    -0.314 NA
ATOM      3  H   LIG    1       25.356 -22.214   5.349  0.00  0.00    +0.122 HD
ATOM      4  C   LIG    1       25.122 -20.791   6.785  0.00  0.00    +0.096 C 
ATOM      5  C   LIG    1       23.583 -20.861   6.890  0.00  0.00    +0.096 C 
ATOM      6  N   LIG    1       22.908 -20.103   5.828  0.00  0.00    -0.314 NA
ATOM      7  H   LIG    1       21.903 -20.272   5.872  0.00  0.00    +0.122 HD
ATOM      8  C   LIG    1       23.420 -20.501   4.510  0.00  0.00    +0.096 C 
ENDROOT
TORSDOF 0
ENDMDL
MODEL 9
REMARK VINA RESULT:      -3.1      7.164      7.674
REMARK  Name = *****
REMARK                            x       y       z     vdW  Elec       q    Type
REMARK                         _______ _______ _______ _____ _____    ______ ____
ROOT
ATOM      1  C   LIG    1       23.254 -20.528   6.086  0.00  0.00    +0.096 C 
ATOM      2  N   LIG    1       22.485 -19.841   5.032  0.00  0.00    -0.314 NA
ATOM      3  H   LIG    1       21.943 -20.543   4.531  0.00  0.00    +0.122 HD
ATOM      4  C   LIG    1       23.433 -19.234   4.079  0.00  0.00    +0.096 C 
ATOM      5  C   LIG    1       24.433 -20.258   3.497  0.00  0.00    +0.096 C 
ATOM      6  N   LIG    1       25.183 -20.973   4.539  0.00  0.00    -0.314 NA
ATOM      7  H   LIG    1       25.742 -21.711   4.113  0.00  0.00    +0.122 HD
ATOM      8  C   LIG    1       24.262 -21.554   5.525  0.00  0.00    +0.096 C 
ENDROOT
TORSDOF 0
ENDMDL
