MODEL 1
REMARK VINA RESULT:       4.8      0.000      0.000
REMARK  Name = *****
REMARK                            x       y       z     vdW  Elec       q    Type
REMARK                         _______ _______ _______ _____ _____    ______ ____
ROOT
ATOM      1  C   LIG    1       23.259 -19.331   3.638  0.00  0.00    +0.065 C 
ATOM      2  C   LIG    1       24.746 -18.950   3.691  0.00  0.00    +0.096 C 
ATOM      3  C   LIG    1       24.919 -17.429   3.631  0.00  0.00    +0.065 C 
ATOM      4  C   LIG    1       23.925 -16.629   4.090  0.00  0.00    +0.016 C 
ATOM      5  C   LIG    1       23.962 -15.121   4.092  0.00  0.00    +0.061 C 
ATOM      6  N   LIG    1       22.754 -17.211   4.569  0.00  0.00    -0.321 N 
ATOM      7  H   LIG    1       22.003 -16.563   4.803  0.00  0.00    +0.152 HD
ATOM      8  C   LIG    1       22.338 -18.486   4.128  0.00  0.00    +0.016 C 
ATOM      9  C   LIG    1       20.861 -18.745   4.243  0.00  0.00    +0.061 C 
ENDROOT
BRANCH   2  10
ATOM     10  C   LIG    1       25.421 -19.612   4.917  0.00  0.00    -0.029 A 
ATOM     11  C   LIG    1       26.811 -19.493   5.128  0.00  0.00    +0.088 A 
ATOM     12  C   LIG    1       27.437 -20.173   6.190  0.00  0.00    +0.273 A 
ATOM     13  C   LIG    1       26.693 -20.972   7.062  0.00  0.00    +0.084 A 
ATOM     14  C   LIG    1       25.319 -21.084   6.873  0.00  0.00    +0.007 A 
ATOM     15  C   LIG    1       24.694 -20.418   5.812  0.00  0.00    +0.005 A 
BRANCH  12  16
ATOM     16  N   LIG    1       28.889 -20.047   6.392  0.00  0.00    +0.080 N 
ATOM     17  O   LIG    1       29.469 -20.965   6.991  0.00  0.00    -0.576 OA
ATOM     18  O   LIG    1       29.448 -19.034   5.950  0.00  0.00    +0.041 OA
ENDBRANCH  12  16
ENDBRANCH   2  10
BRANCH   1  19
ATOM     19  C   LIG    1       22.872 -20.575   2.897  0.00  0.00    +0.337 C 
ATOM     20  O   LIG    1       23.349 -20.953   1.835  0.00  0.00    -0.245 OA
BRANCH  19  22
ATOM     21  C   LIG    1       22.275 -21.542   4.997  0.00  0.00    +0.280 C 
ATOM     22  O   LIG    1       21.980 -21.274   3.634  0.00  0.00    -0.465 OA
ENDBRANCH  19  22
ENDBRANCH   1  19
BRANCH   3  23
ATOM     23  C   LIG    1       26.113 -16.880   2.940  0.00  0.00    +0.338 C 
ATOM     24  O   LIG    1       26.086 -16.323   1.847  0.00  0.00    -0.245 OA
BRANCH  23  25
ATOM     25  O   LIG    1       27.240 -17.131   3.652  0.00  0.00    -0.460 OA
BRANCH  25  26
ATOM     26  C   LIG    1       27.935 -15.975   4.163  0.00  0.00    +0.247 C 
BRANCH  26  27
ATOM     27  C   LIG    1       27.259 -14.645   3.759  0.00  0.00    +0.125 C 
BRANCH  27  28
ATOM     28  N   LIG    1       28.003 -13.419   4.140  0.00  0.00    -0.298 NA
ATOM     29  C   LIG    1       29.395 -13.546   3.678  0.00  0.00    +0.105 C 
BRANCH  28  30
ATOM     30  C   LIG    1       27.366 -12.232   3.532  0.00  0.00    +0.119 C 
BRANCH  30  31
ATOM     31  C   LIG    1       25.880 -12.066   3.776  0.00  0.00    -0.033 A 
ATOM     32  C   LIG    1       24.971 -11.837   2.732  0.00  0.00    +0.005 A 
ATOM     33  C   LIG    1       23.629 -11.576   3.006  0.00  0.00    +0.000 A 
ATOM     34  C   LIG    1       23.183 -11.525   4.325  0.00  0.00    +0.000 A 
ATOM     35  C   LIG    1       24.071 -11.770   5.370  0.00  0.00    +0.000 A 
ATOM     36  C   LIG    1       25.412 -12.036   5.098  0.00  0.00    +0.005 A 
ENDBRANCH  30  31
ENDBRANCH  28  30
ENDBRANCH  27  28
ENDBRANCH  26  27
ENDBRANCH  25  26
ENDBRANCH  23  25
ENDBRANCH   3  23
TORSDOF 11
ENDMDL
MODEL 2
REMARK VINA RESULT:       6.5      2.374      7.018
REMARK  Name = *****
REMARK                            x       y       z     vdW  Elec       q    Type
REMARK                         _______ _______ _______ _____ _____    ______ ____
ROOT
ATOM      1  C   LIG    1       27.217 -13.561   3.858  0.00  0.00    +0.065 C 
ATOM      2  C   LIG    1       26.079 -14.451   4.378  0.00  0.00    +0.096 C 
ATOM      3  C   LIG    1       24.740 -14.038   3.759  0.00  0.00    +0.065 C 
ATOM      4  C   LIG    1       24.728 -13.446   2.538  0.00  0.00    +0.016 C 
ATOM      5  C   LIG    1       23.486 -12.991   1.812  0.00  0.00    +0.061 C 
ATOM      6  N   LIG    1       25.938 -13.191   1.897  0.00  0.00    -0.321 N 
ATOM      7  H   LIG    1       25.874 -12.653   1.035  0.00  0.00    +0.152 HD
ATOM      8  C   LIG    1       27.132 -13.023   2.630  0.00  0.00    +0.016 C 
ATOM      9  C   LIG    1       28.194 -12.216   1.934  0.00  0.00    +0.061 C 
ENDROOT
BRANCH   2  10
ATOM     10  C   LIG    1       26.434 -15.944   4.173  0.00  0.00    -0.029 A 
ATOM     11  C   LIG    1       27.469 -16.549   4.917  0.00  0.00    +0.088 A 
ATOM     12  C   LIG    1       27.853 -17.879   4.663  0.00  0.00    +0.273 A 
ATOM     13  C   LIG    1       27.211 -18.630   3.674  0.00  0.00    +0.084 A 
ATOM     14  C   LIG    1       26.179 -18.049   2.944  0.00  0.00    +0.007 A 
ATOM     15  C   LIG    1       25.801 -16.723   3.187  0.00  0.00    +0.005 A 
BRANCH  12  16
ATOM     16  N   LIG    1       28.941 -18.494   5.440  0.00  0.00    +0.080 N 
ATOM     17  O   LIG    1       29.259 -17.956   6.512  0.00  0.00    -0.576 OA
ATOM     18  O   LIG    1       29.474 -19.514   4.981  0.00  0.00    +0.041 OA
ENDBRANCH  12  16
ENDBRANCH   2  10
BRANCH   1  19
ATOM     19  C   LIG    1       28.322 -13.197   4.802  0.00  0.00    +0.337 C 
ATOM     20  O   LIG    1       29.386 -12.678   4.491  0.00  0.00    -0.245 OA
BRANCH  19  22
ATOM     21  C   LIG    1       26.605 -13.071   6.457  0.00  0.00    +0.280 C 
ATOM     22  O   LIG    1       27.923 -13.438   6.070  0.00  0.00    -0.465 OA
ENDBRANCH  19  22
ENDBRANCH   1  19
BRANCH   3  23
ATOM     23  C   LIG    1       23.509 -14.174   4.578  0.00  0.00    +0.338 C 
ATOM     24  O   LIG    1       22.774 -13.240   4.882  0.00  0.00    -0.245 OA
BRANCH  23  25
ATOM     25  O   LIG    1       23.344 -15.454   4.992  0.00  0.00    -0.460 OA
BRANCH  25  26
ATOM     26  C   LIG    1       22.499 -16.281   4.166  0.00  0.00    +0.247 C 
BRANCH  26  27
ATOM     27  C   LIG    1       22.510 -17.765   4.600  0.00  0.00    +0.125 C 
BRANCH  27  28
ATOM     28  N   LIG    1       21.243 -18.501   4.359  0.00  0.00    -0.298 NA
ATOM     29  C   LIG    1       20.739 -18.154   3.020  0.00  0.00    +0.105 C 
BRANCH  28  30
ATOM     30  C   LIG    1       21.478 -19.957   4.460  0.00  0.00    +0.119 C 
BRANCH  30  31
ATOM     31  C   LIG    1       22.803 -20.386   5.056  0.00  0.00    -0.033 A 
ATOM     32  C   LIG    1       22.941 -20.719   6.412  0.00  0.00    +0.005 A 
ATOM     33  C   LIG    1       24.198 -20.998   6.948  0.00  0.00    +0.000 A 
ATOM     34  C   LIG    1       25.331 -20.933   6.140  0.00  0.00    +0.000 A 
ATOM     35  C   LIG    1       25.205 -20.623   4.788  0.00  0.00    +0.000 A 
ATOM     36  C   LIG    1       23.949 -20.348   4.249  0.00  0.00    +0.005 A 
ENDBRANCH  30  31
ENDBRANCH  28  30
ENDBRANCH  27  28
ENDBRANCH  26  27
ENDBRANCH  25  26
ENDBRANCH  23  25
ENDBRANCH   3  23
TORSDOF 11
ENDMDL
MODEL 3
REMARK VINA RESULT:       7.0      1.443      2.603
REMARK  Name = *****
REMARK                            x       y       z     vdW  Elec       q    Type
REMARK                         _______ _______ _______ _____ _____    ______ ____
ROOT
ATOM      1  C   LIG    1       23.008 -19.896   3.790  0.00  0.00    +0.065 C 
ATOM      2  C   LIG    1       24.284 -19.055   3.948  0.00  0.00    +0.096 C 
ATOM      3  C   LIG    1       23.940 -17.573   4.117  0.00  0.00    +0.065 C 
ATOM      4  C   LIG    1       22.744 -17.225   4.656  0.00  0.00    +0.016 C 
ATOM      5  C   LIG    1       22.278 -15.808   4.880  0.00  0.00    +0.061 C 
ATOM      6  N   LIG    1       21.842 -18.227   5.005  0.00  0.00    -0.321 N 
ATOM      7  H   LIG    1       20.923 -17.907   5.306  0.00  0.00    +0.152 HD
ATOM      8  C   LIG    1       21.867 -19.487   4.367  0.00  0.00    +0.016 C 
ATOM      9  C   LIG    1       20.562 -20.235   4.395  0.00  0.00    +0.061 C 
ENDROOT
BRANCH   2  10
ATOM     10  C   LIG    1       25.162 -19.632   5.085  0.00  0.00    -0.029 A 
ATOM     11  C   LIG    1       26.541 -19.340   5.151  0.00  0.00    +0.088 A 
ATOM     12  C   LIG    1       27.356 -19.939   6.130  0.00  0.00    +0.273 A 
ATOM     13  C   LIG    1       26.814 -20.828   7.062  0.00  0.00    +0.084 A 
ATOM     14  C   LIG    1       25.452 -21.112   7.016  0.00  0.00    +0.007 A 
ATOM     15  C   LIG    1       24.641 -20.526   6.038  0.00  0.00    +0.005 A 
BRANCH  12  16
ATOM     16  N   LIG    1       28.794 -19.634   6.180  0.00  0.00    +0.080 N 
ATOM     17  O   LIG    1       29.475 -20.204   7.046  0.00  0.00    -0.576 OA
ATOM     18  O   LIG    1       29.243 -18.826   5.354  0.00  0.00    +0.041 OA
ENDBRANCH  12  16
ENDBRANCH   2  10
BRANCH   1  19
ATOM     19  C   LIG    1       23.043 -21.072   2.862  0.00  0.00    +0.337 C 
ATOM     20  O   LIG    1       22.097 -21.500   2.215  0.00  0.00    -0.245 OA
BRANCH  19  22
ATOM     21  C   LIG    1       25.269 -20.767   2.054  0.00  0.00    +0.280 C 
ATOM     22  O   LIG    1       24.311 -21.531   2.772  0.00  0.00    -0.465 OA
ENDBRANCH  19  22
ENDBRANCH   1  19
BRANCH   3  23
ATOM     23  C   LIG    1       24.871 -16.562   3.555  0.00  0.00    +0.338 C 
ATOM     24  O   LIG    1       26.094 -16.643   3.605  0.00  0.00    -0.245 OA
BRANCH  23  25
ATOM     25  O   LIG    1       24.187 -15.512   3.035  0.00  0.00    -0.460 OA
BRANCH  25  26
ATOM     26  C   LIG    1       23.678 -14.556   3.987  0.00  0.00    +0.247 C 
BRANCH  26  27
ATOM     27  C   LIG    1       24.193 -13.122   3.725  0.00  0.00    +0.125 C 
BRANCH  27  28
ATOM     28  N   LIG    1       24.546 -12.828   2.314  0.00  0.00    -0.298 NA
ATOM     29  C   LIG    1       24.141 -11.447   2.001  0.00  0.00    +0.105 C 
BRANCH  28  30
ATOM     30  C   LIG    1       26.000 -12.997   2.111  0.00  0.00    +0.119 C 
BRANCH  30  31
ATOM     31  C   LIG    1       26.873 -12.850   3.341  0.00  0.00    -0.033 A 
ATOM     32  C   LIG    1       28.197 -12.393   3.268  0.00  0.00    +0.005 A 
ATOM     33  C   LIG    1       29.006 -12.380   4.404  0.00  0.00    +0.000 A 
ATOM     34  C   LIG    1       28.506 -12.838   5.621  0.00  0.00    +0.000 A 
ATOM     35  C   LIG    1       27.186 -13.276   5.711  0.00  0.00    +0.000 A 
ATOM     36  C   LIG    1       26.375 -13.285   4.578  0.00  0.00    +0.005 A 
ENDBRANCH  30  31
ENDBRANCH  28  30
ENDBRANCH  27  28
ENDBRANCH  26  27
ENDBRANCH  25  26
ENDBRANCH  23  25
ENDBRANCH   3  23
TORSDOF 11
ENDMDL
