MODEL 1
REMARK VINA RESULT:      -0.7      0.000      0.000
REMARK  Name = *****
REMARK                            x       y       z     vdW  Elec       q    Type
REMARK                         _______ _______ _______ _____ _____    ______ ____
ROOT
ATOM      1  CA  ALA A  1       23.743 -17.473   3.447  0.00  0.00    +0.138 C 
ATOM      2  CB  ALA A  1       23.426 -17.161   4.927  0.00  0.00    +0.034 C 
ENDROOT
BRANCH   1   3
ATOM      3  C   ALA A  1       25.263 -17.185   3.262  0.00  0.00    +0.233 C 
ATOM      4  N   UNK A  2       25.726 -15.900   3.544  0.00  0.00    -0.282 N 
ATOM      5  C   UNK A  2       24.874 -14.766   3.947  0.00  0.00    +0.189 C 
ATOM      6  C   UNK A  2       25.473 -14.078   5.172  0.00  0.00    +0.069 C 
ATOM      7  C   UNK A  2       26.832 -13.543   4.816  0.00  0.00    -0.040 A 
ATOM      8  C   UNK A  2       27.626 -14.274   3.913  0.00  0.00    -0.027 A 
ATOM      9  C   UNK A  2       28.866 -13.746   3.533  0.00  0.00    +0.005 A 
ATOM     10  C   UNK A  2       29.291 -12.506   4.019  0.00  0.00    +0.000 A 
ATOM     11  C   UNK A  2       28.491 -11.787   4.905  0.00  0.00    +0.000 A 
ATOM     12  C   UNK A  2       27.267 -12.309   5.315  0.00  0.00    +0.004 A 
ATOM     13  C   UNK A  2       27.155 -15.603   3.337  0.00  0.00    +0.144 C 
ATOM     14  O   ALA A  1       26.043 -18.104   2.987  0.00  0.00    -0.274 OA
BRANCH   5  15
ATOM     15  C   UNK A  2       24.607 -13.773   2.814  0.00  0.00    +0.326 C 
ATOM     16  O   UNK A  2       25.303 -13.574   1.822  0.00  0.00    -0.249 OA
BRANCH  15  17
ATOM     17  O   UNK A  2       23.571 -12.950   3.046  0.00  0.00    -0.479 OA
ATOM     18  H   UNK A  2       23.284 -13.192   3.953  0.00  0.00    +0.295 HD
ENDBRANCH  15  17
ENDBRANCH   5  15
ENDBRANCH   1   3
BRANCH   1  19
ATOM     19  N   ALA A  1       23.336 -18.867   3.135  0.00  0.00    -0.294 NA
ATOM     20  H   ALA A  1       22.368 -18.865   2.808  0.00  0.00    +0.123 HD
BRANCH  19  21
ATOM     21  C   UNK A  0       23.481 -19.895   4.210  0.00  0.00    +0.164 C 
BRANCH  21  22
ATOM     22  C   UNK A  0       22.118 -20.322   4.791  0.00  0.00    +0.324 C 
ATOM     23  O   UNK A  0       21.865 -21.408   5.264  0.00  0.00    -0.249 OA
BRANCH  22  24
ATOM     24  O   UNK A  0       21.215 -19.314   4.570  0.00  0.00    -0.464 OA
BRANCH  24  26
ATOM     25  C   UNK A  0       19.792 -18.213   2.987  0.00  0.00    +0.048 C 
ATOM     26  C   UNK A  0       20.284 -19.553   3.510  0.00  0.00    +0.229 C 
ENDBRANCH  24  26
ENDBRANCH  22  24
ENDBRANCH  21  22
BRANCH  21  27
ATOM     27  C   UNK A  0       24.512 -19.603   5.334  0.00  0.00    +0.035 C 
BRANCH  27  28
ATOM     28  C   UNK A  0       25.188 -20.844   5.973  0.00  0.00    +0.037 C 
BRANCH  28  29
ATOM     29  C   UNK A  0       26.685 -20.653   6.170  0.00  0.00    -0.047 A 
ATOM     30  C   UNK A  0       27.331 -19.558   5.574  0.00  0.00    +0.003 A 
ATOM     31  C   UNK A  0       28.714 -19.387   5.689  0.00  0.00    +0.000 A 
ATOM     32  C   UNK A  0       29.474 -20.313   6.399  0.00  0.00    +0.000 A 
ATOM     33  C   UNK A  0       28.846 -21.393   7.016  0.00  0.00    +0.000 A 
ATOM     34  C   UNK A  0       27.458 -21.559   6.910  0.00  0.00    +0.003 A 
ENDBRANCH  28  29
ENDBRANCH  27  28
ENDBRANCH  21  27
ENDBRANCH  19  21
ENDBRANCH   1  19
TORSDOF 11
ENDMDL
MODEL 2
REMARK VINA RESULT:       0.3      1.935      2.741
REMARK  Name = *****
REMARK                            x       y       z     vdW  Elec       q    Type
REMARK                         _______ _______ _______ _____ _____    ______ ____
ROOT
ATOM      1  CA  ALA A  1       25.089 -18.825   3.983  0.00  0.00    +0.138 C 
ATOM      2  CB  ALA A  1       25.970 -18.396   2.788  0.00  0.00    +0.034 C 
ENDROOT
BRANCH   1   3
ATOM      3  C   ALA A  1       24.151 -17.617   4.283  0.00  0.00    +0.233 C 
ATOM      4  N   UNK A  2       24.584 -16.344   3.911  0.00  0.00    -0.282 N 
ATOM      5  C   UNK A  2       25.896 -16.042   3.308  0.00  0.00    +0.189 C 
ATOM      6  C   UNK A  2       25.709 -15.153   2.081  0.00  0.00    +0.069 C 
ATOM      7  C   UNK A  2       25.077 -13.858   2.508  0.00  0.00    -0.040 A 
ATOM      8  C   UNK A  2       24.139 -13.882   3.557  0.00  0.00    -0.027 A 
ATOM      9  C   UNK A  2       23.596 -12.667   3.997  0.00  0.00    +0.005 A 
ATOM     10  C   UNK A  2       24.000 -11.457   3.424  0.00  0.00    +0.000 A 
ATOM     11  C   UNK A  2       24.937 -11.447   2.392  0.00  0.00    +0.000 A 
ATOM     12  C   UNK A  2       25.468 -12.646   1.924  0.00  0.00    +0.004 A 
ATOM     13  C   UNK A  2       23.727 -15.187   4.223  0.00  0.00    +0.144 C 
ATOM     14  O   ALA A  1       23.014 -17.804   4.729  0.00  0.00    -0.274 OA
BRANCH   5  15
ATOM     15  C   UNK A  2       26.896 -15.439   4.297  0.00  0.00    +0.326 C 
ATOM     16  O   UNK A  2       26.720 -14.473   5.035  0.00  0.00    -0.249 OA
BRANCH  15  17
ATOM     17  O   UNK A  2       28.131 -15.960   4.206  0.00  0.00    -0.479 OA
ATOM     18  H   UNK A  2       28.710 -15.170   4.144  0.00  0.00    +0.295 HD
ENDBRANCH  15  17
ENDBRANCH   5  15
ENDBRANCH   1   3
BRANCH   1  19
ATOM     19  N   ALA A  1       24.380 -20.087   3.650  0.00  0.00    -0.294 NA
ATOM     20  H   ALA A  1       23.609 -19.876   3.013  0.00  0.00    +0.123 HD
BRANCH  19  21
ATOM     21  C   UNK A  0       23.860 -20.918   4.779  0.00  0.00    +0.164 C 
BRANCH  21  22
ATOM     22  C   UNK A  0       22.320 -20.978   4.794  0.00  0.00    +0.324 C 
ATOM     23  O   UNK A  0       21.648 -21.571   5.608  0.00  0.00    -0.249 OA
BRANCH  22  24
ATOM     24  O   UNK A  0       21.848 -20.356   3.666  0.00  0.00    -0.464 OA
BRANCH  24  26
ATOM     25  C   UNK A  0       20.385 -18.522   3.181  0.00  0.00    +0.048 C 
ATOM     26  C   UNK A  0       20.482 -19.937   3.728  0.00  0.00    +0.229 C 
ENDBRANCH  24  26
ENDBRANCH  22  24
ENDBRANCH  21  22
BRANCH  21  27
ATOM     27  C   UNK A  0       24.432 -20.626   6.193  0.00  0.00    +0.035 C 
BRANCH  27  28
ATOM     28  C   UNK A  0       25.563 -21.571   6.674  0.00  0.00    +0.037 C 
BRANCH  28  29
ATOM     29  C   UNK A  0       26.939 -20.926   6.579  0.00  0.00    -0.047 A 
ATOM     30  C   UNK A  0       27.077 -19.671   5.966  0.00  0.00    +0.003 A 
ATOM     31  C   UNK A  0       28.334 -19.078   5.812  0.00  0.00    +0.000 A 
ATOM     32  C   UNK A  0       29.475 -19.735   6.266  0.00  0.00    +0.000 A 
ATOM     33  C   UNK A  0       29.353 -20.971   6.897  0.00  0.00    +0.000 A 
ATOM     34  C   UNK A  0       28.092 -21.561   7.061  0.00  0.00    +0.003 A 
ENDBRANCH  28  29
ENDBRANCH  27  28
ENDBRANCH  21  27
ENDBRANCH  19  21
ENDBRANCH   1  19
TORSDOF 11
ENDMDL
