MODEL 1
REMARK VINA RESULT:      -8.1      0.000      0.000
REMARK  Name = *****
REMARK                            x       y       z     vdW  Elec       q    Type
REMARK                         _______ _______ _______ _____ _____    ______ ____
ROOT
ATOM      1  N   LIG    1       26.228 -21.760   6.619  0.00  0.00    -0.179 NA
ATOM      2  C   LIG    1       27.156 -21.947   7.505  0.00  0.00    +0.177 C 
ENDROOT
BRANCH   1   5
ATOM      3  O   LIG    1       23.603 -20.999   7.763  0.00  0.00    -0.224 OA
ATOM      4  C   LIG    1       23.868 -22.083   7.259  0.00  0.00    +0.423 C 
ATOM      5  N   LIG    1       25.098 -22.513   6.765  0.00  0.00    -0.155 N 
ATOM      6  C   LIG    1       24.893 -23.683   5.980  0.00  0.00    +0.179 C 
ATOM      7  C   LIG    1       23.650 -24.239   6.626  0.00  0.00    +0.255 C 
ATOM      8  O   LIG    1       22.942 -23.082   7.090  0.00  0.00    -0.448 OA
ENDBRANCH   1   5
BRANCH   2   9
ATOM      9  C   LIG    1       28.377 -21.194   7.446  0.00  0.00    +0.154 A 
ATOM     10  O   LIG    1       29.338 -21.449   8.389  0.00  0.00    -0.399 OA
ATOM     11  C   LIG    1       30.373 -20.610   8.115  0.00  0.00    +0.438 A 
ATOM     12  C   LIG    1       30.116 -19.827   7.016  0.00  0.00    +0.132 A 
ATOM     13  C   LIG    1       28.822 -20.210   6.579  0.00  0.00    +0.058 A 
BRANCH  11  14
ATOM     14  N   LIG    1       31.503 -20.685   8.986  0.00  0.00    +0.119 N 
ATOM     15  O   LIG    1       31.883 -21.805   9.349  0.00  0.00    -0.574 OA
ATOM     16  O   LIG    1       32.017 -19.604   9.308  0.00  0.00    +0.045 OA
ENDBRANCH  11  14
ENDBRANCH   2   9
TORSDOF 3
ENDMDL
MODEL 2
REMARK VINA RESULT:      -7.7      1.742      1.981
REMARK  Name = *****
REMARK                            x       y       z     vdW  Elec       q    Type
REMARK                         _______ _______ _______ _____ _____    ______ ____
ROOT
ATOM      1  N   LIG    1       26.458 -20.438   6.810  0.00  0.00    -0.179 NA
ATOM      2  C   LIG    1       27.500 -20.276   6.055  0.00  0.00    +0.177 C 
ENDROOT
BRANCH   1   5
ATOM      3  O   LIG    1       23.733 -20.754   7.931  0.00  0.00    -0.224 OA
ATOM      4  C   LIG    1       24.015 -20.770   6.739  0.00  0.00    +0.423 C 
ATOM      5  N   LIG    1       25.281 -20.689   6.163  0.00  0.00    -0.155 N 
ATOM      6  C   LIG    1       25.137 -20.411   4.775  0.00  0.00    +0.179 C 
ATOM      7  C   LIG    1       23.784 -21.017   4.506  0.00  0.00    +0.255 C 
ATOM      8  O   LIG    1       23.075 -20.866   5.744  0.00  0.00    -0.448 OA
ENDBRANCH   1   5
BRANCH   2   9
ATOM      9  C   LIG    1       28.786 -20.020   6.639  0.00  0.00    +0.154 A 
ATOM     10  O   LIG    1       29.224 -20.863   7.627  0.00  0.00    -0.399 OA
ATOM     11  C   LIG    1       30.446 -20.404   8.007  0.00  0.00    +0.438 A 
ATOM     12  C   LIG    1       30.818 -19.294   7.288  0.00  0.00    +0.132 A 
ATOM     13  C   LIG    1       29.742 -19.048   6.397  0.00  0.00    +0.058 A 
BRANCH  11  14
ATOM     14  N   LIG    1       31.104 -21.125   9.050  0.00  0.00    +0.119 N 
ATOM     15  O   LIG    1       32.256 -20.788   9.351  0.00  0.00    -0.574 OA
ATOM     16  O   LIG    1       30.454 -22.040   9.576  0.00  0.00    +0.045 OA
ENDBRANCH  11  14
ENDBRANCH   2   9
TORSDOF 3
ENDMDL
MODEL 3
REMARK VINA RESULT:      -7.6      1.874      6.658
REMARK  Name = *****
REMARK                            x       y       z     vdW  Elec       q    Type
REMARK                         _______ _______ _______ _____ _____    ______ ____
ROOT
ATOM      1  N   LIG    1       28.825 -21.310   7.949  0.00  0.00    -0.179 NA
ATOM      2  C   LIG    1       27.731 -20.613   7.904  0.00  0.00    +0.177 C 
ENDROOT
BRANCH   1   5
ATOM      3  O   LIG    1       31.032 -21.915   9.830  0.00  0.00    -0.224 OA
ATOM      4  C   LIG    1       31.008 -20.975   9.045  0.00  0.00    +0.423 C 
ATOM      5  N   LIG    1       29.973 -20.610   8.187  0.00  0.00    -0.155 N 
ATOM      6  C   LIG    1       30.475 -19.684   7.230  0.00  0.00    +0.179 C 
ATOM      7  C   LIG    1       31.602 -19.058   8.011  0.00  0.00    +0.255 C 
ATOM      8  O   LIG    1       32.055 -20.104   8.881  0.00  0.00    -0.448 OA
ENDBRANCH   1   5
BRANCH   2   9
ATOM      9  C   LIG    1       26.470 -21.258   7.672  0.00  0.00    +0.154 A 
ATOM     10  O   LIG    1       26.479 -22.576   7.299  0.00  0.00    -0.399 OA
ATOM     11  C   LIG    1       25.177 -22.936   7.140  0.00  0.00    +0.438 A 
ATOM     12  C   LIG    1       24.324 -21.894   7.411  0.00  0.00    +0.132 A 
ATOM     13  C   LIG    1       25.164 -20.806   7.761  0.00  0.00    +0.058 A 
BRANCH  11  14
ATOM     14  N   LIG    1       24.933 -24.284   6.733  0.00  0.00    +0.119 N 
ATOM     15  O   LIG    1       23.756 -24.648   6.606  0.00  0.00    -0.574 OA
ATOM     16  O   LIG    1       25.934 -24.986   6.536  0.00  0.00    +0.045 OA
ENDBRANCH  11  14
ENDBRANCH   2   9
TORSDOF 3
ENDMDL
MODEL 4
REMARK VINA RESULT:      -7.5      1.995      6.956
REMARK  Name = *****
REMARK                            x       y       z     vdW  Elec       q    Type
REMARK                         _______ _______ _______ _____ _____    ______ ____
ROOT
ATOM      1  N   LIG    1       28.800 -21.055   7.987  0.00  0.00    -0.179 NA
ATOM      2  C   LIG    1       27.756 -20.285   7.958  0.00  0.00    +0.177 C 
ENDROOT
BRANCH   1   5
ATOM      3  O   LIG    1       30.963 -21.909   9.823  0.00  0.00    -0.224 OA
ATOM      4  C   LIG    1       30.998 -20.923   9.097  0.00  0.00    +0.423 C 
ATOM      5  N   LIG    1       29.989 -20.444   8.265  0.00  0.00    -0.155 N 
ATOM      6  C   LIG    1       30.549 -19.494   7.365  0.00  0.00    +0.179 C 
ATOM      7  C   LIG    1       31.712 -18.987   8.180  0.00  0.00    +0.255 C 
ATOM      8  O   LIG    1       32.098 -20.110   8.984  0.00  0.00    -0.448 OA
ENDBRANCH   1   5
BRANCH   2   9
ATOM      9  C   LIG    1       26.457 -20.834   7.688  0.00  0.00    +0.154 A 
ATOM     10  O   LIG    1       25.770 -20.360   6.602  0.00  0.00    -0.399 OA
ATOM     11  C   LIG    1       24.587 -21.031   6.576  0.00  0.00    +0.438 A 
ATOM     12  C   LIG    1       24.492 -21.933   7.607  0.00  0.00    +0.132 A 
ATOM     13  C   LIG    1       25.709 -21.809   8.326  0.00  0.00    +0.058 A 
BRANCH  11  14
ATOM     14  N   LIG    1       23.683 -20.690   5.523  0.00  0.00    +0.119 N 
ATOM     15  O   LIG    1       22.782 -19.879   5.772  0.00  0.00    -0.574 OA
ATOM     16  O   LIG    1       23.880 -21.244   4.433  0.00  0.00    +0.045 OA
ENDBRANCH  11  14
ENDBRANCH   2   9
TORSDOF 3
ENDMDL
MODEL 5
REMARK VINA RESULT:      -7.4      2.402      3.047
REMARK  Name = *****
REMARK                            x       y       z     vdW  Elec       q    Type
REMARK                         _______ _______ _______ _____ _____    ______ ____
ROOT
ATOM      1  N   LIG    1       27.780 -20.251   8.219  0.00  0.00    -0.179 NA
ATOM      2  C   LIG    1       28.707 -19.822   7.419  0.00  0.00    +0.177 C 
ENDROOT
BRANCH   1   5
ATOM      3  O   LIG    1       25.449 -21.582   9.473  0.00  0.00    -0.224 OA
ATOM      4  C   LIG    1       25.608 -21.417   8.269  0.00  0.00    +0.423 C 
ATOM      5  N   LIG    1       26.709 -20.857   7.626  0.00  0.00    -0.155 N 
ATOM      6  C   LIG    1       26.351 -20.555   6.282  0.00  0.00    +0.179 C 
ATOM      7  C   LIG    1       25.272 -21.580   6.043  0.00  0.00    +0.255 C 
ATOM      8  O   LIG    1       24.672 -21.772   7.331  0.00  0.00    -0.448 OA
ENDBRANCH   1   5
BRANCH   2   9
ATOM      9  C   LIG    1       29.880 -19.182   7.945  0.00  0.00    +0.154 A 
ATOM     10  O   LIG    1       29.793 -18.590   9.177  0.00  0.00    -0.399 OA
ATOM     11  C   LIG    1       31.019 -18.062   9.434  0.00  0.00    +0.438 A 
ATOM     12  C   LIG    1       31.901 -18.304   8.410  0.00  0.00    +0.132 A 
ATOM     13  C   LIG    1       31.162 -19.035   7.445  0.00  0.00    +0.058 A 
BRANCH  11  14
ATOM     14  N   LIG    1       31.170 -17.371  10.676  0.00  0.00    +0.119 N 
ATOM     15  O   LIG    1       32.226 -17.527  11.302  0.00  0.00    -0.574 OA
ATOM     16  O   LIG    1       30.216 -16.663  11.027  0.00  0.00    +0.045 OA
ENDBRANCH  11  14
ENDBRANCH   2   9
TORSDOF 3
ENDMDL
MODEL 6
REMARK VINA RESULT:      -7.2      2.314      2.766
REMARK  Name = *****
REMARK                            x       y       z     vdW  Elec       q    Type
REMARK                         _______ _______ _______ _____ _____    ______ ____
ROOT
ATOM      1  N   LIG    1       27.180 -20.291   7.323  0.00  0.00    -0.179 NA
ATOM      2  C   LIG    1       28.429 -20.534   7.069  0.00  0.00    +0.177 C 
ENDROOT
BRANCH   1   5
ATOM      3  O   LIG    1       25.572 -20.014   4.850  0.00  0.00    -0.224 OA
ATOM      4  C   LIG    1       25.591 -21.000   5.577  0.00  0.00    +0.423 C 
ATOM      5  N   LIG    1       26.277 -21.158   6.778  0.00  0.00    -0.155 N 
ATOM      6  C   LIG    1       26.297 -22.541   7.117  0.00  0.00    +0.179 C 
ATOM      7  C   LIG    1       25.038 -23.014   6.436  0.00  0.00    +0.255 C 
ATOM      8  O   LIG    1       24.910 -22.158   5.292  0.00  0.00    -0.448 OA
ENDBRANCH   1   5
BRANCH   2   9
ATOM      9  C   LIG    1       29.456 -19.687   7.608  0.00  0.00    +0.154 A 
ATOM     10  O   LIG    1       29.263 -19.154   8.855  0.00  0.00    -0.399 OA
ATOM     11  C   LIG    1       30.363 -18.400   9.121  0.00  0.00    +0.438 A 
ATOM     12  C   LIG    1       31.268 -18.438   8.089  0.00  0.00    +0.132 A 
ATOM     13  C   LIG    1       30.681 -19.277   7.108  0.00  0.00    +0.058 A 
BRANCH  11  14
ATOM     14  N   LIG    1       30.384 -17.722  10.380  0.00  0.00    +0.119 N 
ATOM     15  O   LIG    1       30.093 -16.520  10.396  0.00  0.00    -0.574 OA
ATOM     16  O   LIG    1       30.694 -18.408  11.364  0.00  0.00    +0.045 OA
ENDBRANCH  11  14
ENDBRANCH   2   9
TORSDOF 3
ENDMDL
MODEL 7
REMARK VINA RESULT:      -7.2      1.760      6.704
REMARK  Name = *****
REMARK                            x       y       z     vdW  Elec       q    Type
REMARK                         _______ _______ _______ _____ _____    ______ ____
ROOT
ATOM      1  N   LIG    1       29.032 -20.803   7.558  0.00  0.00    -0.179 NA
ATOM      2  C   LIG    1       28.119 -19.962   7.181  0.00  0.00    +0.177 C 
ENDROOT
BRANCH   1   5
ATOM      3  O   LIG    1       30.852 -21.933   9.606  0.00  0.00    -0.224 OA
ATOM      4  C   LIG    1       31.011 -20.864   9.029  0.00  0.00    +0.423 C 
ATOM      5  N   LIG    1       30.158 -20.260   8.108  0.00  0.00    -0.155 N 
ATOM      6  C   LIG    1       30.864 -19.216   7.445  0.00  0.00    +0.179 C 
ATOM      7  C   LIG    1       31.872 -18.844   8.501  0.00  0.00    +0.255 C 
ATOM      8  O   LIG    1       32.115 -20.069   9.207  0.00  0.00    -0.448 OA
ENDBRANCH   1   5
BRANCH   2   9
ATOM      9  C   LIG    1       26.893 -20.435   6.603  0.00  0.00    +0.154 A 
ATOM     10  O   LIG    1       26.028 -21.131   7.407  0.00  0.00    -0.399 OA
ATOM     11  C   LIG    1       24.966 -21.464   6.626  0.00  0.00    +0.438 A 
ATOM     12  C   LIG    1       25.111 -20.995   5.343  0.00  0.00    +0.132 A 
ATOM     13  C   LIG    1       26.360 -20.324   5.330  0.00  0.00    +0.058 A 
BRANCH  11  14
ATOM     14  N   LIG    1       23.924 -22.217   7.251  0.00  0.00    +0.119 N 
ATOM     15  O   LIG    1       23.828 -23.418   6.970  0.00  0.00    -0.574 OA
ATOM     16  O   LIG    1       23.196 -21.595   8.036  0.00  0.00    +0.045 OA
ENDBRANCH  11  14
ENDBRANCH   2   9
TORSDOF 3
ENDMDL
MODEL 8
REMARK VINA RESULT:      -7.0      1.896      2.372
REMARK  Name = *****
REMARK                            x       y       z     vdW  Elec       q    Type
REMARK                         _______ _______ _______ _____ _____    ______ ____
ROOT
ATOM      1  N   LIG    1       26.217 -21.036   6.851  0.00  0.00    -0.179 NA
ATOM      2  C   LIG    1       27.274 -20.355   6.531  0.00  0.00    +0.177 C 
ENDROOT
BRANCH   1   5
ATOM      3  O   LIG    1       23.394 -20.820   7.725  0.00  0.00    -0.224 OA
ATOM      4  C   LIG    1       23.798 -20.642   6.582  0.00  0.00    +0.423 C 
ATOM      5  N   LIG    1       25.098 -20.792   6.106  0.00  0.00    -0.155 N 
ATOM      6  C   LIG    1       25.193 -20.174   4.827  0.00  0.00    +0.179 C 
ATOM      7  C   LIG    1       23.768 -20.298   4.351  0.00  0.00    +0.255 C 
ATOM      8  O   LIG    1       22.986 -20.240   5.551  0.00  0.00    -0.448 OA
ENDBRANCH   1   5
BRANCH   2   9
ATOM      9  C   LIG    1       28.504 -20.549   7.245  0.00  0.00    +0.154 A 
ATOM     10  O   LIG    1       29.327 -19.467   7.418  0.00  0.00    -0.399 OA
ATOM     11  C   LIG    1       30.408 -19.917   8.109  0.00  0.00    +0.438 A 
ATOM     12  C   LIG    1       30.306 -21.256   8.398  0.00  0.00    +0.132 A 
ATOM     13  C   LIG    1       29.068 -21.665   7.840  0.00  0.00    +0.058 A 
BRANCH  11  14
ATOM     14  N   LIG    1       31.425 -18.956   8.400  0.00  0.00    +0.119 N 
ATOM     15  O   LIG    1       31.461 -17.924   7.717  0.00  0.00    -0.574 OA
ATOM     16  O   LIG    1       32.196 -19.239   9.327  0.00  0.00    +0.045 OA
ENDBRANCH  11  14
ENDBRANCH   2   9
TORSDOF 3
ENDMDL
MODEL 9
REMARK VINA RESULT:      -6.9      2.345      6.578
REMARK  Name = *****
REMARK                            x       y       z     vdW  Elec       q    Type
REMARK                         _______ _______ _______ _____ _____    ______ ____
ROOT
ATOM      1  N   LIG    1       28.130 -20.926   6.770  0.00  0.00    -0.179 NA
ATOM      2  C   LIG    1       27.037 -20.405   7.237  0.00  0.00    +0.177 C 
ENDROOT
BRANCH   1   5
ATOM      3  O   LIG    1       28.818 -18.507   5.203  0.00  0.00    -0.224 OA
ATOM      4  C   LIG    1       29.489 -18.976   6.114  0.00  0.00    +0.423 C 
ATOM      5  N   LIG    1       29.245 -20.140   6.838  0.00  0.00    -0.155 N 
ATOM      6  C   LIG    1       30.067 -20.138   8.001  0.00  0.00    +0.179 C 
ATOM      7  C   LIG    1       31.222 -19.295   7.525  0.00  0.00    +0.255 C 
ATOM      8  O   LIG    1       30.635 -18.385   6.585  0.00  0.00    -0.448 OA
ENDBRANCH   1   5
BRANCH   2   9
ATOM      9  C   LIG    1       25.814 -21.157   7.223  0.00  0.00    +0.154 A 
ATOM     10  O   LIG    1       25.860 -22.455   6.788  0.00  0.00    -0.399 OA
ATOM     11  C   LIG    1       24.588 -22.930   6.868  0.00  0.00    +0.438 A 
ATOM     12  C   LIG    1       23.721 -21.981   7.352  0.00  0.00    +0.132 A 
ATOM     13  C   LIG    1       24.518 -20.831   7.586  0.00  0.00    +0.058 A 
BRANCH  11  14
ATOM     14  N   LIG    1       24.382 -24.280   6.448  0.00  0.00    +0.119 N 
ATOM     15  O   LIG    1       25.340 -24.885   5.950  0.00  0.00    -0.574 OA
ATOM     16  O   LIG    1       23.245 -24.740   6.623  0.00  0.00    +0.045 OA
ENDBRANCH  11  14
ENDBRANCH   2   9
TORSDOF 3
ENDMDL
