MODEL 1
REMARK VINA RESULT:      -4.1      0.000      0.000
REMARK  Name = *****
REMARK                            x       y       z     vdW  Elec       q    Type
REMARK                         _______ _______ _______ _____ _____    ______ ____
ROOT
ATOM      1  C   LIG    1       30.944 -19.584   7.488  0.00  0.00    +0.132 C 
ATOM      2  S   LIG    1       29.834 -18.805   6.518  0.00  0.00    -0.019 S 
ENDROOT
BRANCH   1   4
ATOM      3  C   LIG    1       31.831 -17.770   9.001  0.00  0.00    +0.127 C 
ATOM      4  N   LIG    1       31.945 -18.842   8.037  0.00  0.00    -0.330 N 
ATOM      5  H   LIG    1       32.871 -19.231   7.885  0.00  0.00    +0.147 HD
ENDBRANCH   1   4
BRANCH   1   6
ATOM      6  N   LIG    1       30.982 -20.919   7.762  0.00  0.00    -0.304 N 
ATOM      7  H   LIG    1       31.419 -21.502   7.070  0.00  0.00    +0.150 HD
BRANCH   6   8
ATOM      8  C   LIG    1       30.958 -21.517   9.065  0.00  0.00    +0.263 C 
BRANCH   8   9
ATOM      9  O   LIG    1       32.289 -21.443   9.512  0.00  0.00    -0.377 OA
ATOM     10  H   LIG    1       32.208 -21.236  10.459  0.00  0.00    +0.211 HD
ENDBRANCH   8   9
ENDBRANCH   6   8
ENDBRANCH   1   6
TORSDOF 4
ENDMDL
MODEL 2
REMARK VINA RESULT:      -4.1      1.759      2.092
REMARK  Name = *****
REMARK                            x       y       z     vdW  Elec       q    Type
REMARK                         _______ _______ _______ _____ _____    ______ ____
ROOT
ATOM      1  C   LIG    1       31.610 -19.327   8.611  0.00  0.00    +0.132 C 
ATOM      2  S   LIG    1       31.781 -17.749   9.122  0.00  0.00    -0.019 S 
ENDROOT
BRANCH   1   4
ATOM      3  C   LIG    1       30.341 -19.134   6.439  0.00  0.00    +0.127 C 
ATOM      4  N   LIG    1       31.441 -19.552   7.279  0.00  0.00    -0.330 N 
ATOM      5  H   LIG    1       32.281 -19.879   6.811  0.00  0.00    +0.147 HD
ENDBRANCH   1   4
BRANCH   1   6
ATOM      6  N   LIG    1       31.578 -20.435   9.405  0.00  0.00    -0.304 N 
ATOM      7  H   LIG    1       31.566 -20.271  10.397  0.00  0.00    +0.150 HD
BRANCH   6   8
ATOM      8  C   LIG    1       31.060 -21.721   9.043  0.00  0.00    +0.263 C 
BRANCH   8   9
ATOM      9  O   LIG    1       32.178 -22.435   8.575  0.00  0.00    -0.377 OA
ATOM     10  H   LIG    1       32.102 -22.383   7.607  0.00  0.00    +0.211 HD
ENDBRANCH   8   9
ENDBRANCH   6   8
ENDBRANCH   1   6
TORSDOF 4
ENDMDL
MODEL 3
REMARK VINA RESULT:      -4.0      1.327      2.787
REMARK  Name = *****
REMARK                            x       y       z     vdW  Elec       q    Type
REMARK                         _______ _______ _______ _____ _____    ______ ____
ROOT
ATOM      1  C   LIG    1       30.963 -19.993   7.788  0.00  0.00    +0.132 C 
ATOM      2  S   LIG    1       29.358 -20.071   7.346  0.00  0.00    -0.019 S 
ENDROOT
BRANCH   1   4
ATOM      3  C   LIG    1       31.021 -22.026   9.282  0.00  0.00    +0.127 C 
ATOM      4  N   LIG    1       31.544 -21.121   8.283  0.00  0.00    -0.330 N 
ATOM      5  H   LIG    1       32.337 -21.444   7.736  0.00  0.00    +0.147 HD
ENDBRANCH   1   4
BRANCH   1   6
ATOM      6  N   LIG    1       31.762 -18.888   7.747  0.00  0.00    -0.304 N 
ATOM      7  H   LIG    1       32.017 -18.559   6.833  0.00  0.00    +0.150 HD
BRANCH   6   8
ATOM      8  C   LIG    1       31.855 -17.874   8.756  0.00  0.00    +0.263 C 
BRANCH   8   9
ATOM      9  O   LIG    1       32.041 -18.584   9.955  0.00  0.00    -0.377 OA
ATOM     10  H   LIG    1       32.139 -19.508   9.669  0.00  0.00    +0.211 HD
ENDBRANCH   8   9
ENDBRANCH   6   8
ENDBRANCH   1   6
TORSDOF 4
ENDMDL
MODEL 4
REMARK VINA RESULT:      -3.8      1.408      2.566
REMARK  Name = *****
REMARK                            x       y       z     vdW  Elec       q    Type
REMARK                         _______ _______ _______ _____ _____    ______ ____
ROOT
ATOM      1  C   LIG    1       30.393 -19.522   6.848  0.00  0.00    +0.132 C 
ATOM      2  S   LIG    1       29.463 -18.629   5.792  0.00  0.00    -0.019 S 
ENDROOT
BRANCH   1   4
ATOM      3  C   LIG    1       28.652 -21.175   7.622  0.00  0.00    +0.127 C 
ATOM      4  N   LIG    1       29.966 -20.773   7.174  0.00  0.00    -0.330 N 
ATOM      5  H   LIG    1       30.598 -21.510   6.875  0.00  0.00    +0.147 HD
ENDBRANCH   1   4
BRANCH   1   6
ATOM      6  N   LIG    1       31.537 -19.110   7.467  0.00  0.00    -0.304 N 
ATOM      7  H   LIG    1       32.168 -18.560   6.911  0.00  0.00    +0.150 HD
BRANCH   6   8
ATOM      8  C   LIG    1       31.714 -18.916   8.876  0.00  0.00    +0.263 C 
BRANCH   8   9
ATOM      9  O   LIG    1       32.054 -20.189   9.367  0.00  0.00    -0.377 OA
ATOM     10  H   LIG    1       32.472 -20.007  10.226  0.00  0.00    +0.211 HD
ENDBRANCH   8   9
ENDBRANCH   6   8
ENDBRANCH   1   6
TORSDOF 4
ENDMDL
MODEL 5
REMARK VINA RESULT:      -3.8      1.802      2.609
REMARK  Name = *****
REMARK                            x       y       z     vdW  Elec       q    Type
REMARK                         _______ _______ _______ _____ _____    ______ ____
ROOT
ATOM      1  C   LIG    1       30.455 -20.294   7.927  0.00  0.00    +0.132 C 
ATOM      2  S   LIG    1       30.133 -18.671   8.133  0.00  0.00    -0.019 S 
ENDROOT
BRANCH   1   4
ATOM      3  C   LIG    1       28.169 -21.332   7.676  0.00  0.00    +0.127 C 
ATOM      4  N   LIG    1       29.529 -21.051   7.275  0.00  0.00    -0.330 N 
ATOM      5  H   LIG    1       29.782 -21.266   6.315  0.00  0.00    +0.147 HD
ENDBRANCH   1   4
BRANCH   1   6
ATOM      6  N   LIG    1       31.548 -20.968   8.388  0.00  0.00    -0.304 N 
ATOM      7  H   LIG    1       32.351 -20.408   8.613  0.00  0.00    +0.150 HD
BRANCH   6   8
ATOM      8  C   LIG    1       31.541 -22.235   9.057  0.00  0.00    +0.263 C 
BRANCH   8   9
ATOM      9  O   LIG    1       30.712 -22.039  10.176  0.00  0.00    -0.377 OA
ATOM     10  H   LIG    1       30.092 -22.787  10.144  0.00  0.00    +0.211 HD
ENDBRANCH   8   9
ENDBRANCH   6   8
ENDBRANCH   1   6
TORSDOF 4
ENDMDL
MODEL 6
REMARK VINA RESULT:      -3.7      9.901     10.454
REMARK  Name = *****
REMARK                            x       y       z     vdW  Elec       q    Type
REMARK                         _______ _______ _______ _____ _____    ______ ____
ROOT
ATOM      1  C   LIG    1       24.680 -26.475   5.646  0.00  0.00    +0.132 C 
ATOM      2  S   LIG    1       26.284 -26.365   6.088  0.00  0.00    -0.019 S 
ENDROOT
BRANCH   1   4
ATOM      3  C   LIG    1       23.603 -24.400   6.594  0.00  0.00    +0.127 C 
ATOM      4  N   LIG    1       23.967 -25.320   5.540  0.00  0.00    -0.330 N 
ATOM      5  H   LIG    1       23.860 -24.994   4.584  0.00  0.00    +0.147 HD
ENDBRANCH   1   4
BRANCH   1   6
ATOM      6  N   LIG    1       23.981 -27.623   5.416  0.00  0.00    -0.304 N 
ATOM      7  H   LIG    1       23.520 -27.691   4.526  0.00  0.00    +0.150 HD
BRANCH   6   8
ATOM      8  C   LIG    1       24.229 -28.900   6.019  0.00  0.00    +0.263 C 
BRANCH   8   9
ATOM      9  O   LIG    1       23.198 -29.725   5.535  0.00  0.00    -0.377 OA
ATOM     10  H   LIG    1       23.523 -30.627   5.695  0.00  0.00    +0.211 HD
ENDBRANCH   8   9
ENDBRANCH   6   8
ENDBRANCH   1   6
TORSDOF 4
ENDMDL
MODEL 7
REMARK VINA RESULT:      -3.7      2.471      2.875
REMARK  Name = *****
REMARK                            x       y       z     vdW  Elec       q    Type
REMARK                         _______ _______ _______ _____ _____    ______ ____
ROOT
ATOM      1  C   LIG    1       31.871 -17.725   9.558  0.00  0.00    +0.132 C 
ATOM      2  S   LIG    1       32.491 -16.187   9.384  0.00  0.00    -0.019 S 
ENDROOT
BRANCH   1   4
ATOM      3  C   LIG    1       31.301 -17.281  11.974  0.00  0.00    +0.127 C 
ATOM      4  N   LIG    1       31.321 -18.060  10.757  0.00  0.00    -0.330 N 
ATOM      5  H   LIG    1       30.697 -18.861  10.710  0.00  0.00    +0.147 HD
ENDBRANCH   1   4
BRANCH   1   6
ATOM      6  N   LIG    1       31.894 -18.717   8.622  0.00  0.00    -0.304 N 
ATOM      7  H   LIG    1       32.692 -18.732   8.010  0.00  0.00    +0.150 HD
BRANCH   6   8
ATOM      8  C   LIG    1       31.238 -19.988   8.719  0.00  0.00    +0.263 C 
BRANCH   8   9
ATOM      9  O   LIG    1       32.180 -20.825   9.343  0.00  0.00    -0.377 OA
ATOM     10  H   LIG    1       31.889 -21.723   9.109  0.00  0.00    +0.211 HD
ENDBRANCH   8   9
ENDBRANCH   6   8
ENDBRANCH   1   6
TORSDOF 4
ENDMDL
MODEL 8
REMARK VINA RESULT:      -3.5      8.195      8.485
REMARK  Name = *****
REMARK                            x       y       z     vdW  Elec       q    Type
REMARK                         _______ _______ _______ _____ _____    ______ ____
ROOT
ATOM      1  C   LIG    1       24.328 -21.965   5.387  0.00  0.00    +0.132 C 
ATOM      2  S   LIG    1       25.514 -20.886   5.846  0.00  0.00    -0.019 S 
ENDROOT
BRANCH   1   4
ATOM      3  C   LIG    1       22.581 -20.161   5.148  0.00  0.00    +0.127 C 
ATOM      4  N   LIG    1       23.161 -21.462   4.899  0.00  0.00    -0.330 N 
ATOM      5  H   LIG    1       22.776 -22.001   4.129  0.00  0.00    +0.147 HD
ENDBRANCH   1   4
BRANCH   1   6
ATOM      6  N   LIG    1       24.388 -23.324   5.490  0.00  0.00    -0.304 N 
ATOM      7  H   LIG    1       25.106 -23.778   4.955  0.00  0.00    +0.150 HD
BRANCH   6   8
ATOM      8  C   LIG    1       23.932 -24.109   6.599  0.00  0.00    +0.263 C 
BRANCH   8   9
ATOM      9  O   LIG    1       22.533 -23.958   6.587  0.00  0.00    -0.377 OA
ATOM     10  H   LIG    1       22.224 -24.574   7.273  0.00  0.00    +0.211 HD
ENDBRANCH   8   9
ENDBRANCH   6   8
ENDBRANCH   1   6
TORSDOF 4
ENDMDL
MODEL 9
REMARK VINA RESULT:      -3.5      4.350      5.094
REMARK  Name = *****
REMARK                            x       y       z     vdW  Elec       q    Type
REMARK                         _______ _______ _______ _____ _____    ______ ____
ROOT
ATOM      1  C   LIG    1       27.696 -20.155   6.187  0.00  0.00    +0.132 C 
ATOM      2  S   LIG    1       26.727 -20.583   7.474  0.00  0.00    -0.019 S 
ENDROOT
BRANCH   1   4
ATOM      3  C   LIG    1       25.707 -20.122   4.636  0.00  0.00    +0.127 C 
ATOM      4  N   LIG    1       27.103 -19.963   4.977  0.00  0.00    -0.330 N 
ATOM      5  H   LIG    1       27.688 -19.469   4.310  0.00  0.00    +0.147 HD
ENDBRANCH   1   4
BRANCH   1   6
ATOM      6  N   LIG    1       29.053 -20.014   6.208  0.00  0.00    -0.304 N 
ATOM      7  H   LIG    1       29.577 -20.689   5.678  0.00  0.00    +0.150 HD
BRANCH   6   8
ATOM      8  C   LIG    1       29.774 -18.797   6.437  0.00  0.00    +0.263 C 
BRANCH   8   9
ATOM      9  O   LIG    1       29.654 -18.083   5.232  0.00  0.00    -0.377 OA
ATOM     10  H   LIG    1       29.625 -17.152   5.512  0.00  0.00    +0.211 HD
ENDBRANCH   8   9
ENDBRANCH   6   8
ENDBRANCH   1   6
TORSDOF 4
ENDMDL
