MODEL 1
REMARK VINA RESULT:      -5.4      0.000      0.000
REMARK  Name = *****
REMARK                            x       y       z     vdW  Elec       q    Type
REMARK                         _______ _______ _______ _____ _____    ______ ____
ROOT
ATOM      1  C   LIG    1       25.643 -20.607   5.394  0.00  0.00    +0.114 A 
ATOM      2  C   LIG    1       26.907 -19.964   5.493  0.00  0.00    +0.046 A 
ATOM      3  C   LIG    1       27.513 -20.586   6.571  0.00  0.00    +0.168 A 
ATOM      4  C   LIG    1       28.779 -20.267   7.056  0.00  0.00    +0.049 A 
ATOM      5  C   LIG    1       29.461 -19.246   6.385  0.00  0.00    +0.004 A 
ATOM      6  C   LIG    1       28.890 -18.599   5.285  0.00  0.00    +0.001 A 
ATOM      7  O   LIG    1       26.683 -21.543   7.062  0.00  0.00    -0.354 OA
ATOM      8  C   LIG    1       27.614 -18.950   4.822  0.00  0.00    +0.013 A 
ATOM      9  N   LIG    1       25.516 -21.572   6.319  0.00  0.00    -0.080 NA
ENDROOT
BRANCH   1  10
ATOM     10  C   LIG    1       24.555 -20.388   4.409  0.00  0.00    +0.244 C 
BRANCH  10  11
ATOM     11  S   LIG    1       22.979 -20.040   5.200  0.00  0.00    +0.033 S 
ATOM     12  O   LIG    1       23.110 -20.023   6.636  0.00  0.00    -0.158 OA
ATOM     13  O   LIG    1       22.263 -19.009   4.480  0.00  0.00    -0.158 OA
BRANCH  11  14
ATOM     14  N   LIG    1       22.105 -21.442   4.869  0.00  0.00    -0.208 NA
ATOM     15  H   LIG    1       21.701 -21.809   5.735  0.00  0.00    +0.144 HD
ATOM     16  H   LIG    1       21.399 -21.242   4.157  0.00  0.00    +0.144 HD
ENDBRANCH  11  14
ENDBRANCH  10  11
ENDBRANCH   1  10
TORSDOF 3
ENDMDL
MODEL 2
REMARK VINA RESULT:      -5.3      1.647      2.126
REMARK  Name = *****
REMARK                            x       y       z     vdW  Elec       q    Type
REMARK                         _______ _______ _______ _____ _____    ______ ____
ROOT
ATOM      1  C   LIG    1       25.315 -20.258   4.395  0.00  0.00    +0.114 A 
ATOM      2  C   LIG    1       26.360 -20.469   5.336  0.00  0.00    +0.046 A 
ATOM      3  C   LIG    1       27.251 -19.441   5.078  0.00  0.00    +0.168 A 
ATOM      4  C   LIG    1       28.453 -19.251   5.756  0.00  0.00    +0.049 A 
ATOM      5  C   LIG    1       28.750 -20.177   6.762  0.00  0.00    +0.004 A 
ATOM      6  C   LIG    1       27.873 -21.223   7.062  0.00  0.00    +0.001 A 
ATOM      7  O   LIG    1       26.762 -18.663   4.078  0.00  0.00    -0.354 OA
ATOM      8  C   LIG    1       26.669 -21.381   6.361  0.00  0.00    +0.013 A 
ATOM      9  N   LIG    1       25.541 -19.161   3.655  0.00  0.00    -0.080 NA
ENDROOT
BRANCH   1  10
ATOM     10  C   LIG    1       24.060 -21.024   4.202  0.00  0.00    +0.244 C 
BRANCH  10  11
ATOM     11  S   LIG    1       22.794 -20.571   5.397  0.00  0.00    +0.033 S 
ATOM     12  O   LIG    1       23.099 -21.100   6.703  0.00  0.00    -0.158 OA
ATOM     13  O   LIG    1       22.374 -19.201   5.199  0.00  0.00    -0.158 OA
BRANCH  11  14
ATOM     14  N   LIG    1       21.475 -21.477   4.868  0.00  0.00    -0.208 NA
ATOM     15  H   LIG    1       21.153 -22.088   5.622  0.00  0.00    +0.144 HD
ATOM     16  H   LIG    1       20.744 -20.846   4.531  0.00  0.00    +0.144 HD
ENDBRANCH  11  14
ENDBRANCH  10  11
ENDBRANCH   1  10
TORSDOF 3
ENDMDL
MODEL 3
REMARK VINA RESULT:      -4.5      3.746      4.668
REMARK  Name = *****
REMARK                            x       y       z     vdW  Elec       q    Type
REMARK                         _______ _______ _______ _____ _____    ______ ____
ROOT
ATOM      1  C   LIG    1       24.067 -18.068   3.829  0.00  0.00    +0.114 A 
ATOM      2  C   LIG    1       24.180 -16.653   3.917  0.00  0.00    +0.046 A 
ATOM      3  C   LIG    1       25.464 -16.394   3.468  0.00  0.00    +0.168 A 
ATOM      4  C   LIG    1       26.032 -15.125   3.393  0.00  0.00    +0.049 A 
ATOM      5  C   LIG    1       25.224 -14.059   3.804  0.00  0.00    +0.004 A 
ATOM      6  C   LIG    1       23.918 -14.276   4.254  0.00  0.00    +0.001 A 
ATOM      7  O   LIG    1       26.061 -17.562   3.115  0.00  0.00    -0.354 OA
ATOM      8  C   LIG    1       23.378 -15.568   4.312  0.00  0.00    +0.013 A 
ATOM      9  N   LIG    1       25.185 -18.614   3.325  0.00  0.00    -0.080 NA
ENDROOT
BRANCH   1  10
ATOM     10  C   LIG    1       22.907 -18.936   4.146  0.00  0.00    +0.244 C 
BRANCH  10  11
ATOM     11  S   LIG    1       23.401 -20.466   4.951  0.00  0.00    +0.033 S 
ATOM     12  O   LIG    1       24.571 -20.268   5.771  0.00  0.00    -0.158 OA
ATOM     13  O   LIG    1       22.241 -21.190   5.427  0.00  0.00    -0.158 OA
BRANCH  11  14
ATOM     14  N   LIG    1       23.944 -21.387   3.649  0.00  0.00    -0.208 NA
ATOM     15  H   LIG    1       24.027 -22.367   3.931  0.00  0.00    +0.144 HD
ATOM     16  H   LIG    1       23.313 -21.256   2.855  0.00  0.00    +0.144 HD
ENDBRANCH  11  14
ENDBRANCH  10  11
ENDBRANCH   1  10
TORSDOF 3
ENDMDL
MODEL 4
REMARK VINA RESULT:      -4.3      2.235      2.930
REMARK  Name = *****
REMARK                            x       y       z     vdW  Elec       q    Type
REMARK                         _______ _______ _______ _____ _____    ______ ____
ROOT
ATOM      1  C   LIG    1       24.967 -19.525   3.961  0.00  0.00    +0.114 A 
ATOM      2  C   LIG    1       25.654 -20.182   5.020  0.00  0.00    +0.046 A 
ATOM      3  C   LIG    1       26.886 -19.551   5.058  0.00  0.00    +0.168 A 
ATOM      4  C   LIG    1       27.911 -19.877   5.942  0.00  0.00    +0.049 A 
ATOM      5  C   LIG    1       27.647 -20.915   6.841  0.00  0.00    +0.004 A 
ATOM      6  C   LIG    1       26.413 -21.571   6.844  0.00  0.00    +0.001 A 
ATOM      7  O   LIG    1       26.921 -18.576   4.112  0.00  0.00    -0.354 OA
ATOM      8  C   LIG    1       25.401 -21.213   5.941  0.00  0.00    +0.013 A 
ATOM      9  N   LIG    1       25.716 -18.545   3.431  0.00  0.00    -0.080 NA
ENDROOT
BRANCH   1  10
ATOM     10  C   LIG    1       23.588 -19.746   3.461  0.00  0.00    +0.244 C 
BRANCH  10  11
ATOM     11  S   LIG    1       22.361 -18.864   4.434  0.00  0.00    +0.033 S 
ATOM     12  O   LIG    1       21.101 -18.786   3.736  0.00  0.00    -0.158 OA
ATOM     13  O   LIG    1       22.447 -19.243   5.828  0.00  0.00    -0.158 OA
BRANCH  11  14
ATOM     14  N   LIG    1       22.961 -17.290   4.408  0.00  0.00    -0.208 NA
ATOM     15  H   LIG    1       23.379 -17.095   3.495  0.00  0.00    +0.144 HD
ATOM     16  H   LIG    1       22.210 -16.636   4.647  0.00  0.00    +0.144 HD
ENDBRANCH  11  14
ENDBRANCH  10  11
ENDBRANCH   1  10
TORSDOF 3
ENDMDL
MODEL 5
REMARK VINA RESULT:      -4.2      5.196      6.294
REMARK  Name = *****
REMARK                            x       y       z     vdW  Elec       q    Type
REMARK                         _______ _______ _______ _____ _____    ______ ____
ROOT
ATOM      1  C   LIG    1       24.836 -16.209   3.618  0.00  0.00    +0.114 A 
ATOM      2  C   LIG    1       24.080 -17.379   3.904  0.00  0.00    +0.046 A 
ATOM      3  C   LIG    1       24.935 -18.417   3.577  0.00  0.00    +0.168 A 
ATOM      4  C   LIG    1       24.613 -19.767   3.681  0.00  0.00    +0.049 A 
ATOM      5  C   LIG    1       23.330 -20.063   4.153  0.00  0.00    +0.004 A 
ATOM      6  C   LIG    1       22.438 -19.046   4.505  0.00  0.00    +0.001 A 
ATOM      7  O   LIG    1       26.120 -17.905   3.152  0.00  0.00    -0.354 OA
ATOM      8  C   LIG    1       22.800 -17.696   4.392  0.00  0.00    +0.013 A 
ATOM      9  N   LIG    1       26.070 -16.521   3.190  0.00  0.00    -0.080 NA
ENDROOT
BRANCH   1  10
ATOM     10  C   LIG    1       24.460 -14.785   3.793  0.00  0.00    +0.244 C 
BRANCH  10  11
ATOM     11  S   LIG    1       25.709 -13.666   3.145  0.00  0.00    +0.033 S 
ATOM     12  O   LIG    1       26.624 -13.252   4.180  0.00  0.00    -0.158 OA
ATOM     13  O   LIG    1       26.166 -14.110   1.845  0.00  0.00    -0.158 OA
BRANCH  11  14
ATOM     14  N   LIG    1       24.801 -12.289   2.803  0.00  0.00    -0.208 NA
ATOM     15  H   LIG    1       23.915 -12.325   3.314  0.00  0.00    +0.144 HD
ATOM     16  H   LIG    1       25.351 -11.455   3.024  0.00  0.00    +0.144 HD
ENDBRANCH  11  14
ENDBRANCH  10  11
ENDBRANCH   1  10
TORSDOF 3
ENDMDL
MODEL 6
REMARK VINA RESULT:      -4.2      2.894      5.290
REMARK  Name = *****
REMARK                            x       y       z     vdW  Elec       q    Type
REMARK                         _______ _______ _______ _____ _____    ______ ____
ROOT
ATOM      1  C   LIG    1       25.937 -19.626   4.270  0.00  0.00    +0.114 A 
ATOM      2  C   LIG    1       24.699 -20.201   4.668  0.00  0.00    +0.046 A 
ATOM      3  C   LIG    1       23.756 -19.274   4.258  0.00  0.00    +0.168 A 
ATOM      4  C   LIG    1       22.383 -19.406   4.453  0.00  0.00    +0.049 A 
ATOM      5  C   LIG    1       21.960 -20.567   5.109  0.00  0.00    +0.004 A 
ATOM      6  C   LIG    1       22.878 -21.534   5.530  0.00  0.00    +0.001 A 
ATOM      7  O   LIG    1       24.382 -18.238   3.641  0.00  0.00    -0.354 OA
ATOM      8  C   LIG    1       24.253 -21.369   5.312  0.00  0.00    +0.013 A 
ATOM      9  N   LIG    1       25.749 -18.460   3.632  0.00  0.00    -0.080 NA
ENDROOT
BRANCH   1  10
ATOM     10  C   LIG    1       27.310 -20.169   4.414  0.00  0.00    +0.244 C 
BRANCH  10  11
ATOM     11  S   LIG    1       27.985 -19.889   6.057  0.00  0.00    +0.033 S 
ATOM     12  O   LIG    1       28.915 -18.786   6.056  0.00  0.00    -0.158 OA
ATOM     13  O   LIG    1       26.953 -20.026   7.062  0.00  0.00    -0.158 OA
BRANCH  11  14
ATOM     14  N   LIG    1       28.945 -21.256   6.277  0.00  0.00    -0.208 NA
ATOM     15  H   LIG    1       29.407 -21.498   5.396  0.00  0.00    +0.144 HD
ATOM     16  H   LIG    1       29.608 -21.086   7.037  0.00  0.00    +0.144 HD
ENDBRANCH  11  14
ENDBRANCH  10  11
ENDBRANCH   1  10
TORSDOF 3
ENDMDL
MODEL 7
REMARK VINA RESULT:      -4.1      4.658      5.925
REMARK  Name = *****
REMARK                            x       y       z     vdW  Elec       q    Type
REMARK                         _______ _______ _______ _____ _____    ______ ____
ROOT
ATOM      1  C   LIG    1       24.896 -16.963   3.598  0.00  0.00    +0.114 A 
ATOM      2  C   LIG    1       24.020 -18.013   3.986  0.00  0.00    +0.046 A 
ATOM      3  C   LIG    1       24.740 -19.164   3.716  0.00  0.00    +0.168 A 
ATOM      4  C   LIG    1       24.268 -20.457   3.925  0.00  0.00    +0.049 A 
ATOM      5  C   LIG    1       22.975 -20.568   4.447  0.00  0.00    +0.004 A 
ATOM      6  C   LIG    1       22.217 -19.431   4.745  0.00  0.00    +0.001 A 
ATOM      7  O   LIG    1       25.962 -18.825   3.228  0.00  0.00    -0.354 OA
ATOM      8  C   LIG    1       22.727 -18.144   4.525  0.00  0.00    +0.013 A 
ATOM      9  N   LIG    1       26.072 -17.446   3.166  0.00  0.00    -0.080 NA
ENDROOT
BRANCH   1  10
ATOM     10  C   LIG    1       24.693 -15.496   3.677  0.00  0.00    +0.244 C 
BRANCH  10  11
ATOM     11  S   LIG    1       26.245 -14.589   3.634  0.00  0.00    +0.033 S 
ATOM     12  O   LIG    1       26.084 -13.258   4.166  0.00  0.00    -0.158 OA
ATOM     13  O   LIG    1       27.346 -15.445   4.019  0.00  0.00    -0.158 OA
BRANCH  11  14
ATOM     14  N   LIG    1       26.471 -14.363   1.980  0.00  0.00    -0.208 NA
ATOM     15  H   LIG    1       25.921 -13.559   1.664  0.00  0.00    +0.144 HD
ATOM     16  H   LIG    1       27.470 -14.259   1.785  0.00  0.00    +0.144 HD
ENDBRANCH  11  14
ENDBRANCH  10  11
ENDBRANCH   1  10
TORSDOF 3
ENDMDL
MODEL 8
REMARK VINA RESULT:      -4.0      5.377      6.905
REMARK  Name = *****
REMARK                            x       y       z     vdW  Elec       q    Type
REMARK                         _______ _______ _______ _____ _____    ______ ____
ROOT
ATOM      1  C   LIG    1       25.000 -15.673   3.714  0.00  0.00    +0.114 A 
ATOM      2  C   LIG    1       24.434 -16.973   3.812  0.00  0.00    +0.046 A 
ATOM      3  C   LIG    1       23.148 -16.742   4.271  0.00  0.00    +0.168 A 
ATOM      4  C   LIG    1       22.214 -17.740   4.535  0.00  0.00    +0.049 A 
ATOM      5  C   LIG    1       22.632 -19.056   4.309  0.00  0.00    +0.004 A 
ATOM      6  C   LIG    1       23.918 -19.333   3.836  0.00  0.00    +0.001 A 
ATOM      7  O   LIG    1       22.955 -15.404   4.412  0.00  0.00    -0.354 OA
ATOM      8  C   LIG    1       24.831 -18.301   3.577  0.00  0.00    +0.013 A 
ATOM      9  N   LIG    1       24.108 -14.728   4.049  0.00  0.00    -0.080 NA
ENDROOT
BRANCH   1  10
ATOM     10  C   LIG    1       26.351 -15.272   3.250  0.00  0.00    +0.244 C 
BRANCH  10  11
ATOM     11  S   LIG    1       26.697 -13.538   3.574  0.00  0.00    +0.033 S 
ATOM     12  O   LIG    1       26.059 -12.689   2.597  0.00  0.00    -0.158 OA
ATOM     13  O   LIG    1       26.633 -13.261   4.993  0.00  0.00    -0.158 OA
BRANCH  11  14
ATOM     14  N   LIG    1       28.340 -13.437   3.218  0.00  0.00    -0.208 NA
ATOM     15  H   LIG    1       28.465 -13.164   2.240  0.00  0.00    +0.144 HD
ATOM     16  H   LIG    1       28.790 -12.788   3.869  0.00  0.00    +0.144 HD
ENDBRANCH  11  14
ENDBRANCH  10  11
ENDBRANCH   1  10
TORSDOF 3
ENDMDL
MODEL 9
REMARK VINA RESULT:      -3.8      5.080      6.405
REMARK  Name = *****
REMARK                            x       y       z     vdW  Elec       q    Type
REMARK                         _______ _______ _______ _____ _____    ______ ____
ROOT
ATOM      1  C   LIG    1       25.154 -16.030   3.535  0.00  0.00    +0.114 A 
ATOM      2  C   LIG    1       24.150 -16.974   3.890  0.00  0.00    +0.046 A 
ATOM      3  C   LIG    1       24.725 -18.198   3.592  0.00  0.00    +0.168 A 
ATOM      4  C   LIG    1       24.094 -19.427   3.764  0.00  0.00    +0.049 A 
ATOM      5  C   LIG    1       22.793 -19.390   4.276  0.00  0.00    +0.004 A 
ATOM      6  C   LIG    1       22.180 -18.177   4.600  0.00  0.00    +0.001 A 
ATOM      7  O   LIG    1       25.983 -18.000   3.120  0.00  0.00    -0.354 OA
ATOM      8  C   LIG    1       22.847 -16.957   4.418  0.00  0.00    +0.013 A 
ATOM      9  N   LIG    1       26.264 -16.644   3.096  0.00  0.00    -0.080 NA
ENDROOT
BRANCH   1  10
ATOM     10  C   LIG    1       25.132 -14.552   3.653  0.00  0.00    +0.244 C 
BRANCH  10  11
ATOM     11  S   LIG    1       26.741 -13.880   4.092  0.00  0.00    +0.033 S 
ATOM     12  O   LIG    1       27.261 -13.044   3.038  0.00  0.00    -0.158 OA
ATOM     13  O   LIG    1       26.762 -13.472   5.481  0.00  0.00    -0.158 OA
BRANCH  11  14
ATOM     14  N   LIG    1       27.714 -15.256   4.064  0.00  0.00    -0.208 NA
ATOM     15  H   LIG    1       27.528 -15.791   3.211  0.00  0.00    +0.144 HD
ATOM     16  H   LIG    1       28.695 -14.980   4.152  0.00  0.00    +0.144 HD
ENDBRANCH  11  14
ENDBRANCH  10  11
ENDBRANCH   1  10
TORSDOF 3
ENDMDL
