MODEL 1
REMARK VINA RESULT:       5.2      0.000      0.000
REMARK  Name = *****
REMARK                            x       y       z     vdW  Elec       q    Type
REMARK                         _______ _______ _______ _____ _____    ______ ____
ROOT
ATOM      1  C   LIG    1       24.004 -18.121   3.686  0.00  0.00    +0.064 C 
ATOM      2  C   LIG    1       22.546 -18.337   4.176  0.00  0.00    +0.117 C 
ATOM      3  C   LIG    1       21.635 -17.088   4.057  0.00  0.00    +0.062 C 
ATOM      4  C   LIG    1       22.303 -15.934   4.821  0.00  0.00    +0.151 C 
ATOM      5  C   LIG    1       23.659 -15.617   4.235  0.00  0.00    -0.011 A 
ATOM      6  C   LIG    1       24.152 -14.302   4.307  0.00  0.00    +0.056 A 
ATOM      7  C   LIG    1       25.392 -14.042   3.769  0.00  0.00    +0.167 A 
ATOM      8  O   LIG    1       26.026 -12.839   3.777  0.00  0.00    -0.453 OA
ATOM      9  C   LIG    1       27.253 -13.174   3.097  0.00  0.00    +0.466 C 
ATOM     10  O   LIG    1       27.336 -14.562   2.715  0.00  0.00    -0.453 OA
ATOM     11  C   LIG    1       26.137 -15.022   3.160  0.00  0.00    +0.167 A 
ATOM     12  C   LIG    1       25.689 -16.322   3.065  0.00  0.00    +0.054 A 
ATOM     13  C   LIG    1       24.439 -16.644   3.633  0.00  0.00    -0.030 A 
ENDROOT
BRANCH   1  18
ATOM     14  C   LIG    1       25.415 -20.654   6.248  0.00  0.00    +0.165 A 
ATOM     15  C   LIG    1       26.807 -20.445   6.131  0.00  0.00    +0.203 A 
ATOM     16  C   LIG    1       27.280 -19.457   5.246  0.00  0.00    +0.165 A 
ATOM     17  C   LIG    1       26.358 -18.693   4.525  0.00  0.00    +0.053 A 
ATOM     18  C   LIG    1       24.972 -18.932   4.575  0.00  0.00    -0.032 A 
ATOM     19  C   LIG    1       24.513 -19.918   5.455  0.00  0.00    +0.053 A 
BRANCH  14  21
ATOM     20  C   LIG    1       23.363 -21.572   7.062  0.00  0.00    +0.277 C 
ATOM     21  O   LIG    1       24.787 -21.571   7.061  0.00  0.00    -0.491 OA
ENDBRANCH  14  21
BRANCH  15  22
ATOM     22  O   LIG    1       27.621 -21.313   6.816  0.00  0.00    -0.488 OA
ATOM     23  C   LIG    1       28.966 -20.924   7.053  0.00  0.00    +0.277 C 
ENDBRANCH  15  22
BRANCH  16  24
ATOM     24  O   LIG    1       28.627 -19.221   5.176  0.00  0.00    -0.491 OA
ATOM     25  C   LIG    1       29.101 -17.898   4.959  0.00  0.00    +0.277 C 
ENDBRANCH  16  24
ENDBRANCH   1  18
BRANCH   2  26
ATOM     26  C   LIG    1       21.920 -19.528   3.474  0.00  0.00    +0.309 C 
ATOM     27  O   LIG    1       20.772 -19.895   3.633  0.00  0.00    -0.251 OA
BRANCH  26  28
ATOM     28  O   LIG    1       22.755 -20.165   2.623  0.00  0.00    -0.480 OA
ATOM     29  H   LIG    1       23.203 -20.954   2.983  0.00  0.00    +0.295 HD
ENDBRANCH  26  28
ENDBRANCH   2  26
BRANCH   4  30
ATOM     30  O   LIG    1       22.481 -16.316   6.187  0.00  0.00    -0.387 OA
ATOM     31  H   LIG    1       23.428 -16.234   6.390  0.00  0.00    +0.210 HD
ENDBRANCH   4  30
BRANCH   3  32
ATOM     32  C   LIG    1       21.277 -16.654   2.623  0.00  0.00    +0.163 C 
BRANCH  32  33
ATOM     33  O   LIG    1       20.038 -17.255   2.253  0.00  0.00    -0.395 OA
ATOM     34  H   LIG    1       19.633 -17.590   3.073  0.00  0.00    +0.209 HD
ENDBRANCH  32  33
ENDBRANCH   3  32
TORSDOF 9
ENDMDL
MODEL 2
REMARK VINA RESULT:       6.4      1.527      2.856
REMARK  Name = *****
REMARK                            x       y       z     vdW  Elec       q    Type
REMARK                         _______ _______ _______ _____ _____    ______ ____
ROOT
ATOM      1  C   LIG    1       24.275 -18.158   3.528  0.00  0.00    +0.064 C 
ATOM      2  C   LIG    1       23.235 -19.105   4.186  0.00  0.00    +0.117 C 
ATOM      3  C   LIG    1       21.841 -18.467   4.421  0.00  0.00    +0.062 C 
ATOM      4  C   LIG    1       22.034 -17.197   5.265  0.00  0.00    +0.151 C 
ATOM      5  C   LIG    1       22.919 -16.205   4.547  0.00  0.00    -0.011 A 
ATOM      6  C   LIG    1       22.736 -14.829   4.771  0.00  0.00    +0.056 A 
ATOM      7  C   LIG    1       23.560 -13.948   4.107  0.00  0.00    +0.167 A 
ATOM      8  O   LIG    1       23.537 -12.593   4.228  0.00  0.00    -0.453 OA
ATOM      9  C   LIG    1       24.599 -12.222   3.324  0.00  0.00    +0.466 C 
ATOM     10  O   LIG    1       25.242 -13.352   2.701  0.00  0.00    -0.453 OA
ATOM     11  C   LIG    1       24.528 -14.379   3.233  0.00  0.00    +0.167 A 
ATOM     12  C   LIG    1       24.737 -15.718   2.983  0.00  0.00    +0.054 A 
ATOM     13  C   LIG    1       23.940 -16.660   3.666  0.00  0.00    -0.030 A 
ENDROOT
BRANCH   1  18
ATOM     14  C   LIG    1       27.975 -17.787   4.600  0.00  0.00    +0.165 A 
ATOM     15  C   LIG    1       28.212 -19.013   5.262  0.00  0.00    +0.203 A 
ATOM     16  C   LIG    1       27.181 -19.969   5.326  0.00  0.00    +0.165 A 
ATOM     17  C   LIG    1       25.956 -19.690   4.713  0.00  0.00    +0.053 A 
ATOM     18  C   LIG    1       25.677 -18.449   4.109  0.00  0.00    -0.032 A 
ATOM     19  C   LIG    1       26.707 -17.506   4.054  0.00  0.00    +0.053 A 
BRANCH  14  21
ATOM     20  C   LIG    1       28.337 -15.429   4.460  0.00  0.00    +0.277 C 
ATOM     21  O   LIG    1       28.868 -16.751   4.445  0.00  0.00    -0.491 OA
ENDBRANCH  14  21
BRANCH  15  22
ATOM     22  O   LIG    1       29.417 -19.142   5.906  0.00  0.00    -0.488 OA
ATOM     23  C   LIG    1       29.475 -19.968   7.061  0.00  0.00    +0.277 C 
ENDBRANCH  15  22
BRANCH  16  24
ATOM     24  O   LIG    1       27.432 -21.176   5.921  0.00  0.00    -0.491 OA
ATOM     25  C   LIG    1       26.680 -21.571   7.062  0.00  0.00    +0.277 C 
ENDBRANCH  16  24
ENDBRANCH   1  18
BRANCH   2  26
ATOM     26  C   LIG    1       23.109 -20.392   3.389  0.00  0.00    +0.309 C 
ATOM     27  O   LIG    1       23.761 -20.653   2.397  0.00  0.00    -0.251 OA
BRANCH  26  28
ATOM     28  O   LIG    1       22.198 -21.258   3.887  0.00  0.00    -0.480 OA
ATOM     29  H   LIG    1       22.186 -22.141   3.472  0.00  0.00    +0.295 HD
ENDBRANCH  26  28
ENDBRANCH   2  26
BRANCH   4  30
ATOM     30  O   LIG    1       22.660 -17.545   6.503  0.00  0.00    -0.387 OA
ATOM     31  H   LIG    1       23.560 -17.178   6.486  0.00  0.00    +0.210 HD
ENDBRANCH   4  30
BRANCH   3  32
ATOM     32  C   LIG    1       21.023 -18.158   3.154  0.00  0.00    +0.163 C 
BRANCH  32  33
ATOM     33  O   LIG    1       19.634 -18.198   3.478  0.00  0.00    -0.395 OA
ATOM     34  H   LIG    1       19.574 -18.181   4.450  0.00  0.00    +0.209 HD
ENDBRANCH  32  33
ENDBRANCH   3  32
TORSDOF 9
ENDMDL
MODEL 3
REMARK VINA RESULT:       7.7      0.889      1.051
REMARK  Name = *****
REMARK                            x       y       z     vdW  Elec       q    Type
REMARK                         _______ _______ _______ _____ _____    ______ ____
ROOT
ATOM      1  C   LIG    1       24.305 -17.759   3.706  0.00  0.00    +0.064 C 
ATOM      2  C   LIG    1       22.810 -17.835   4.120  0.00  0.00    +0.117 C 
ATOM      3  C   LIG    1       22.055 -16.482   4.060  0.00  0.00    +0.062 C 
ATOM      4  C   LIG    1       22.814 -15.472   4.935  0.00  0.00    +0.151 C 
ATOM      5  C   LIG    1       24.224 -15.277   4.429  0.00  0.00    -0.011 A 
ATOM      6  C   LIG    1       24.861 -14.037   4.620  0.00  0.00    +0.056 A 
ATOM      7  C   LIG    1       26.147 -13.889   4.152  0.00  0.00    +0.167 A 
ATOM      8  O   LIG    1       26.914 -12.772   4.276  0.00  0.00    -0.453 OA
ATOM      9  C   LIG    1       28.125 -13.200   3.621  0.00  0.00    +0.466 C 
ATOM     10  O   LIG    1       28.067 -14.558   3.139  0.00  0.00    -0.453 OA
ATOM     11  C   LIG    1       26.803 -14.904   3.500  0.00  0.00    +0.167 A 
ATOM     12  C   LIG    1       26.214 -16.132   3.289  0.00  0.00    +0.054 A 
ATOM     13  C   LIG    1       24.909 -16.343   3.781  0.00  0.00    -0.030 A 
ENDROOT
BRANCH   1  18
ATOM     14  C   LIG    1       25.290 -20.595   6.146  0.00  0.00    +0.165 A 
ATOM     15  C   LIG    1       26.701 -20.567   6.075  0.00  0.00    +0.203 A 
ATOM     16  C   LIG    1       27.327 -19.602   5.262  0.00  0.00    +0.165 A 
ATOM     17  C   LIG    1       26.537 -18.684   4.565  0.00  0.00    +0.053 A 
ATOM     18  C   LIG    1       25.130 -18.740   4.568  0.00  0.00    -0.032 A 
ATOM     19  C   LIG    1       24.519 -19.703   5.376  0.00  0.00    +0.053 A 
BRANCH  14  21
ATOM     20  C   LIG    1       23.108 -21.339   6.778  0.00  0.00    +0.277 C 
ATOM     21  O   LIG    1       24.523 -21.465   6.888  0.00  0.00    -0.491 OA
ENDBRANCH  14  21
BRANCH  15  22
ATOM     22  O   LIG    1       27.372 -21.571   6.726  0.00  0.00    -0.488 OA
ATOM     23  C   LIG    1       28.736 -21.359   7.061  0.00  0.00    +0.277 C 
ENDBRANCH  15  22
BRANCH  16  24
ATOM     24  O   LIG    1       28.694 -19.544   5.238  0.00  0.00    -0.491 OA
ATOM     25  C   LIG    1       29.356 -18.332   5.581  0.00  0.00    +0.277 C 
ENDBRANCH  16  24
ENDBRANCH   1  18
BRANCH   2  26
ATOM     26  C   LIG    1       22.086 -18.892   3.306  0.00  0.00    +0.309 C 
ATOM     27  O   LIG    1       22.634 -19.686   2.567  0.00  0.00    -0.251 OA
BRANCH  26  28
ATOM     28  O   LIG    1       20.745 -18.892   3.476  0.00  0.00    -0.480 OA
ATOM     29  H   LIG    1       20.247 -18.276   2.904  0.00  0.00    +0.295 HD
ENDBRANCH  26  28
ENDBRANCH   2  26
BRANCH   4  30
ATOM     30  O   LIG    1       22.882 -15.968   6.275  0.00  0.00    -0.387 OA
ATOM     31  H   LIG    1       22.504 -16.863   6.272  0.00  0.00    +0.210 HD
ENDBRANCH   4  30
BRANCH   3  32
ATOM     32  C   LIG    1       21.818 -15.909   2.651  0.00  0.00    +0.163 C 
BRANCH  32  33
ATOM     33  O   LIG    1       22.269 -14.556   2.619  0.00  0.00    -0.395 OA
ATOM     34  H   LIG    1       22.368 -14.273   3.545  0.00  0.00    +0.209 HD
ENDBRANCH  32  33
ENDBRANCH   3  32
TORSDOF 9
ENDMDL
MODEL 4
REMARK VINA RESULT:       7.7      0.452      2.398
REMARK  Name = *****
REMARK                            x       y       z     vdW  Elec       q    Type
REMARK                         _______ _______ _______ _____ _____    ______ ____
ROOT
ATOM      1  C   LIG    1       24.137 -17.832   3.648  0.00  0.00    +0.064 C 
ATOM      2  C   LIG    1       22.656 -17.937   4.105  0.00  0.00    +0.117 C 
ATOM      3  C   LIG    1       21.872 -16.600   4.059  0.00  0.00    +0.062 C 
ATOM      4  C   LIG    1       22.634 -15.570   4.908  0.00  0.00    +0.151 C 
ATOM      5  C   LIG    1       24.025 -15.349   4.361  0.00  0.00    -0.011 A 
ATOM      6  C   LIG    1       24.641 -14.095   4.528  0.00  0.00    +0.056 A 
ATOM      7  C   LIG    1       25.911 -13.923   4.024  0.00  0.00    +0.167 A 
ATOM      8  O   LIG    1       26.657 -12.790   4.121  0.00  0.00    -0.453 OA
ATOM      9  C   LIG    1       27.858 -13.197   3.434  0.00  0.00    +0.466 C 
ATOM     10  O   LIG    1       27.814 -14.559   2.961  0.00  0.00    -0.453 OA
ATOM     11  C   LIG    1       26.569 -14.928   3.359  0.00  0.00    +0.167 A 
ATOM     12  C   LIG    1       25.999 -16.169   3.170  0.00  0.00    +0.054 A 
ATOM     13  C   LIG    1       24.713 -16.404   3.700  0.00  0.00    -0.030 A 
ENDROOT
BRANCH   1  18
ATOM     14  C   LIG    1       27.175 -19.601   5.264  0.00  0.00    +0.165 A 
ATOM     15  C   LIG    1       26.549 -20.533   6.124  0.00  0.00    +0.203 A 
ATOM     16  C   LIG    1       25.143 -20.606   6.147  0.00  0.00    +0.165 A 
ATOM     17  C   LIG    1       24.405 -19.773   5.303  0.00  0.00    +0.053 A 
ATOM     18  C   LIG    1       25.005 -18.791   4.492  0.00  0.00    -0.032 A 
ATOM     19  C   LIG    1       26.402 -18.724   4.478  0.00  0.00    +0.053 A 
BRANCH  14  21
ATOM     20  C   LIG    1       28.996 -18.056   5.169  0.00  0.00    +0.277 C 
ATOM     21  O   LIG    1       28.529 -19.401   5.117  0.00  0.00    -0.491 OA
ENDBRANCH  14  21
BRANCH  15  22
ATOM     22  O   LIG    1       27.368 -21.234   6.973  0.00  0.00    -0.488 OA
ATOM     23  C   LIG    1       28.744 -20.882   7.020  0.00  0.00    +0.277 C 
ENDBRANCH  15  22
BRANCH  16  24
ATOM     24  O   LIG    1       24.543 -21.547   6.940  0.00  0.00    -0.491 OA
ATOM     25  C   LIG    1       23.126 -21.572   7.057  0.00  0.00    +0.277 C 
ENDBRANCH  16  24
ENDBRANCH   1  18
BRANCH   2  26
ATOM     26  C   LIG    1       21.931 -19.013   3.316  0.00  0.00    +0.309 C 
ATOM     27  O   LIG    1       20.745 -19.256   3.415  0.00  0.00    -0.251 OA
BRANCH  26  28
ATOM     28  O   LIG    1       22.725 -19.695   2.460  0.00  0.00    -0.480 OA
ATOM     29  H   LIG    1       23.532 -19.229   2.171  0.00  0.00    +0.295 HD
ENDBRANCH  26  28
ENDBRANCH   2  26
BRANCH   4  30
ATOM     30  O   LIG    1       22.749 -16.057   6.247  0.00  0.00    -0.387 OA
ATOM     31  H   LIG    1       23.420 -16.760   6.243  0.00  0.00    +0.210 HD
ENDBRANCH   4  30
BRANCH   3  32
ATOM     32  C   LIG    1       21.584 -16.040   2.654  0.00  0.00    +0.163 C 
BRANCH  32  33
ATOM     33  O   LIG    1       20.571 -16.831   2.038  0.00  0.00    -0.395 OA
ATOM     34  H   LIG    1       19.803 -16.819   2.638  0.00  0.00    +0.209 HD
ENDBRANCH  32  33
ENDBRANCH   3  32
TORSDOF 9
ENDMDL
