MODEL 1
REMARK VINA RESULT:      -8.2      0.000      0.000
REMARK  Name = *****
REMARK                            x       y       z     vdW  Elec       q    Type
REMARK                         _______ _______ _______ _____ _____    ______ ____
ROOT
ATOM      1  C   LIG    1       27.496 -20.548   7.560  0.00  0.00    +0.121 A 
ATOM      2  C   LIG    1       26.521 -20.704   8.543  0.00  0.00    +0.046 A 
ATOM      3  C   LIG    1       25.163 -20.735   8.203  0.00  0.00    +0.007 A 
ATOM      4  C   LIG    1       24.765 -20.632   6.859  0.00  0.00    -0.045 A 
ATOM      5  C   LIG    1       25.749 -20.478   5.883  0.00  0.00    +0.007 A 
ATOM      6  C   LIG    1       27.103 -20.441   6.223  0.00  0.00    +0.046 A 
ENDROOT
BRANCH   1   7
ATOM      7  O   LIG    1       28.795 -20.555   7.983  0.00  0.00    -0.489 OA
BRANCH   7   8
ATOM      8  C   LIG    1       29.509 -19.318   7.871  0.00  0.00    +0.261 C 
BRANCH   8   9
ATOM      9  C   LIG    1       31.003 -19.576   7.599  0.00  0.00    +0.166 C 
BRANCH   9  10
ATOM     10  O   LIG    1       31.399 -20.857   8.121  0.00  0.00    -0.387 OA
ATOM     11  H   LIG    1       30.636 -21.230   8.594  0.00  0.00    +0.210 HD
ENDBRANCH   9  10
BRANCH   9  12
ATOM     12  C   LIG    1       31.868 -18.482   8.241  0.00  0.00    +0.115 C 
BRANCH  12  13
ATOM     13  N   LIG    1       31.990 -18.663   9.698  0.00  0.00    -0.311 NA
ATOM     14  H   LIG    1       31.228 -19.282   9.989  0.00  0.00    +0.122 HD
BRANCH  13  16
ATOM     15  C   LIG    1       32.384 -16.196   9.582  0.00  0.00    +0.024 C 
ATOM     16  C   LIG    1       31.918 -17.387  10.424  0.00  0.00    +0.048 C 
ATOM     17  C   LIG    1       30.477 -17.146  10.886  0.00  0.00    +0.024 C 
ENDBRANCH  13  16
ENDBRANCH  12  13
ENDBRANCH   9  12
ENDBRANCH   8   9
ENDBRANCH   7   8
ENDBRANCH   1   7
BRANCH   4  18
ATOM     18  C   LIG    1       23.309 -20.692   6.468  0.00  0.00    +0.063 C 
BRANCH  18  19
ATOM     19  C   LIG    1       22.910 -22.040   5.885  0.00  0.00    +0.164 C 
BRANCH  19  20
ATOM     20  O   LIG    1       22.717 -22.980   6.944  0.00  0.00    -0.379 OA
BRANCH  20  21
ATOM     21  C   LIG    1       23.315 -24.252   6.671  0.00  0.00    +0.163 C 
BRANCH  21  22
ATOM     22  C   LIG    1       24.678 -24.078   6.074  0.00  0.00    +0.015 C 
ATOM     23  C   LIG    1       25.910 -24.215   6.937  0.00  0.00    +0.006 C 
ATOM     24  C   LIG    1       25.602 -25.254   5.897  0.00  0.00    +0.006 C 
ENDBRANCH  21  22
ENDBRANCH  20  21
ENDBRANCH  19  20
ENDBRANCH  18  19
ENDBRANCH   4  18
TORSDOF 12
ENDMDL
MODEL 2
REMARK VINA RESULT:      -7.8      2.619      8.106
REMARK  Name = *****
REMARK                            x       y       z     vdW  Elec       q    Type
REMARK                         _______ _______ _______ _____ _____    ______ ____
ROOT
ATOM      1  C   LIG    1       25.560 -20.654   7.284  0.00  0.00    +0.121 A 
ATOM      2  C   LIG    1       26.539 -20.603   8.274  0.00  0.00    +0.046 A 
ATOM      3  C   LIG    1       27.876 -20.344   7.943  0.00  0.00    +0.007 A 
ATOM      4  C   LIG    1       28.243 -20.108   6.607  0.00  0.00    -0.045 A 
ATOM      5  C   LIG    1       27.255 -20.159   5.625  0.00  0.00    +0.007 A 
ATOM      6  C   LIG    1       25.924 -20.424   5.955  0.00  0.00    +0.046 A 
ENDROOT
BRANCH   1   7
ATOM      7  O   LIG    1       24.282 -20.887   7.704  0.00  0.00    -0.489 OA
BRANCH   7   8
ATOM      8  C   LIG    1       23.245 -20.676   6.740  0.00  0.00    +0.261 C 
BRANCH   8   9
ATOM      9  C   LIG    1       22.971 -21.966   5.943  0.00  0.00    +0.166 C 
BRANCH   9  10
ATOM     10  O   LIG    1       21.797 -21.816   5.125  0.00  0.00    -0.387 OA
ATOM     11  H   LIG    1       21.163 -22.502   5.394  0.00  0.00    +0.210 HD
ENDBRANCH   9  10
BRANCH   9  12
ATOM     12  C   LIG    1       22.775 -23.158   6.891  0.00  0.00    +0.115 C 
BRANCH  12  13
ATOM     13  N   LIG    1       23.358 -24.396   6.344  0.00  0.00    -0.311 NA
ATOM     14  H   LIG    1       23.317 -25.101   7.084  0.00  0.00    +0.122 HD
BRANCH  13  16
ATOM     15  C   LIG    1       25.756 -24.267   7.043  0.00  0.00    +0.024 C 
ATOM     16  C   LIG    1       24.745 -24.205   5.894  0.00  0.00    +0.048 C 
ATOM     17  C   LIG    1       25.093 -25.276   4.856  0.00  0.00    +0.024 C 
ENDBRANCH  13  16
ENDBRANCH  12  13
ENDBRANCH   9  12
ENDBRANCH   8   9
ENDBRANCH   7   8
ENDBRANCH   1   7
BRANCH   4  18
ATOM     18  C   LIG    1       29.672 -19.799   6.233  0.00  0.00    +0.063 C 
BRANCH  18  19
ATOM     19  C   LIG    1       30.293 -18.723   7.114  0.00  0.00    +0.164 C 
BRANCH  19  20
ATOM     20  O   LIG    1       31.514 -19.211   7.674  0.00  0.00    -0.379 OA
BRANCH  20  21
ATOM     21  C   LIG    1       31.692 -18.820   9.040  0.00  0.00    +0.163 C 
BRANCH  21  22
ATOM     22  C   LIG    1       30.571 -17.933   9.486  0.00  0.00    +0.015 C 
ATOM     23  C   LIG    1       30.374 -17.637  10.954  0.00  0.00    +0.006 C 
ATOM     24  C   LIG    1       30.843 -16.553  10.025  0.00  0.00    +0.006 C 
ENDBRANCH  21  22
ENDBRANCH  20  21
ENDBRANCH  19  20
ENDBRANCH  18  19
ENDBRANCH   4  18
TORSDOF 12
ENDMDL
MODEL 3
REMARK VINA RESULT:      -7.6      4.804      8.548
REMARK  Name = *****
REMARK                            x       y       z     vdW  Elec       q    Type
REMARK                         _______ _______ _______ _____ _____    ______ ____
ROOT
ATOM      1  C   LIG    1       24.390 -25.474   6.460  0.00  0.00    +0.121 A 
ATOM      2  C   LIG    1       23.354 -24.544   6.505  0.00  0.00    +0.046 A 
ATOM      3  C   LIG    1       23.611 -23.204   6.821  0.00  0.00    +0.007 A 
ATOM      4  C   LIG    1       24.925 -22.774   7.073  0.00  0.00    -0.045 A 
ATOM      5  C   LIG    1       25.955 -23.712   7.022  0.00  0.00    +0.007 A 
ATOM      6  C   LIG    1       25.697 -25.050   6.715  0.00  0.00    +0.046 A 
ENDROOT
BRANCH   1   7
ATOM      7  O   LIG    1       24.047 -26.752   6.119  0.00  0.00    -0.489 OA
BRANCH   7   8
ATOM      8  C   LIG    1       25.072 -27.547   5.512  0.00  0.00    +0.261 C 
BRANCH   8   9
ATOM      9  C   LIG    1       24.668 -29.033   5.495  0.00  0.00    +0.166 C 
BRANCH   9  10
ATOM     10  O   LIG    1       23.247 -29.170   5.315  0.00  0.00    -0.387 OA
ATOM     11  H   LIG    1       22.852 -29.309   6.192  0.00  0.00    +0.210 HD
ENDBRANCH   9  10
BRANCH   9  12
ATOM     12  C   LIG    1       25.077 -29.723   6.805  0.00  0.00    +0.115 C 
BRANCH  12  13
ATOM     13  N   LIG    1       25.737 -28.788   7.734  0.00  0.00    -0.311 NA
ATOM     14  H   LIG    1       26.655 -28.568   7.338  0.00  0.00    +0.122 HD
BRANCH  13  16
ATOM     15  C   LIG    1       26.559 -30.729   9.079  0.00  0.00    +0.024 C 
ATOM     16  C   LIG    1       25.882 -29.355   9.082  0.00  0.00    +0.048 C 
ATOM     17  C   LIG    1       26.696 -28.392   9.952  0.00  0.00    +0.024 C 
ENDBRANCH  13  16
ENDBRANCH  12  13
ENDBRANCH   9  12
ENDBRANCH   8   9
ENDBRANCH   7   8
ENDBRANCH   1   7
BRANCH   4  18
ATOM     18  C   LIG    1       25.227 -21.329   7.386  0.00  0.00    +0.063 C 
BRANCH  18  19
ATOM     19  C   LIG    1       26.135 -20.678   6.351  0.00  0.00    +0.164 C 
BRANCH  19  20
ATOM     20  O   LIG    1       25.619 -20.925   5.041  0.00  0.00    -0.379 OA
BRANCH  20  21
ATOM     21  C   LIG    1       25.018 -19.764   4.456  0.00  0.00    +0.163 C 
BRANCH  21  22
ATOM     22  C   LIG    1       23.544 -19.964   4.279  0.00  0.00    +0.015 C 
ATOM     23  C   LIG    1       22.600 -19.735   5.436  0.00  0.00    +0.006 C 
ATOM     24  C   LIG    1       22.598 -18.792   4.267  0.00  0.00    +0.006 C 
ENDBRANCH  21  22
ENDBRANCH  20  21
ENDBRANCH  19  20
ENDBRANCH  18  19
ENDBRANCH   4  18
TORSDOF 12
ENDMDL
MODEL 4
REMARK VINA RESULT:      -7.5      2.736      8.156
REMARK  Name = *****
REMARK                            x       y       z     vdW  Elec       q    Type
REMARK                         _______ _______ _______ _____ _____    ______ ____
ROOT
ATOM      1  C   LIG    1       26.204 -20.672   7.105  0.00  0.00    +0.121 A 
ATOM      2  C   LIG    1       27.031 -20.468   8.208  0.00  0.00    +0.046 A 
ATOM      3  C   LIG    1       28.336 -19.987   8.042  0.00  0.00    +0.007 A 
ATOM      4  C   LIG    1       28.821 -19.680   6.760  0.00  0.00    -0.045 A 
ATOM      5  C   LIG    1       27.984 -19.885   5.663  0.00  0.00    +0.007 A 
ATOM      6  C   LIG    1       26.686 -20.372   5.829  0.00  0.00    +0.046 A 
ENDROOT
BRANCH   1   7
ATOM      7  O   LIG    1       24.940 -21.120   7.367  0.00  0.00    -0.489 OA
BRANCH   7   8
ATOM      8  C   LIG    1       24.686 -22.504   7.101  0.00  0.00    +0.261 C 
BRANCH   8   9
ATOM      9  C   LIG    1       23.175 -22.759   6.947  0.00  0.00    +0.166 C 
BRANCH   9  10
ATOM     10  O   LIG    1       22.933 -24.104   6.496  0.00  0.00    -0.387 OA
ATOM     11  H   LIG    1       23.795 -24.543   6.405  0.00  0.00    +0.210 HD
ENDBRANCH   9  10
BRANCH   9  12
ATOM     12  C   LIG    1       22.557 -21.774   5.943  0.00  0.00    +0.115 C 
BRANCH  12  13
ATOM     13  N   LIG    1       23.446 -21.532   4.794  0.00  0.00    -0.311 NA
ATOM     14  H   LIG    1       24.406 -21.526   5.151  0.00  0.00    +0.122 HD
BRANCH  13  16
ATOM     15  C   LIG    1       22.486 -19.236   5.041  0.00  0.00    +0.024 C 
ATOM     16  C   LIG    1       23.145 -20.263   4.116  0.00  0.00    +0.048 C 
ATOM     17  C   LIG    1       24.438 -19.673   3.545  0.00  0.00    +0.024 C 
ENDBRANCH  13  16
ENDBRANCH  12  13
ENDBRANCH   9  12
ENDBRANCH   8   9
ENDBRANCH   7   8
ENDBRANCH   1   7
BRANCH   4  18
ATOM     18  C   LIG    1       30.214 -19.133   6.562  0.00  0.00    +0.063 C 
BRANCH  18  19
ATOM     19  C   LIG    1       31.143 -19.451   7.725  0.00  0.00    +0.164 C 
BRANCH  19  20
ATOM     20  O   LIG    1       32.173 -18.464   7.798  0.00  0.00    -0.379 OA
BRANCH  20  21
ATOM     21  C   LIG    1       31.882 -17.429   8.743  0.00  0.00    +0.163 C 
BRANCH  21  22
ATOM     22  C   LIG    1       31.346 -18.010  10.015  0.00  0.00    +0.015 C 
ATOM     23  C   LIG    1       31.491 -17.258  11.317  0.00  0.00    +0.006 C 
ATOM     24  C   LIG    1       30.135 -17.418  10.688  0.00  0.00    +0.006 C 
ENDBRANCH  21  22
ENDBRANCH  20  21
ENDBRANCH  19  20
ENDBRANCH  18  19
ENDBRANCH   4  18
TORSDOF 12
ENDMDL
MODEL 5
REMARK VINA RESULT:      -7.5      1.564      2.795
REMARK  Name = *****
REMARK                            x       y       z     vdW  Elec       q    Type
REMARK                         _______ _______ _______ _____ _____    ______ ____
ROOT
ATOM      1  C   LIG    1       27.512 -21.507   7.864  0.00  0.00    +0.121 A 
ATOM      2  C   LIG    1       26.666 -20.512   8.348  0.00  0.00    +0.046 A 
ATOM      3  C   LIG    1       25.281 -20.595   8.154  0.00  0.00    +0.007 A 
ATOM      4  C   LIG    1       24.723 -21.699   7.487  0.00  0.00    -0.045 A 
ATOM      5  C   LIG    1       25.578 -22.691   7.008  0.00  0.00    +0.007 A 
ATOM      6  C   LIG    1       26.959 -22.604   7.196  0.00  0.00    +0.046 A 
ENDROOT
BRANCH   1   7
ATOM      7  O   LIG    1       28.844 -21.353   8.123  0.00  0.00    -0.489 OA
BRANCH   7   8
ATOM      8  C   LIG    1       29.386 -20.044   7.918  0.00  0.00    +0.261 C 
BRANCH   8   9
ATOM      9  C   LIG    1       30.925 -20.091   7.890  0.00  0.00    +0.166 C 
BRANCH   9  10
ATOM     10  O   LIG    1       31.398 -21.403   8.243  0.00  0.00    -0.387 OA
ATOM     11  H   LIG    1       32.331 -21.319   8.505  0.00  0.00    +0.210 HD
ENDBRANCH   9  10
BRANCH   9  12
ATOM     12  C   LIG    1       31.518 -19.064   8.867  0.00  0.00    +0.115 C 
BRANCH  12  13
ATOM     13  N   LIG    1       31.393 -17.687   8.357  0.00  0.00    -0.311 NA
ATOM     14  H   LIG    1       32.215 -17.505   7.775  0.00  0.00    +0.122 HD
BRANCH  13  16
ATOM     15  C   LIG    1       30.475 -17.193  10.630  0.00  0.00    +0.024 C 
ATOM     16  C   LIG    1       31.305 -16.699   9.442  0.00  0.00    +0.048 C 
ATOM     17  C   LIG    1       32.716 -16.345   9.922  0.00  0.00    +0.024 C 
ENDBRANCH  13  16
ENDBRANCH  12  13
ENDBRANCH   9  12
ENDBRANCH   8   9
ENDBRANCH   7   8
ENDBRANCH   1   7
BRANCH   4  18
ATOM     18  C   LIG    1       23.231 -21.821   7.292  0.00  0.00    +0.063 C 
BRANCH  18  19
ATOM     19  C   LIG    1       22.774 -21.344   5.920  0.00  0.00    +0.164 C 
BRANCH  19  20
ATOM     20  O   LIG    1       22.926 -19.925   5.835  0.00  0.00    -0.379 OA
BRANCH  20  21
ATOM     21  C   LIG    1       22.929 -19.449   4.484  0.00  0.00    +0.163 C 
BRANCH  21  22
ATOM     22  C   LIG    1       24.186 -19.862   3.782  0.00  0.00    +0.015 C 
ATOM     23  C   LIG    1       25.231 -18.831   3.425  0.00  0.00    +0.006 C 
ATOM     24  C   LIG    1       25.513 -19.848   4.495  0.00  0.00    +0.006 C 
ENDBRANCH  21  22
ENDBRANCH  20  21
ENDBRANCH  19  20
ENDBRANCH  18  19
ENDBRANCH   4  18
TORSDOF 12
ENDMDL
MODEL 6
REMARK VINA RESULT:      -7.2      4.490      9.518
REMARK  Name = *****
REMARK                            x       y       z     vdW  Elec       q    Type
REMARK                         _______ _______ _______ _____ _____    ______ ____
ROOT
ATOM      1  C   LIG    1       24.105 -24.539   6.548  0.00  0.00    +0.121 A 
ATOM      2  C   LIG    1       23.214 -23.490   6.765  0.00  0.00    +0.046 A 
ATOM      3  C   LIG    1       23.658 -22.277   7.308  0.00  0.00    +0.007 A 
ATOM      4  C   LIG    1       25.016 -22.094   7.618  0.00  0.00    -0.045 A 
ATOM      5  C   LIG    1       25.900 -23.149   7.394  0.00  0.00    +0.007 A 
ATOM      6  C   LIG    1       25.455 -24.360   6.860  0.00  0.00    +0.046 A 
ENDROOT
BRANCH   1   7
ATOM      7  O   LIG    1       23.586 -25.674   5.993  0.00  0.00    -0.489 OA
BRANCH   7   8
ATOM      8  C   LIG    1       24.528 -26.609   5.456  0.00  0.00    +0.261 C 
BRANCH   8   9
ATOM      9  C   LIG    1       24.504 -27.925   6.257  0.00  0.00    +0.166 C 
BRANCH   9  10
ATOM     10  O   LIG    1       25.670 -28.030   7.093  0.00  0.00    -0.387 OA
ATOM     11  H   LIG    1       25.468 -28.665   7.801  0.00  0.00    +0.210 HD
ENDBRANCH   9  10
BRANCH   9  12
ATOM     12  C   LIG    1       24.452 -29.135   5.312  0.00  0.00    +0.115 C 
BRANCH  12  13
ATOM     13  N   LIG    1       23.500 -30.157   5.782  0.00  0.00    -0.311 NA
ATOM     14  H   LIG    1       22.979 -29.748   6.563  0.00  0.00    +0.122 HD
BRANCH  13  16
ATOM     15  C   LIG    1       23.424 -32.657   5.785  0.00  0.00    +0.024 C 
ATOM     16  C   LIG    1       24.175 -31.391   6.208  0.00  0.00    +0.048 C 
ATOM     17  C   LIG    1       25.590 -31.423   5.623  0.00  0.00    +0.024 C 
ENDBRANCH  13  16
ENDBRANCH  12  13
ENDBRANCH   9  12
ENDBRANCH   8   9
ENDBRANCH   7   8
ENDBRANCH   1   7
BRANCH   4  18
ATOM     18  C   LIG    1       25.520 -20.785   8.177  0.00  0.00    +0.063 C 
BRANCH  18  19
ATOM     19  C   LIG    1       26.848 -20.357   7.568  0.00  0.00    +0.164 C 
BRANCH  19  20
ATOM     20  O   LIG    1       27.919 -20.775   8.416  0.00  0.00    -0.379 OA
BRANCH  20  21
ATOM     21  C   LIG    1       29.182 -20.803   7.741  0.00  0.00    +0.163 C 
BRANCH  21  22
ATOM     22  C   LIG    1       29.733 -19.419   7.595  0.00  0.00    +0.015 C 
ATOM     23  C   LIG    1       31.200 -19.211   7.299  0.00  0.00    +0.006 C 
ATOM     24  C   LIG    1       30.170 -18.896   6.251  0.00  0.00    +0.006 C 
ENDBRANCH  21  22
ENDBRANCH  20  21
ENDBRANCH  19  20
ENDBRANCH  18  19
ENDBRANCH   4  18
TORSDOF 12
ENDMDL
MODEL 7
REMARK VINA RESULT:      -7.2      4.113      8.746
REMARK  Name = *****
REMARK                            x       y       z     vdW  Elec       q    Type
REMARK                         _______ _______ _______ _____ _____    ______ ____
ROOT
ATOM      1  C   LIG    1       24.314 -25.342   6.376  0.00  0.00    +0.121 A 
ATOM      2  C   LIG    1       23.310 -24.392   6.545  0.00  0.00    +0.046 A 
ATOM      3  C   LIG    1       23.627 -23.068   6.876  0.00  0.00    +0.007 A 
ATOM      4  C   LIG    1       24.969 -22.675   7.017  0.00  0.00    -0.045 A 
ATOM      5  C   LIG    1       25.967 -23.633   6.843  0.00  0.00    +0.007 A 
ATOM      6  C   LIG    1       25.649 -24.954   6.521  0.00  0.00    +0.046 A 
ENDROOT
BRANCH   1   7
ATOM      7  O   LIG    1       23.910 -26.600   6.030  0.00  0.00    -0.489 OA
BRANCH   7   8
ATOM      8  C   LIG    1       24.925 -27.485   5.543  0.00  0.00    +0.261 C 
BRANCH   8   9
ATOM      9  C   LIG    1       24.537 -28.953   5.801  0.00  0.00    +0.166 C 
BRANCH   9  10
ATOM     10  O   LIG    1       23.217 -29.223   5.296  0.00  0.00    -0.387 OA
ATOM     11  H   LIG    1       22.790 -29.846   5.909  0.00  0.00    +0.210 HD
ENDBRANCH   9  10
BRANCH   9  12
ATOM     12  C   LIG    1       24.575 -29.269   7.303  0.00  0.00    +0.115 C 
BRANCH  12  13
ATOM     13  N   LIG    1       25.906 -29.732   7.733  0.00  0.00    -0.311 NA
ATOM     14  H   LIG    1       26.037 -30.671   7.348  0.00  0.00    +0.122 HD
BRANCH  13  16
ATOM     15  C   LIG    1       26.628 -28.456   9.759  0.00  0.00    +0.024 C 
ATOM     16  C   LIG    1       26.041 -29.754   9.196  0.00  0.00    +0.048 C 
ATOM     17  C   LIG    1       24.669 -30.004   9.829  0.00  0.00    +0.024 C 
ENDBRANCH  13  16
ENDBRANCH  12  13
ENDBRANCH   9  12
ENDBRANCH   8   9
ENDBRANCH   7   8
ENDBRANCH   1   7
BRANCH   4  18
ATOM     18  C   LIG    1       25.334 -21.247   7.344  0.00  0.00    +0.063 C 
BRANCH  18  19
ATOM     19  C   LIG    1       25.996 -21.106   8.708  0.00  0.00    +0.164 C 
BRANCH  19  20
ATOM     20  O   LIG    1       27.123 -20.234   8.604  0.00  0.00    -0.379 OA
BRANCH  20  21
ATOM     21  C   LIG    1       27.694 -20.222   7.291  0.00  0.00    +0.163 C 
BRANCH  21  22
ATOM     22  C   LIG    1       29.187 -20.118   7.364  0.00  0.00    +0.015 C 
ATOM     23  C   LIG    1       29.928 -19.159   6.462  0.00  0.00    +0.006 C 
ATOM     24  C   LIG    1       29.851 -18.894   7.939  0.00  0.00    +0.006 C 
ENDBRANCH  21  22
ENDBRANCH  20  21
ENDBRANCH  19  20
ENDBRANCH  18  19
ENDBRANCH   4  18
TORSDOF 12
ENDMDL
MODEL 8
REMARK VINA RESULT:      -7.2      1.421      2.802
REMARK  Name = *****
REMARK                            x       y       z     vdW  Elec       q    Type
REMARK                         _______ _______ _______ _____ _____    ______ ____
ROOT
ATOM      1  C   LIG    1       27.868 -20.074   6.521  0.00  0.00    +0.121 A 
ATOM      2  C   LIG    1       27.589 -21.075   7.450  0.00  0.00    +0.046 A 
ATOM      3  C   LIG    1       26.497 -21.933   7.269  0.00  0.00    +0.007 A 
ATOM      4  C   LIG    1       25.680 -21.811   6.132  0.00  0.00    -0.045 A 
ATOM      5  C   LIG    1       25.969 -20.808   5.207  0.00  0.00    +0.007 A 
ATOM      6  C   LIG    1       27.054 -19.948   5.392  0.00  0.00    +0.046 A 
ENDROOT
BRANCH   1   7
ATOM      7  O   LIG    1       28.967 -19.302   6.769  0.00  0.00    -0.489 OA
BRANCH   7   8
ATOM      8  C   LIG    1       29.678 -19.576   7.981  0.00  0.00    +0.261 C 
BRANCH   8   9
ATOM      9  C   LIG    1       31.192 -19.681   7.712  0.00  0.00    +0.166 C 
BRANCH   9  10
ATOM     10  O   LIG    1       31.719 -20.904   8.256  0.00  0.00    -0.387 OA
ATOM     11  H   LIG    1       31.455 -21.627   7.662  0.00  0.00    +0.210 HD
ENDBRANCH   9  10
BRANCH   9  12
ATOM     12  C   LIG    1       31.937 -18.491   8.335  0.00  0.00    +0.115 C 
BRANCH  12  13
ATOM     13  N   LIG    1       32.005 -18.595   9.804  0.00  0.00    -0.311 NA
ATOM     14  H   LIG    1       31.217 -19.176  10.102  0.00  0.00    +0.122 HD
BRANCH  13  16
ATOM     15  C   LIG    1       32.376 -16.137   9.531  0.00  0.00    +0.024 C 
ATOM     16  C   LIG    1       31.947 -17.279  10.457  0.00  0.00    +0.048 C 
ATOM     17  C   LIG    1       30.521 -17.021  10.952  0.00  0.00    +0.024 C 
ENDBRANCH  13  16
ENDBRANCH  12  13
ENDBRANCH   9  12
ENDBRANCH   8   9
ENDBRANCH   7   8
ENDBRANCH   1   7
BRANCH   4  18
ATOM     18  C   LIG    1       24.516 -22.743   5.903  0.00  0.00    +0.063 C 
BRANCH  18  19
ATOM     19  C   LIG    1       23.377 -22.517   6.888  0.00  0.00    +0.164 C 
BRANCH  19  20
ATOM     20  O   LIG    1       22.928 -21.163   6.795  0.00  0.00    -0.379 OA
BRANCH  20  21
ATOM     21  C   LIG    1       22.442 -20.829   5.489  0.00  0.00    +0.163 C 
BRANCH  21  22
ATOM     22  C   LIG    1       22.622 -19.368   5.217  0.00  0.00    +0.015 C 
ATOM     23  C   LIG    1       23.253 -18.907   3.924  0.00  0.00    +0.006 C 
ATOM     24  C   LIG    1       21.792 -18.666   4.174  0.00  0.00    +0.006 C 
ENDBRANCH  21  22
ENDBRANCH  20  21
ENDBRANCH  19  20
ENDBRANCH  18  19
ENDBRANCH   4  18
TORSDOF 12
ENDMDL
MODEL 9
REMARK VINA RESULT:      -7.2      4.995      9.210
REMARK  Name = *****
REMARK                            x       y       z     vdW  Elec       q    Type
REMARK                         _______ _______ _______ _____ _____    ______ ____
ROOT
ATOM      1  C   LIG    1       24.414 -25.518   6.423  0.00  0.00    +0.121 A 
ATOM      2  C   LIG    1       23.386 -24.580   6.499  0.00  0.00    +0.046 A 
ATOM      3  C   LIG    1       23.662 -23.242   6.808  0.00  0.00    +0.007 A 
ATOM      4  C   LIG    1       24.986 -22.822   7.022  0.00  0.00    -0.045 A 
ATOM      5  C   LIG    1       26.007 -23.768   6.940  0.00  0.00    +0.007 A 
ATOM      6  C   LIG    1       25.731 -25.103   6.639  0.00  0.00    +0.046 A 
ENDROOT
BRANCH   1   7
ATOM      7  O   LIG    1       24.052 -26.792   6.091  0.00  0.00    -0.489 OA
BRANCH   7   8
ATOM      8  C   LIG    1       25.074 -27.791   6.185  0.00  0.00    +0.261 C 
BRANCH   8   9
ATOM      9  C   LIG    1       24.674 -29.054   5.399  0.00  0.00    +0.166 C 
BRANCH   9  10
ATOM     10  O   LIG    1       23.243 -29.169   5.320  0.00  0.00    -0.387 OA
ATOM     11  H   LIG    1       22.868 -28.720   6.097  0.00  0.00    +0.210 HD
ENDBRANCH   9  10
BRANCH   9  12
ATOM     12  C   LIG    1       25.243 -30.314   6.071  0.00  0.00    +0.115 C 
BRANCH  12  13
ATOM     13  N   LIG    1       25.566 -30.081   7.489  0.00  0.00    -0.311 NA
ATOM     14  H   LIG    1       26.574 -30.225   7.596  0.00  0.00    +0.122 HD
BRANCH  13  16
ATOM     15  C   LIG    1       23.992 -30.227   9.427  0.00  0.00    +0.024 C 
ATOM     16  C   LIG    1       24.823 -30.979   8.383  0.00  0.00    +0.048 C 
ATOM     17  C   LIG    1       23.899 -31.874   7.551  0.00  0.00    +0.024 C 
ENDBRANCH  13  16
ENDBRANCH  12  13
ENDBRANCH   9  12
ENDBRANCH   8   9
ENDBRANCH   7   8
ENDBRANCH   1   7
BRANCH   4  18
ATOM     18  C   LIG    1       25.308 -21.379   7.327  0.00  0.00    +0.063 C 
BRANCH  18  19
ATOM     19  C   LIG    1       26.108 -20.707   6.220  0.00  0.00    +0.164 C 
BRANCH  19  20
ATOM     20  O   LIG    1       25.505 -20.989   4.956  0.00  0.00    -0.379 OA
BRANCH  20  21
ATOM     21  C   LIG    1       24.948 -19.825   4.336  0.00  0.00    +0.163 C 
BRANCH  21  22
ATOM     22  C   LIG    1       23.459 -19.950   4.219  0.00  0.00    +0.015 C 
ATOM     23  C   LIG    1       22.581 -19.744   5.431  0.00  0.00    +0.006 C 
ATOM     24  C   LIG    1       22.570 -18.738   4.315  0.00  0.00    +0.006 C 
ENDBRANCH  21  22
ENDBRANCH  20  21
ENDBRANCH  19  20
ENDBRANCH  18  19
ENDBRANCH   4  18
TORSDOF 12
ENDMDL
