MODEL 1
REMARK VINA RESULT:      -6.3      0.000      0.000
REMARK  Name = *****
REMARK                            x       y       z     vdW  Elec       q    Type
REMARK                         _______ _______ _______ _____ _____    ______ ____
ROOT
ATOM      1  C   LIG    1       26.940 -28.431  13.329  0.00  0.00    +0.115 C 
ATOM      2  C   LIG    1       25.597 -28.550  12.875  0.00  0.00    +0.075 C 
ATOM      3  C   LIG    1       24.661 -27.530  13.190  0.00  0.00    +0.008 C 
ATOM      4  C   LIG    1       23.401 -28.010  12.824  0.00  0.00    -0.018 C 
ATOM      5  C   LIG    1       21.999 -27.552  12.820  0.00  0.00    +0.038 C 
ATOM      6  C   LIG    1       21.230 -28.850  12.420  0.00  0.00    +0.015 C 
ATOM      7  C   LIG    1       22.278 -29.853  11.787  0.00  0.00    +0.047 C 
ATOM      8  C   LIG    1       23.552 -29.247  12.272  0.00  0.00    +0.027 C 
ATOM      9  C   LIG    1       25.083 -26.332  13.789  0.00  0.00    +0.048 C 
ATOM     10  C   LIG    1       26.418 -26.182  14.120  0.00  0.00    +0.126 C 
ATOM     11  F   LIG    1       26.827 -25.044  14.697  0.00  0.00    -0.205 F 
ATOM     12  N   LIG    1       24.891 -29.472  12.081  0.00  0.00    -0.337 NA
ATOM     13  C   LIG    1       27.323 -27.208  13.924  0.00  0.00    +0.067 C 
ENDROOT
BRANCH   1  15
ATOM     14  C   LIG    1       29.331 -29.148  14.638  0.00  0.00    +0.200 C 
ATOM     15  S   LIG    1       28.168 -29.730  13.432  0.00  0.00    -0.004 S 
ATOM     16  O   LIG    1       27.524 -30.925  13.929  0.00  0.00    -0.170 OA
ATOM     17  O   LIG    1       28.884 -29.760  12.164  0.00  0.00    -0.170 OA
ENDBRANCH   1  15
BRANCH   7  18
ATOM     18  C   LIG    1       22.053 -31.279  12.278  0.00  0.00    +0.130 C 
BRANCH  18  19
ATOM     19  C   LIG    1       21.445 -32.133  11.192  0.00  0.00    +0.305 C 
ATOM     20  O   LIG    1       20.991 -33.253  11.362  0.00  0.00    -0.251 OA
BRANCH  19  21
ATOM     21  O   LIG    1       21.407 -31.515   9.990  0.00  0.00    -0.481 OA
ATOM     22  H   LIG    1       22.001 -30.744   9.910  0.00  0.00    +0.295 HD
ENDBRANCH  19  21
ENDBRANCH  18  19
ENDBRANCH   7  18
BRANCH  12  23
ATOM     23  C   LIG    1       25.416 -30.310  10.998  0.00  0.00    +0.157 C 
BRANCH  23  24
ATOM     24  C   LIG    1       25.362 -29.618   9.647  0.00  0.00    -0.028 C 
ATOM     25  C   LIG    1       26.260 -28.587   9.320  0.00  0.00    +0.007 C 
ATOM     26  C   LIG    1       26.211 -27.945   8.079  0.00  0.00    +0.020 C 
ATOM     27  C   LIG    1       25.255 -28.326   7.146  0.00  0.00    +0.041 C 
ATOM     28 CL   LIG    1       25.202 -27.548   5.613  0.00  0.00    -0.084 Cl
ATOM     29  C   LIG    1       24.343 -29.332   7.451  0.00  0.00    +0.020 C 
ATOM     30  C   LIG    1       24.389 -29.967   8.700  0.00  0.00    +0.007 C 
ENDBRANCH  23  24
ENDBRANCH  12  23
TORSDOF 6
ENDMDL
MODEL 2
REMARK VINA RESULT:      -6.1      2.837      5.556
REMARK  Name = *****
REMARK                            x       y       z     vdW  Elec       q    Type
REMARK                         _______ _______ _______ _____ _____    ______ ____
ROOT
ATOM      1  C   LIG    1       21.580 -29.282  12.385  0.00  0.00    +0.115 C 
ATOM      2  C   LIG    1       22.825 -28.673  12.705  0.00  0.00    +0.075 C 
ATOM      3  C   LIG    1       22.843 -27.349  13.219  0.00  0.00    +0.008 C 
ATOM      4  C   LIG    1       24.177 -26.936  13.224  0.00  0.00    -0.018 C 
ATOM      5  C   LIG    1       24.969 -25.753  13.612  0.00  0.00    +0.038 C 
ATOM      6  C   LIG    1       26.384 -26.109  13.059  0.00  0.00    +0.015 C 
ATOM      7  C   LIG    1       26.414 -27.667  12.782  0.00  0.00    +0.047 C 
ATOM      8  C   LIG    1       24.952 -27.963  12.775  0.00  0.00    +0.027 C 
ATOM      9  C   LIG    1       21.648 -26.705  13.577  0.00  0.00    +0.048 C 
ATOM     10  C   LIG    1       20.446 -27.358  13.369  0.00  0.00    +0.126 C 
ATOM     11  F   LIG    1       19.302 -26.747  13.703  0.00  0.00    -0.205 F 
ATOM     12  N   LIG    1       24.170 -29.086  12.692  0.00  0.00    -0.337 NA
ATOM     13  C   LIG    1       20.402 -28.601  12.765  0.00  0.00    +0.067 C 
ENDROOT
BRANCH   1  15
ATOM     14  C   LIG    1       19.547 -30.886  11.271  0.00  0.00    +0.200 C 
ATOM     15  S   LIG    1       21.311 -30.726  11.360  0.00  0.00    -0.004 S 
ATOM     16  O   LIG    1       21.831 -30.449  10.041  0.00  0.00    -0.170 OA
ATOM     17  O   LIG    1       21.783 -31.885  12.103  0.00  0.00    -0.170 OA
ENDBRANCH   1  15
BRANCH   7  18
ATOM     18  C   LIG    1       27.109 -27.987  11.462  0.00  0.00    +0.130 C 
BRANCH  18  19
ATOM     19  C   LIG    1       28.114 -29.099  11.640  0.00  0.00    +0.305 C 
ATOM     20  O   LIG    1       28.299 -30.001  10.838  0.00  0.00    -0.251 OA
BRANCH  19  21
ATOM     21  O   LIG    1       28.840 -28.982  12.774  0.00  0.00    -0.481 OA
ATOM     22  H   LIG    1       29.796 -29.149  12.664  0.00  0.00    +0.295 HD
ENDBRANCH  19  21
ENDBRANCH  18  19
ENDBRANCH   7  18
BRANCH  12  23
ATOM     23  C   LIG    1       24.693 -30.443  12.884  0.00  0.00    +0.157 C 
BRANCH  23  24
ATOM     24  C   LIG    1       24.992 -31.143  11.570  0.00  0.00    -0.028 C 
ATOM     25  C   LIG    1       24.966 -30.447  10.350  0.00  0.00    +0.007 C 
ATOM     26  C   LIG    1       25.236 -31.089   9.138  0.00  0.00    +0.020 C 
ATOM     27  C   LIG    1       25.533 -32.445   9.132  0.00  0.00    +0.041 C 
ATOM     28 CL   LIG    1       25.882 -33.235   7.643  0.00  0.00    -0.084 Cl
ATOM     29  C   LIG    1       25.548 -33.163  10.324  0.00  0.00    +0.020 C 
ATOM     30  C   LIG    1       25.267 -32.518  11.535  0.00  0.00    +0.007 C 
ENDBRANCH  23  24
ENDBRANCH  12  23
TORSDOF 6
ENDMDL
MODEL 3
REMARK VINA RESULT:      -6.0      2.112      3.024
REMARK  Name = *****
REMARK                            x       y       z     vdW  Elec       q    Type
REMARK                         _______ _______ _______ _____ _____    ______ ____
ROOT
ATOM      1  C   LIG    1       24.908 -28.407  12.581  0.00  0.00    +0.115 C 
ATOM      2  C   LIG    1       24.181 -29.334  11.784  0.00  0.00    +0.075 C 
ATOM      3  C   LIG    1       22.762 -29.341  11.841  0.00  0.00    +0.008 C 
ATOM      4  C   LIG    1       22.335 -30.478  11.150  0.00  0.00    -0.018 C 
ATOM      5  C   LIG    1       21.069 -31.135  10.774  0.00  0.00    +0.038 C 
ATOM      6  C   LIG    1       21.566 -32.489  10.178  0.00  0.00    +0.015 C 
ATOM      7  C   LIG    1       23.105 -32.332   9.845  0.00  0.00    +0.047 C 
ATOM      8  C   LIG    1       23.429 -31.121  10.655  0.00  0.00    +0.027 C 
ATOM      9  C   LIG    1       22.069 -28.335  12.535  0.00  0.00    +0.048 C 
ATOM     10  C   LIG    1       22.792 -27.369  13.211  0.00  0.00    +0.126 C 
ATOM     11  F   LIG    1       22.137 -26.410  13.880  0.00  0.00    -0.205 F 
ATOM     12  N   LIG    1       24.520 -30.308  10.827  0.00  0.00    -0.337 NA
ATOM     13  C   LIG    1       24.172 -27.411  13.260  0.00  0.00    +0.067 C 
ENDROOT
BRANCH   1  15
ATOM     14  C   LIG    1       26.810 -27.374  14.387  0.00  0.00    +0.200 C 
ATOM     15  S   LIG    1       26.647 -28.472  13.003  0.00  0.00    -0.004 S 
ATOM     16  O   LIG    1       26.961 -29.818  13.425  0.00  0.00    -0.170 OA
ATOM     17  O   LIG    1       27.388 -27.856  11.912  0.00  0.00    -0.170 OA
ENDBRANCH   1  15
BRANCH   7  18
ATOM     18  C   LIG    1       23.895 -33.570  10.253  0.00  0.00    +0.130 C 
BRANCH  18  19
ATOM     19  C   LIG    1       25.161 -33.693   9.441  0.00  0.00    +0.305 C 
ATOM     20  O   LIG    1       25.209 -33.654   8.221  0.00  0.00    -0.251 OA
BRANCH  19  21
ATOM     21  O   LIG    1       26.271 -33.812  10.203  0.00  0.00    -0.481 OA
ATOM     22  H   LIG    1       26.779 -32.985  10.313  0.00  0.00    +0.295 HD
ENDBRANCH  19  21
ENDBRANCH  18  19
ENDBRANCH   7  18
BRANCH  12  23
ATOM     23  C   LIG    1       25.673 -30.312   9.921  0.00  0.00    +0.157 C 
BRANCH  23  24
ATOM     24  C   LIG    1       25.481 -29.390   8.730  0.00  0.00    -0.028 C 
ATOM     25  C   LIG    1       26.241 -28.215   8.587  0.00  0.00    +0.007 C 
ATOM     26  C   LIG    1       26.064 -27.362   7.494  0.00  0.00    +0.020 C 
ATOM     27  C   LIG    1       25.117 -27.672   6.527  0.00  0.00    +0.041 C 
ATOM     28 CL   LIG    1       24.908 -26.632   5.173  0.00  0.00    -0.084 Cl
ATOM     29  C   LIG    1       24.339 -28.820   6.653  0.00  0.00    +0.020 C 
ATOM     30  C   LIG    1       24.512 -29.668   7.755  0.00  0.00    +0.007 C 
ENDBRANCH  23  24
ENDBRANCH  12  23
TORSDOF 6
ENDMDL
MODEL 4
REMARK VINA RESULT:      -5.3      2.579      3.857
REMARK  Name = *****
REMARK                            x       y       z     vdW  Elec       q    Type
REMARK                         _______ _______ _______ _____ _____    ______ ____
ROOT
ATOM      1  C   LIG    1       23.453 -27.599  13.312  0.00  0.00    +0.115 C 
ATOM      2  C   LIG    1       23.151 -28.901  12.822  0.00  0.00    +0.075 C 
ATOM      3  C   LIG    1       21.798 -29.261  12.585  0.00  0.00    +0.008 C 
ATOM      4  C   LIG    1       21.784 -30.636  12.335  0.00  0.00    -0.018 C 
ATOM      5  C   LIG    1       20.808 -31.691  12.002  0.00  0.00    +0.038 C 
ATOM      6  C   LIG    1       21.673 -32.985  12.114  0.00  0.00    +0.015 C 
ATOM      7  C   LIG    1       23.195 -32.552  12.069  0.00  0.00    +0.047 C 
ATOM      8  C   LIG    1       23.065 -31.097  12.374  0.00  0.00    +0.027 C 
ATOM      9  C   LIG    1       20.778 -28.299  12.660  0.00  0.00    +0.048 C 
ATOM     10  C   LIG    1       21.103 -27.005  13.025  0.00  0.00    +0.126 C 
ATOM     11  F   LIG    1       20.134 -26.083  13.105  0.00  0.00    -0.205 F 
ATOM     12  N   LIG    1       23.909 -30.018  12.427  0.00  0.00    -0.337 NA
ATOM     13  C   LIG    1       22.397 -26.662  13.370  0.00  0.00    +0.067 C 
ENDROOT
BRANCH   1  15
ATOM     14  C   LIG    1       26.045 -26.672  12.706  0.00  0.00    +0.200 C 
ATOM     15  S   LIG    1       24.980 -27.055  14.072  0.00  0.00    -0.004 S 
ATOM     16  O   LIG    1       24.709 -25.847  14.818  0.00  0.00    -0.170 OA
ATOM     17  O   LIG    1       25.575 -28.206  14.736  0.00  0.00    -0.170 OA
ENDBRANCH   1  15
BRANCH   7  18
ATOM     18  C   LIG    1       24.025 -33.320  13.092  0.00  0.00    +0.130 C 
BRANCH  18  19
ATOM     19  C   LIG    1       25.420 -33.571  12.573  0.00  0.00    +0.305 C 
ATOM     20  O   LIG    1       25.741 -33.527  11.395  0.00  0.00    -0.251 OA
BRANCH  19  21
ATOM     21  O   LIG    1       26.315 -33.813  13.555  0.00  0.00    -0.481 OA
ATOM     22  H   LIG    1       26.997 -33.122  13.664  0.00  0.00    +0.295 HD
ENDBRANCH  19  21
ENDBRANCH  18  19
ENDBRANCH   7  18
BRANCH  12  23
ATOM     23  C   LIG    1       25.260 -30.028  11.855  0.00  0.00    +0.157 C 
BRANCH  23  24
ATOM     24  C   LIG    1       25.277 -29.622  10.393  0.00  0.00    -0.028 C 
ATOM     25  C   LIG    1       24.314 -30.105   9.490  0.00  0.00    +0.007 C 
ATOM     26  C   LIG    1       24.329 -29.737   8.142  0.00  0.00    +0.020 C 
ATOM     27  C   LIG    1       25.316 -28.879   7.676  0.00  0.00    +0.041 C 
ATOM     28 CL   LIG    1       25.328 -28.412   6.020  0.00  0.00    -0.084 Cl
ATOM     29  C   LIG    1       26.293 -28.400   8.544  0.00  0.00    +0.020 C 
ATOM     30  C   LIG    1       26.280 -28.779   9.893  0.00  0.00    +0.007 C 
ENDBRANCH  23  24
ENDBRANCH  12  23
TORSDOF 6
ENDMDL
MODEL 5
REMARK VINA RESULT:      -5.2      3.058      6.104
REMARK  Name = *****
REMARK                            x       y       z     vdW  Elec       q    Type
REMARK                         _______ _______ _______ _____ _____    ______ ____
ROOT
ATOM      1  C   LIG    1       24.438 -30.947  10.046  0.00  0.00    +0.115 C 
ATOM      2  C   LIG    1       24.953 -30.049  11.023  0.00  0.00    +0.075 C 
ATOM      3  C   LIG    1       25.790 -28.977  10.613  0.00  0.00    +0.008 C 
ATOM      4  C   LIG    1       26.321 -28.412  11.775  0.00  0.00    -0.018 C 
ATOM      5  C   LIG    1       27.215 -27.304  12.160  0.00  0.00    +0.038 C 
ATOM      6  C   LIG    1       27.409 -27.553  13.688  0.00  0.00    +0.015 C 
ATOM      7  C   LIG    1       26.257 -28.528  14.167  0.00  0.00    +0.047 C 
ATOM      8  C   LIG    1       25.808 -29.072  12.852  0.00  0.00    +0.027 C 
ATOM      9  C   LIG    1       25.971 -28.691   9.250  0.00  0.00    +0.048 C 
ATOM     10  C   LIG    1       25.367 -29.506   8.309  0.00  0.00    +0.126 C 
ATOM     11  F   LIG    1       25.540 -29.242   7.007  0.00  0.00    -0.205 F 
ATOM     12  N   LIG    1       24.803 -29.895  12.413  0.00  0.00    -0.337 NA
ATOM     13  C   LIG    1       24.642 -30.620   8.686  0.00  0.00    +0.067 C 
ENDROOT
BRANCH   1  15
ATOM     14  C   LIG    1       23.772 -33.353   8.738  0.00  0.00    +0.200 C 
ATOM     15  S   LIG    1       23.736 -32.569  10.329  0.00  0.00    -0.004 S 
ATOM     16  O   LIG    1       24.605 -33.288  11.233  0.00  0.00    -0.170 OA
ATOM     17  O   LIG    1       22.330 -32.388  10.656  0.00  0.00    -0.170 OA
ENDBRANCH   1  15
BRANCH   7  18
ATOM     18  C   LIG    1       26.787 -29.593  15.121  0.00  0.00    +0.130 C 
BRANCH  18  19
ATOM     19  C   LIG    1       27.592 -30.630  14.376  0.00  0.00    +0.305 C 
ATOM     20  O   LIG    1       28.778 -30.525  14.107  0.00  0.00    -0.251 OA
BRANCH  19  21
ATOM     21  O   LIG    1       26.876 -31.732  14.063  0.00  0.00    -0.481 OA
ATOM     22  H   LIG    1       27.198 -32.217  13.278  0.00  0.00    +0.295 HD
ENDBRANCH  19  21
ENDBRANCH  18  19
ENDBRANCH   7  18
BRANCH  12  23
ATOM     23  C   LIG    1       23.640 -30.248  13.234  0.00  0.00    +0.157 C 
BRANCH  23  24
ATOM     24  C   LIG    1       22.559 -29.183  13.203  0.00  0.00    -0.028 C 
ATOM     25  C   LIG    1       22.883 -27.815  13.185  0.00  0.00    +0.007 C 
ATOM     26  C   LIG    1       21.890 -26.832  13.160  0.00  0.00    +0.020 C 
ATOM     27  C   LIG    1       20.553 -27.206  13.158  0.00  0.00    +0.041 C 
ATOM     28 CL   LIG    1       19.329 -25.998  13.113  0.00  0.00    -0.084 Cl
ATOM     29  C   LIG    1       20.204 -28.553  13.194  0.00  0.00    +0.020 C 
ATOM     30  C   LIG    1       21.202 -29.536  13.228  0.00  0.00    +0.007 C 
ENDBRANCH  23  24
ENDBRANCH  12  23
TORSDOF 6
ENDMDL
MODEL 6
REMARK VINA RESULT:      -4.9      8.930     11.696
REMARK  Name = *****
REMARK                            x       y       z     vdW  Elec       q    Type
REMARK                         _______ _______ _______ _____ _____    ______ ____
ROOT
ATOM      1  C   LIG    1       25.647 -19.683   4.646  0.00  0.00    +0.115 C 
ATOM      2  C   LIG    1       26.754 -19.623   5.537  0.00  0.00    +0.075 C 
ATOM      3  C   LIG    1       27.793 -18.684   5.298  0.00  0.00    +0.008 C 
ATOM      4  C   LIG    1       28.833 -18.998   6.176  0.00  0.00    -0.018 C 
ATOM      5  C   LIG    1       30.175 -18.497   6.529  0.00  0.00    +0.038 C 
ATOM      6  C   LIG    1       30.700 -19.611   7.488  0.00  0.00    +0.015 C 
ATOM      7  C   LIG    1       29.452 -20.455   7.973  0.00  0.00    +0.047 C 
ATOM      8  C   LIG    1       28.444 -20.051   6.949  0.00  0.00    +0.027 C 
ATOM      9  C   LIG    1       27.655 -17.703   4.301  0.00  0.00    +0.048 C 
ATOM     10  C   LIG    1       26.516 -17.702   3.516  0.00  0.00    +0.126 C 
ATOM     11  F   LIG    1       26.381 -16.773   2.560  0.00  0.00    -0.205 F 
ATOM     12  N   LIG    1       27.108 -20.273   6.734  0.00  0.00    -0.337 NA
ATOM     13  C   LIG    1       25.547 -18.677   3.659  0.00  0.00    +0.067 C 
ENDROOT
BRANCH   1  15
ATOM     14  C   LIG    1       23.727 -20.760   2.886  0.00  0.00    +0.200 C 
ATOM     15  S   LIG    1       24.460 -21.013   4.482  0.00  0.00    -0.004 S 
ATOM     16  O   LIG    1       25.180 -22.266   4.481  0.00  0.00    -0.170 OA
ATOM     17  O   LIG    1       23.401 -20.779   5.453  0.00  0.00    -0.170 OA
ENDBRANCH   1  15
BRANCH   7  18
ATOM     18  C   LIG    1       29.755 -21.950   7.976  0.00  0.00    +0.130 C 
BRANCH  18  19
ATOM     19  C   LIG    1       30.810 -22.282   9.003  0.00  0.00    +0.305 C 
ATOM     20  O   LIG    1       30.624 -22.297  10.209  0.00  0.00    -0.251 OA
BRANCH  19  21
ATOM     21  O   LIG    1       32.000 -22.611   8.453  0.00  0.00    -0.481 OA
ATOM     22  H   LIG    1       32.422 -23.403   8.840  0.00  0.00    +0.295 HD
ENDBRANCH  19  21
ENDBRANCH  18  19
ENDBRANCH   7  18
BRANCH  12  23
ATOM     23  C   LIG    1       26.211 -20.817   7.757  0.00  0.00    +0.157 C 
BRANCH  23  24
ATOM     24  C   LIG    1       25.692 -22.199   7.403  0.00  0.00    -0.028 C 
ATOM     25  C   LIG    1       24.322 -22.503   7.467  0.00  0.00    +0.007 C 
ATOM     26  C   LIG    1       23.841 -23.775   7.145  0.00  0.00    +0.020 C 
ATOM     27  C   LIG    1       24.732 -24.768   6.757  0.00  0.00    +0.041 C 
ATOM     28 CL   LIG    1       24.142 -26.330   6.345  0.00  0.00    -0.084 Cl
ATOM     29  C   LIG    1       26.096 -24.499   6.701  0.00  0.00    +0.020 C 
ATOM     30  C   LIG    1       26.575 -23.225   7.034  0.00  0.00    +0.007 C 
ENDBRANCH  23  24
ENDBRANCH  12  23
TORSDOF 6
ENDMDL
MODEL 7
REMARK VINA RESULT:      -4.6      3.947      6.753
REMARK  Name = *****
REMARK                            x       y       z     vdW  Elec       q    Type
REMARK                         _______ _______ _______ _____ _____    ______ ____
ROOT
ATOM      1  C   LIG    1       19.143 -30.989  12.506  0.00  0.00    +0.115 C 
ATOM      2  C   LIG    1       19.863 -30.021  13.261  0.00  0.00    +0.075 C 
ATOM      3  C   LIG    1       19.151 -29.093  14.066  0.00  0.00    +0.008 C 
ATOM      4  C   LIG    1       20.077 -28.141  14.500  0.00  0.00    -0.018 C 
ATOM      5  C   LIG    1       20.110 -26.932  15.345  0.00  0.00    +0.038 C 
ATOM      6  C   LIG    1       21.552 -26.392  15.090  0.00  0.00    +0.015 C 
ATOM      7  C   LIG    1       22.403 -27.570  14.463  0.00  0.00    +0.047 C 
ATOM      8  C   LIG    1       21.307 -28.483  14.024  0.00  0.00    +0.027 C 
ATOM      9  C   LIG    1       17.767 -29.230  14.262  0.00  0.00    +0.048 C 
ATOM     10  C   LIG    1       17.097 -30.250  13.612  0.00  0.00    +0.126 C 
ATOM     11  F   LIG    1       15.775 -30.383  13.790  0.00  0.00    -0.205 F 
ATOM     12  N   LIG    1       21.224 -29.740  13.482  0.00  0.00    -0.337 NA
ATOM     13  C   LIG    1       17.753 -31.094  12.735  0.00  0.00    +0.067 C 
ENDROOT
BRANCH   1  15
ATOM     14  C   LIG    1       18.362 -32.950  10.638  0.00  0.00    +0.200 C 
ATOM     15  S   LIG    1       19.750 -31.961  11.130  0.00  0.00    -0.004 S 
ATOM     16  O   LIG    1       20.097 -31.059  10.056  0.00  0.00    -0.170 OA
ATOM     17  O   LIG    1       20.741 -32.890  11.653  0.00  0.00    -0.170 OA
ENDBRANCH   1  15
BRANCH   7  18
ATOM     18  C   LIG    1       23.282 -27.076  13.320  0.00  0.00    +0.130 C 
BRANCH  18  19
ATOM     19  C   LIG    1       24.576 -26.503  13.845  0.00  0.00    +0.305 C 
ATOM     20  O   LIG    1       25.523 -27.170  14.234  0.00  0.00    -0.251 OA
BRANCH  19  21
ATOM     21  O   LIG    1       24.613 -25.153  13.807  0.00  0.00    -0.481 OA
ATOM     22  H   LIG    1       23.737 -24.723  13.761  0.00  0.00    +0.295 HD
ENDBRANCH  19  21
ENDBRANCH  18  19
ENDBRANCH   7  18
BRANCH  12  23
ATOM     23  C   LIG    1       22.348 -30.681  13.464  0.00  0.00    +0.157 C 
BRANCH  23  24
ATOM     24  C   LIG    1       23.382 -30.334  12.409  0.00  0.00    -0.028 C 
ATOM     25  C   LIG    1       24.753 -30.291  12.716  0.00  0.00    +0.007 C 
ATOM     26  C   LIG    1       25.708 -29.969  11.748  0.00  0.00    +0.020 C 
ATOM     27  C   LIG    1       25.300 -29.678  10.452  0.00  0.00    +0.041 C 
ATOM     28 CL   LIG    1       26.474 -29.295   9.254  0.00  0.00    -0.084 Cl
ATOM     29  C   LIG    1       23.948 -29.696  10.125  0.00  0.00    +0.020 C 
ATOM     30  C   LIG    1       22.993 -30.011  11.100  0.00  0.00    +0.007 C 
ENDBRANCH  23  24
ENDBRANCH  12  23
TORSDOF 6
ENDMDL
MODEL 8
REMARK VINA RESULT:      -4.4      4.278      6.709
REMARK  Name = *****
REMARK                            x       y       z     vdW  Elec       q    Type
REMARK                         _______ _______ _______ _____ _____    ______ ____
ROOT
ATOM      1  C   LIG    1       25.465 -30.260   6.464  0.00  0.00    +0.115 C 
ATOM      2  C   LIG    1       25.459 -30.872   7.749  0.00  0.00    +0.075 C 
ATOM      3  C   LIG    1       25.828 -32.238   7.873  0.00  0.00    +0.008 C 
ATOM      4  C   LIG    1       25.516 -32.624   9.179  0.00  0.00    -0.018 C 
ATOM      5  C   LIG    1       25.616 -33.823  10.033  0.00  0.00    +0.038 C 
ATOM      6  C   LIG    1       24.819 -33.388  11.303  0.00  0.00    +0.015 C 
ATOM      7  C   LIG    1       24.694 -31.810  11.275  0.00  0.00    +0.047 C 
ATOM      8  C   LIG    1       25.019 -31.544   9.843  0.00  0.00    +0.027 C 
ATOM      9  C   LIG    1       26.362 -32.937   6.778  0.00  0.00    +0.048 C 
ATOM     10  C   LIG    1       26.471 -32.291   5.559  0.00  0.00    +0.126 C 
ATOM     11  F   LIG    1       26.974 -32.953   4.509  0.00  0.00    -0.205 F 
ATOM     12  N   LIG    1       25.208 -30.433   9.062  0.00  0.00    -0.337 NA
ATOM     13  C   LIG    1       26.012 -30.998   5.391  0.00  0.00    +0.067 C 
ENDROOT
BRANCH   1  15
ATOM     14  C   LIG    1       25.745 -27.458   6.583  0.00  0.00    +0.200 C 
ATOM     15  S   LIG    1       24.662 -28.731   5.990  0.00  0.00    -0.004 S 
ATOM     16  O   LIG    1       24.609 -28.676   4.546  0.00  0.00    -0.170 OA
ATOM     17  O   LIG    1       23.439 -28.616   6.771  0.00  0.00    -0.170 OA
ENDBRANCH   1  15
BRANCH   7  18
ATOM     18  C   LIG    1       23.297 -31.354  11.681  0.00  0.00    +0.130 C 
BRANCH  18  19
ATOM     19  C   LIG    1       22.294 -31.665  10.597  0.00  0.00    +0.305 C 
ATOM     20  O   LIG    1       21.661 -32.706  10.515  0.00  0.00    -0.251 OA
BRANCH  19  21
ATOM     21  O   LIG    1       22.121 -30.647   9.725  0.00  0.00    -0.481 OA
ATOM     22  H   LIG    1       21.600 -29.897  10.073  0.00  0.00    +0.295 HD
ENDBRANCH  19  21
ENDBRANCH  18  19
ENDBRANCH   7  18
BRANCH  12  23
ATOM     23  C   LIG    1       25.418 -29.091   9.614  0.00  0.00    +0.157 C 
BRANCH  23  24
ATOM     24  C   LIG    1       26.375 -29.088  10.792  0.00  0.00    -0.028 C 
ATOM     25  C   LIG    1       27.686 -29.579  10.668  0.00  0.00    +0.007 C 
ATOM     26  C   LIG    1       28.568 -29.581  11.752  0.00  0.00    +0.020 C 
ATOM     27  C   LIG    1       28.146 -29.094  12.982  0.00  0.00    +0.041 C 
ATOM     28 CL   LIG    1       29.235 -29.082  14.314  0.00  0.00    -0.084 Cl
ATOM     29  C   LIG    1       26.848 -28.618  13.137  0.00  0.00    +0.020 C 
ATOM     30  C   LIG    1       25.963 -28.626  12.051  0.00  0.00    +0.007 C 
ENDBRANCH  23  24
ENDBRANCH  12  23
TORSDOF 6
ENDMDL
MODEL 9
REMARK VINA RESULT:      -4.4      3.462      6.515
REMARK  Name = *****
REMARK                            x       y       z     vdW  Elec       q    Type
REMARK                         _______ _______ _______ _____ _____    ______ ____
ROOT
ATOM      1  C   LIG    1       25.536 -31.369   8.868  0.00  0.00    +0.115 C 
ATOM      2  C   LIG    1       25.747 -30.534  10.001  0.00  0.00    +0.075 C 
ATOM      3  C   LIG    1       25.986 -29.147   9.811  0.00  0.00    +0.008 C 
ATOM      4  C   LIG    1       26.378 -28.631  11.049  0.00  0.00    -0.018 C 
ATOM      5  C   LIG    1       26.760 -27.334  11.638  0.00  0.00    +0.038 C 
ATOM      6  C   LIG    1       27.245 -27.749  13.061  0.00  0.00    +0.015 C 
ATOM      7  C   LIG    1       26.691 -29.203  13.353  0.00  0.00    +0.047 C 
ATOM      8  C   LIG    1       26.344 -29.637  11.968  0.00  0.00    +0.027 C 
ATOM      9  C   LIG    1       25.843 -28.564   8.541  0.00  0.00    +0.048 C 
ATOM     10  C   LIG    1       25.522 -29.372   7.466  0.00  0.00    +0.126 C 
ATOM     11  F   LIG    1       25.390 -28.824   6.250  0.00  0.00    -0.205 F 
ATOM     12  N   LIG    1       25.734 -30.723  11.395  0.00  0.00    -0.337 NA
ATOM     13  C   LIG    1       25.397 -30.741   7.610  0.00  0.00    +0.067 C 
ENDROOT
BRANCH   1  15
ATOM     14  C   LIG    1       25.774 -33.533   7.078  0.00  0.00    +0.200 C 
ATOM     15  S   LIG    1       25.635 -33.156   8.806  0.00  0.00    -0.004 S 
ATOM     16  O   LIG    1       26.844 -33.567   9.482  0.00  0.00    -0.170 OA
ATOM     17  O   LIG    1       24.346 -33.682   9.230  0.00  0.00    -0.170 OA
ENDBRANCH   1  15
BRANCH   7  18
ATOM     18  C   LIG    1       27.746 -30.078  14.021  0.00  0.00    +0.130 C 
BRANCH  18  19
ATOM     19  C   LIG    1       29.126 -29.498  13.831  0.00  0.00    +0.305 C 
ATOM     20  O   LIG    1       29.762 -28.920  14.698  0.00  0.00    -0.251 OA
BRANCH  19  21
ATOM     21  O   LIG    1       29.628 -29.717  12.595  0.00  0.00    -0.481 OA
ATOM     22  H   LIG    1       28.979 -29.631  11.871  0.00  0.00    +0.295 HD
ENDBRANCH  19  21
ENDBRANCH  18  19
ENDBRANCH   7  18
BRANCH  12  23
ATOM     23  C   LIG    1       24.954 -31.701  12.160  0.00  0.00    +0.157 C 
BRANCH  23  24
ATOM     24  C   LIG    1       23.630 -31.139  12.645  0.00  0.00    -0.028 C 
ATOM     25  C   LIG    1       22.663 -30.666  11.741  0.00  0.00    +0.007 C 
ATOM     26  C   LIG    1       21.444 -30.144  12.184  0.00  0.00    +0.020 C 
ATOM     27  C   LIG    1       21.178 -30.084  13.545  0.00  0.00    +0.041 C 
ATOM     28 CL   LIG    1       19.672 -29.456  14.092  0.00  0.00    -0.084 Cl
ATOM     29  C   LIG    1       22.124 -30.529  14.463  0.00  0.00    +0.020 C 
ATOM     30  C   LIG    1       23.348 -31.043  14.016  0.00  0.00    +0.007 C 
ENDBRANCH  23  24
ENDBRANCH  12  23
TORSDOF 6
ENDMDL
