MODEL 1
REMARK VINA RESULT:      -4.9      0.000      0.000
REMARK  Name = *****
REMARK                            x       y       z     vdW  Elec       q    Type
REMARK                         _______ _______ _______ _____ _____    ______ ____
ROOT
ATOM      1  C   LIG    1       26.468 -17.080   3.745  0.00  0.00    +0.162 C 
ENDROOT
BRANCH   1   2
ATOM      2  C   LIG    1       27.330 -18.021   4.598  0.00  0.00    -0.007 A 
ATOM      3  C   LIG    1       26.853 -19.229   5.185  0.00  0.00    +0.009 A 
ATOM      4  C   LIG    1       27.729 -19.959   6.016  0.00  0.00    +0.071 A 
ATOM      5  C   LIG    1       27.272 -21.102   6.662  0.00  0.00    +0.032 A 
ATOM      6  C   LIG    1       25.972 -21.572   6.471  0.00  0.00    +0.048 A 
ATOM      7  C   LIG    1       25.121 -20.921   5.592  0.00  0.00    +0.121 A 
ATOM      8  N   LIG    1       29.014 -19.620   6.218  0.00  0.00    -0.255 NA
ATOM      9  C   LIG    1       29.475 -18.534   5.576  0.00  0.00    +0.112 A 
ATOM     10  C   LIG    1       25.554 -19.754   4.954  0.00  0.00    +0.056 A 
ATOM     11  C   LIG    1       28.691 -17.718   4.790  0.00  0.00    +0.026 A 
BRANCH   7  12
ATOM     12  O   LIG    1       23.884 -21.486   5.441  0.00  0.00    -0.495 OA
ATOM     13  C   LIG    1       22.777 -20.595   5.521  0.00  0.00    +0.277 C 
ENDBRANCH   7  12
ENDBRANCH   1   2
BRANCH   1  17
ATOM     14  C   LIG    1       25.408 -13.280   3.955  0.00  0.00    +0.028 C 
ATOM     15  C   LIG    1       26.232 -13.406   2.651  0.00  0.00    -0.000 C 
ATOM     16  C   LIG    1       26.371 -14.897   2.268  0.00  0.00    +0.026 C 
ATOM     17  C   LIG    1       27.107 -15.676   3.383  0.00  0.00    +0.090 C 
ATOM     18  N   LIG    1       27.381 -14.761   4.558  0.00  0.00    -0.296 NA
ATOM     19  C   LIG    1       28.298 -13.692   4.071  0.00  0.00    +0.085 C 
ATOM     20  C   LIG    1       27.640 -12.850   2.962  0.00  0.00    +0.019 C 
ATOM     21  C   LIG    1       26.170 -14.054   5.060  0.00  0.00    +0.092 C 
BRANCH  14  23
ATOM     22  C   LIG    1       23.467 -14.829   4.434  0.00  0.00    +0.004 C 
ATOM     23  C   LIG    1       23.976 -13.751   3.828  0.00  0.00    -0.029 C 
ENDBRANCH  14  23
ENDBRANCH   1  17
BRANCH   1  24
ATOM     24  O   LIG    1       26.109 -17.797   2.560  0.00  0.00    -0.386 OA
ATOM     25  H   LIG    1       26.629 -17.419   1.841  0.00  0.00    +0.210 HD
ENDBRANCH   1  24
TORSDOF 5
ENDMDL
MODEL 2
REMARK VINA RESULT:      -3.1      2.155      3.540
REMARK  Name = *****
REMARK                            x       y       z     vdW  Elec       q    Type
REMARK                         _______ _______ _______ _____ _____    ______ ____
ROOT
ATOM      1  C   LIG    1       26.031 -16.921   3.220  0.00  0.00    +0.162 C 
ENDROOT
BRANCH   1   2
ATOM      2  C   LIG    1       25.704 -18.246   3.924  0.00  0.00    -0.007 A 
ATOM      3  C   LIG    1       24.382 -18.725   4.149  0.00  0.00    +0.009 A 
ATOM      4  C   LIG    1       24.220 -19.919   4.884  0.00  0.00    +0.071 A 
ATOM      5  C   LIG    1       22.942 -20.375   5.184  0.00  0.00    +0.032 A 
ATOM      6  C   LIG    1       21.807 -19.699   4.733  0.00  0.00    +0.048 A 
ATOM      7  C   LIG    1       21.941 -18.573   3.937  0.00  0.00    +0.121 A 
ATOM      8  N   LIG    1       25.249 -20.671   5.312  0.00  0.00    -0.255 NA
ATOM      9  C   LIG    1       26.489 -20.256   5.003  0.00  0.00    +0.112 A 
ATOM     10  C   LIG    1       23.218 -18.084   3.648  0.00  0.00    +0.056 A 
ATOM     11  C   LIG    1       26.760 -19.077   4.343  0.00  0.00    +0.026 A 
BRANCH   7  12
ATOM     12  O   LIG    1       20.769 -18.010   3.511  0.00  0.00    -0.495 OA
ATOM     13  C   LIG    1       19.700 -18.915   3.252  0.00  0.00    +0.277 C 
ENDBRANCH   7  12
ENDBRANCH   1   2
BRANCH   1  17
ATOM     14  C   LIG    1       26.682 -13.026   3.324  0.00  0.00    +0.028 C 
ATOM     15  C   LIG    1       25.973 -13.361   4.658  0.00  0.00    -0.000 C 
ATOM     16  C   LIG    1       26.015 -14.887   4.898  0.00  0.00    +0.026 C 
ATOM     17  C   LIG    1       25.281 -15.634   3.761  0.00  0.00    +0.090 C 
ATOM     18  N   LIG    1       24.830 -14.649   2.703  0.00  0.00    -0.296 NA
ATOM     19  C   LIG    1       23.848 -13.734   3.352  0.00  0.00    +0.085 C 
ATOM     20  C   LIG    1       24.497 -12.934   4.496  0.00  0.00    +0.019 C 
ATOM     21  C   LIG    1       25.923 -13.772   2.198  0.00  0.00    +0.092 C 
BRANCH  14  23
ATOM     22  C   LIG    1       29.099 -12.672   3.980  0.00  0.00    +0.004 C 
ATOM     23  C   LIG    1       28.159 -13.350   3.312  0.00  0.00    -0.029 C 
ENDBRANCH  14  23
ENDBRANCH   1  17
BRANCH   1  24
ATOM     24  O   LIG    1       27.450 -16.749   3.285  0.00  0.00    -0.386 OA
ATOM     25  H   LIG    1       27.632 -16.265   4.099  0.00  0.00    +0.210 HD
ENDBRANCH   1  24
TORSDOF 5
ENDMDL
MODEL 3
REMARK VINA RESULT:      -2.0      1.625      2.771
REMARK  Name = *****
REMARK                            x       y       z     vdW  Elec       q    Type
REMARK                         _______ _______ _______ _____ _____    ______ ____
ROOT
ATOM      1  C   LIG    1       27.694 -16.923   3.968  0.00  0.00    +0.162 C 
ENDROOT
BRANCH   1   2
ATOM      2  C   LIG    1       27.534 -18.275   4.678  0.00  0.00    -0.007 A 
ATOM      3  C   LIG    1       26.333 -19.040   4.673  0.00  0.00    +0.009 A 
ATOM      4  C   LIG    1       26.294 -20.227   5.436  0.00  0.00    +0.071 A 
ATOM      5  C   LIG    1       25.115 -20.959   5.512  0.00  0.00    +0.032 A 
ATOM      6  C   LIG    1       23.974 -20.569   4.809  0.00  0.00    +0.048 A 
ATOM      7  C   LIG    1       24.013 -19.457   3.985  0.00  0.00    +0.121 A 
ATOM      8  N   LIG    1       27.355 -20.716   6.102  0.00  0.00    -0.255 NA
ATOM      9  C   LIG    1       28.509 -20.032   6.012  0.00  0.00    +0.112 A 
ATOM     10  C   LIG    1       25.182 -18.692   3.918  0.00  0.00    +0.056 A 
ATOM     11  C   LIG    1       28.640 -18.834   5.345  0.00  0.00    +0.026 A 
BRANCH   7  12
ATOM     12  O   LIG    1       22.857 -19.185   3.306  0.00  0.00    -0.495 OA
ATOM     13  C   LIG    1       21.844 -18.509   4.044  0.00  0.00    +0.277 C 
ENDBRANCH   7  12
ENDBRANCH   1   2
BRANCH   1  17
ATOM     14  C   LIG    1       27.113 -13.065   3.347  0.00  0.00    +0.028 C 
ATOM     15  C   LIG    1       26.343 -13.393   4.649  0.00  0.00    -0.000 C 
ATOM     16  C   LIG    1       26.807 -14.762   5.194  0.00  0.00    +0.026 C 
ATOM     17  C   LIG    1       26.516 -15.881   4.166  0.00  0.00    +0.090 C 
ATOM     18  N   LIG    1       25.957 -15.280   2.894  0.00  0.00    -0.296 NA
ATOM     19  C   LIG    1       24.656 -14.644   3.251  0.00  0.00    +0.085 C 
ATOM     20  C   LIG    1       24.850 -13.502   4.266  0.00  0.00    +0.019 C 
ATOM     21  C   LIG    1       26.797 -14.188   2.328  0.00  0.00    +0.092 C 
BRANCH  14  23
ATOM     22  C   LIG    1       29.169 -12.121   4.477  0.00  0.00    +0.004 C 
ATOM     23  C   LIG    1       28.602 -12.887   3.539  0.00  0.00    -0.029 C 
ENDBRANCH  14  23
ENDBRANCH   1  17
BRANCH   1  24
ATOM     24  O   LIG    1       28.942 -16.369   4.397  0.00  0.00    -0.386 OA
ATOM     25  H   LIG    1       29.472 -17.105   4.724  0.00  0.00    +0.210 HD
ENDBRANCH   1  24
TORSDOF 5
ENDMDL
MODEL 4
REMARK VINA RESULT:      -1.9      2.358      7.199
REMARK  Name = *****
REMARK                            x       y       z     vdW  Elec       q    Type
REMARK                         _______ _______ _______ _____ _____    ______ ____
ROOT
ATOM      1  C   LIG    1       25.146 -17.909   3.832  0.00  0.00    +0.162 C 
ENDROOT
BRANCH   1   2
ATOM      2  C   LIG    1       24.567 -16.496   3.982  0.00  0.00    -0.007 A 
ATOM      3  C   LIG    1       25.348 -15.305   3.950  0.00  0.00    +0.009 A 
ATOM      4  C   LIG    1       24.699 -14.074   4.183  0.00  0.00    +0.071 A 
ATOM      5  C   LIG    1       25.444 -12.901   4.232  0.00  0.00    +0.032 A 
ATOM      6  C   LIG    1       26.821 -12.908   4.008  0.00  0.00    +0.048 A 
ATOM      7  C   LIG    1       27.467 -14.092   3.691  0.00  0.00    +0.121 A 
ATOM      8  N   LIG    1       23.371 -13.956   4.354  0.00  0.00    -0.255 NA
ATOM      9  C   LIG    1       22.637 -15.079   4.279  0.00  0.00    +0.112 A 
ATOM     10  C   LIG    1       26.739 -15.286   3.665  0.00  0.00    +0.056 A 
ATOM     11  C   LIG    1       23.175 -16.337   4.115  0.00  0.00    +0.026 A 
BRANCH   7  12
ATOM     12  O   LIG    1       28.809 -13.985   3.446  0.00  0.00    -0.495 OA
ATOM     13  C   LIG    1       29.384 -12.703   3.677  0.00  0.00    +0.277 C 
ENDBRANCH   7  12
ENDBRANCH   1   2
BRANCH   1  17
ATOM     14  C   LIG    1       24.580 -21.235   5.887  0.00  0.00    +0.028 C 
ATOM     15  C   LIG    1       24.160 -21.571   4.436  0.00  0.00    -0.000 C 
ATOM     16  C   LIG    1       24.694 -20.484   3.477  0.00  0.00    +0.026 C 
ATOM     17  C   LIG    1       24.103 -19.102   3.844  0.00  0.00    +0.090 C 
ATOM     18  N   LIG    1       23.258 -19.217   5.095  0.00  0.00    -0.296 NA
ATOM     19  C   LIG    1       22.120 -20.124   4.768  0.00  0.00    +0.085 C 
ATOM     20  C   LIG    1       22.615 -21.536   4.402  0.00  0.00    +0.019 C 
ATOM     21  C   LIG    1       23.966 -19.856   6.238  0.00  0.00    +0.092 C 
BRANCH  14  23
ATOM     22  C   LIG    1       26.729 -20.473   6.982  0.00  0.00    +0.004 C 
ATOM     23  C   LIG    1       26.074 -21.257   6.118  0.00  0.00    -0.029 C 
ENDBRANCH  14  23
ENDBRANCH   1  17
BRANCH   1  24
ATOM     24  O   LIG    1       25.919 -17.921   2.628  0.00  0.00    -0.386 OA
ATOM     25  H   LIG    1       26.778 -17.541   2.848  0.00  0.00    +0.210 HD
ENDBRANCH   1  24
TORSDOF 5
ENDMDL
