MODEL 1
REMARK VINA RESULT:      -6.6      0.000      0.000
REMARK  Name = *****
REMARK                            x       y       z     vdW  Elec       q    Type
REMARK                         _______ _______ _______ _____ _____    ______ ____
ROOT
ATOM      1  C   LIG    1       21.870 -32.151  11.501  0.00  0.00    +0.134 C 
ATOM      2  C   LIG    1       21.812 -30.978  10.505  0.00  0.00    +0.079 C 
ATOM      3  C   LIG    1       22.908 -29.920  10.671  0.00  0.00    +0.158 C 
ATOM      4  C   LIG    1       23.771 -30.113  11.905  0.00  0.00    +0.030 A 
ATOM      5  C   LIG    1       24.124 -31.399  12.358  0.00  0.00    +0.007 A 
ATOM      6  C   LIG    1       25.275 -31.556  13.162  0.00  0.00    +0.132 A 
ATOM      7  C   LIG    1       25.943 -30.434  13.670  0.00  0.00    +0.078 A 
ATOM      8  C   LIG    1       27.273 -30.520  14.325  0.00  0.00    +0.198 C 
ATOM      9  O   LIG    1       27.776 -31.621  14.534  0.00  0.00    -0.286 OA
ATOM     10  C   LIG    1       27.996 -29.269  14.675  0.00  0.00    +0.037 A 
ATOM     11  C   LIG    1       27.306 -28.054  14.680  0.00  0.00    +0.075 A 
ATOM     12  C   LIG    1       27.929 -26.880  15.139  0.00  0.00    +0.132 A 
ATOM     13  C   LIG    1       29.277 -26.913  15.497  0.00  0.00    +0.046 A 
ATOM     14  C   LIG    1       29.989 -28.116  15.433  0.00  0.00    +0.004 A 
ATOM     15  C   LIG    1       25.926 -28.010  14.154  0.00  0.00    +0.202 C 
ATOM     16  O   LIG    1       25.217 -27.010  14.189  0.00  0.00    -0.286 OA
ATOM     17  C   LIG    1       29.347 -29.298  15.049  0.00  0.00    +0.012 A 
ATOM     18  C   LIG    1       25.364 -29.186  13.485  0.00  0.00    +0.078 A 
ATOM     19  C   LIG    1       24.308 -29.020  12.572  0.00  0.00    +0.135 A 
ATOM     20  C   LIG    1       23.314 -32.569  11.857  0.00  0.00    +0.082 C 
ENDROOT
BRANCH   1  21
ATOM     21  O   LIG    1       21.252 -33.264  10.844  0.00  0.00    -0.381 OA
ATOM     22  H   LIG    1       20.285 -33.165  10.909  0.00  0.00    +0.211 HD
ENDBRANCH   1  21
BRANCH  19  23
ATOM     23  O   LIG    1       23.835 -27.785  12.211  0.00  0.00    -0.506 OA
ATOM     24  H   LIG    1       24.344 -27.474  11.424  0.00  0.00    +0.292 HD
ENDBRANCH  19  23
BRANCH   6  25
ATOM     25  O   LIG    1       25.754 -32.828  13.339  0.00  0.00    -0.506 OA
ATOM     26  H   LIG    1       25.396 -33.406  12.626  0.00  0.00    +0.292 HD
ENDBRANCH   6  25
BRANCH  12  27
ATOM     27  O   LIG    1       27.129 -25.794  15.338  0.00  0.00    -0.494 OA
ATOM     28  C   LIG    1       27.631 -24.508  15.023  0.00  0.00    +0.277 C 
ENDBRANCH  12  27
BRANCH   1  29
ATOM     29  C   LIG    1       21.110 -31.818  12.813  0.00  0.00    +0.202 C 
ATOM     30  O   LIG    1       21.247 -32.492  13.839  0.00  0.00    -0.291 OA
BRANCH  29  31
ATOM     31  C   LIG    1       20.214 -30.588  12.818  0.00  0.00    +0.309 C 
BRANCH  31  32
ATOM     32  O   LIG    1       20.807 -29.615  13.688  0.00  0.00    -0.457 OA
BRANCH  32  33
ATOM     33  C   LIG    1       20.422 -28.334  13.494  0.00  0.00    +0.307 C 
ATOM     34  O   LIG    1       21.113 -27.468  12.875  0.00  0.00    -0.251 OA
BRANCH  33  35
ATOM     35  C   LIG    1       19.072 -28.088  14.079  0.00  0.00    +0.120 C 
BRANCH  35  36
ATOM     36  C   LIG    1       18.583 -26.636  14.001  0.00  0.00    +0.011 C 
BRANCH  36  38
ATOM     37  C   LIG    1       16.102 -27.329  14.238  0.00  0.00    +0.004 C 
ATOM     38  C   LIG    1       17.194 -26.323  14.572  0.00  0.00    -0.003 C 
ENDBRANCH  36  38
ENDBRANCH  35  36
ENDBRANCH  33  35
ENDBRANCH  32  33
ENDBRANCH  31  32
ENDBRANCH  29  31
ENDBRANCH   1  29
BRANCH   3  39
ATOM     39  O   LIG    1       23.661 -29.667   9.446  0.00  0.00    -0.343 OA
BRANCH  39  40
ATOM     40  C   LIG    1       24.837 -30.429   9.146  0.00  0.00    +0.253 C 
ATOM     41  O   LIG    1       24.562 -31.614   8.355  0.00  0.00    -0.346 OA
ATOM     42  C   LIG    1       24.112 -31.295   7.035  0.00  0.00    +0.148 C 
ATOM     43  C   LIG    1       23.587 -32.504   6.292  0.00  0.00    +0.040 C 
ATOM     44  C   LIG    1       25.098 -30.482   6.178  0.00  0.00    +0.163 C 
ATOM     45  C   LIG    1       25.484 -29.247   6.951  0.00  0.00    +0.109 C 
ATOM     46  C   LIG    1       25.882 -29.643   8.377  0.00  0.00    +0.086 C 
BRANCH  45  47
ATOM     47  N   LIG    1       24.585 -28.087   6.769  0.00  0.00    -0.302 N 
ATOM     48  H   LIG    1       23.743 -28.163   7.313  0.00  0.00    +0.149 HD
ATOM     49  C   LIG    1       24.602 -26.842   6.178  0.00  0.00    +0.318 C 
ATOM     50  O   LIG    1       23.649 -26.112   6.500  0.00  0.00    -0.266 OA
BRANCH  49  51
ATOM     51  C   LIG    1       25.691 -26.291   5.237  0.00  0.00    +0.469 C 
ATOM     52  F   LIG    1       25.213 -25.404   4.318  0.00  0.00    -0.162 F 
ATOM     53  F   LIG    1       26.322 -27.243   4.503  0.00  0.00    -0.162 F 
ATOM     54  F   LIG    1       26.640 -25.600   5.928  0.00  0.00    -0.162 F 
ENDBRANCH  49  51
ENDBRANCH  45  47
BRANCH  44  55
ATOM     55  O   LIG    1       26.276 -31.222   5.857  0.00  0.00    -0.387 OA
ATOM     56  H   LIG    1       26.728 -31.407   6.701  0.00  0.00    +0.210 HD
ENDBRANCH  44  55
ENDBRANCH  39  40
ENDBRANCH   3  39
TORSDOF 16
ENDMDL
MODEL 2
REMARK VINA RESULT:      -5.5      1.492      2.067
REMARK  Name = *****
REMARK                            x       y       z     vdW  Elec       q    Type
REMARK                         _______ _______ _______ _____ _____    ______ ____
ROOT
ATOM      1  C   LIG    1       22.367 -32.433  11.420  0.00  0.00    +0.134 C 
ATOM      2  C   LIG    1       22.186 -31.275  10.422  0.00  0.00    +0.079 C 
ATOM      3  C   LIG    1       23.150 -30.097  10.600  0.00  0.00    +0.158 C 
ATOM      4  C   LIG    1       24.014 -30.189  11.844  0.00  0.00    +0.030 A 
ATOM      5  C   LIG    1       24.508 -31.426  12.303  0.00  0.00    +0.007 A 
ATOM      6  C   LIG    1       25.660 -31.448  13.121  0.00  0.00    +0.132 A 
ATOM      7  C   LIG    1       26.187 -30.257  13.637  0.00  0.00    +0.078 A 
ATOM      8  C   LIG    1       27.510 -30.188  14.307  0.00  0.00    +0.198 C 
ATOM      9  O   LIG    1       28.134 -31.224  14.524  0.00  0.00    -0.286 OA
ATOM     10  C   LIG    1       28.079 -28.862  14.664  0.00  0.00    +0.037 A 
ATOM     11  C   LIG    1       27.253 -27.736  14.660  0.00  0.00    +0.075 A 
ATOM     12  C   LIG    1       27.731 -26.497  15.125  0.00  0.00    +0.132 A 
ATOM     13  C   LIG    1       29.069 -26.374  15.500  0.00  0.00    +0.046 A 
ATOM     14  C   LIG    1       29.915 -27.486  15.446  0.00  0.00    +0.004 A 
ATOM     15  C   LIG    1       25.884 -27.851  14.116  0.00  0.00    +0.202 C 
ATOM     16  O   LIG    1       25.063 -26.940  14.142  0.00  0.00    -0.286 OA
ATOM     17  C   LIG    1       29.419 -28.735  15.055  0.00  0.00    +0.012 A 
ATOM     18  C   LIG    1       25.470 -29.084  13.443  0.00  0.00    +0.078 A 
ATOM     19  C   LIG    1       24.413 -29.041  12.516  0.00  0.00    +0.135 A 
ATOM     20  C   LIG    1       23.845 -32.681  11.794  0.00  0.00    +0.082 C 
ENDROOT
BRANCH   1  21
ATOM     21  O   LIG    1       21.890 -33.610  10.757  0.00  0.00    -0.381 OA
ATOM     22  H   LIG    1       21.591 -34.246  11.432  0.00  0.00    +0.211 HD
ENDBRANCH   1  21
BRANCH  19  23
ATOM     23  O   LIG    1       23.805 -27.869  12.149  0.00  0.00    -0.506 OA
ATOM     24  H   LIG    1       22.841 -28.045  12.023  0.00  0.00    +0.292 HD
ENDBRANCH  19  23
BRANCH   6  25
ATOM     25  O   LIG    1       26.280 -32.657  13.306  0.00  0.00    -0.506 OA
ATOM     26  H   LIG    1       26.405 -32.808  14.271  0.00  0.00    +0.292 HD
ENDBRANCH   6  25
BRANCH  12  27
ATOM     27  O   LIG    1       26.808 -25.511  15.313  0.00  0.00    -0.494 OA
ATOM     28  C   LIG    1       27.212 -24.161  15.176  0.00  0.00    +0.277 C 
ENDBRANCH  12  27
BRANCH   1  29
ATOM     29  C   LIG    1       21.557 -32.191  12.722  0.00  0.00    +0.202 C 
ATOM     30  O   LIG    1       22.085 -31.758  13.751  0.00  0.00    -0.291 OA
BRANCH  29  31
ATOM     31  C   LIG    1       20.059 -32.455  12.682  0.00  0.00    +0.309 C 
BRANCH  31  32
ATOM     32  O   LIG    1       19.440 -31.634  13.681  0.00  0.00    -0.457 OA
BRANCH  32  33
ATOM     33  C   LIG    1       18.263 -31.067  13.335  0.00  0.00    +0.307 C 
ATOM     34  O   LIG    1       17.842 -29.961  13.794  0.00  0.00    -0.251 OA
BRANCH  33  35
ATOM     35  C   LIG    1       17.545 -31.899  12.327  0.00  0.00    +0.120 C 
BRANCH  35  36
ATOM     36  C   LIG    1       17.275 -31.209  10.984  0.00  0.00    +0.011 C 
BRANCH  36  38
ATOM     37  C   LIG    1       18.135 -33.037   9.369  0.00  0.00    +0.004 C 
ATOM     38  C   LIG    1       18.179 -31.579   9.801  0.00  0.00    -0.003 C 
ENDBRANCH  36  38
ENDBRANCH  35  36
ENDBRANCH  33  35
ENDBRANCH  32  33
ENDBRANCH  31  32
ENDBRANCH  29  31
ENDBRANCH   1  29
BRANCH   3  39
ATOM     39  O   LIG    1       23.884 -29.758   9.383  0.00  0.00    -0.343 OA
BRANCH  39  40
ATOM     40  C   LIG    1       25.032 -30.522   8.992  0.00  0.00    +0.253 C 
ATOM     41  O   LIG    1       24.695 -31.694   8.207  0.00  0.00    -0.346 OA
ATOM     42  C   LIG    1       24.156 -31.356   6.926  0.00  0.00    +0.148 C 
ATOM     43  C   LIG    1       23.573 -32.552   6.206  0.00  0.00    +0.040 C 
ATOM     44  C   LIG    1       25.084 -30.536   6.012  0.00  0.00    +0.163 C 
ATOM     45  C   LIG    1       25.530 -29.313   6.772  0.00  0.00    +0.109 C 
ATOM     46  C   LIG    1       26.025 -29.730   8.162  0.00  0.00    +0.086 C 
BRANCH  45  47
ATOM     47  N   LIG    1       24.627 -28.146   6.669  0.00  0.00    -0.302 N 
ATOM     48  H   LIG    1       23.775 -28.271   7.189  0.00  0.00    +0.149 HD
ATOM     49  C   LIG    1       24.646 -26.857   6.183  0.00  0.00    +0.318 C 
ATOM     50  O   LIG    1       23.683 -26.161   6.545  0.00  0.00    -0.266 OA
BRANCH  49  51
ATOM     51  C   LIG    1       25.749 -26.226   5.311  0.00  0.00    +0.469 C 
ATOM     52  F   LIG    1       25.855 -26.797   4.077  0.00  0.00    -0.162 F 
ATOM     53  F   LIG    1       26.995 -26.314   5.842  0.00  0.00    -0.162 F 
ATOM     54  F   LIG    1       25.492 -24.910   5.064  0.00  0.00    -0.162 F 
ENDBRANCH  49  51
ENDBRANCH  45  47
BRANCH  44  55
ATOM     55  O   LIG    1       26.232 -31.277   5.600  0.00  0.00    -0.387 OA
ATOM     56  H   LIG    1       26.831 -30.643   5.163  0.00  0.00    +0.210 HD
ENDBRANCH  44  55
ENDBRANCH  39  40
ENDBRANCH   3  39
TORSDOF 16
ENDMDL
MODEL 3
REMARK VINA RESULT:      -5.3      2.518      7.412
REMARK  Name = *****
REMARK                            x       y       z     vdW  Elec       q    Type
REMARK                         _______ _______ _______ _____ _____    ______ ____
ROOT
ATOM      1  C   LIG    1       28.473 -29.522  12.119  0.00  0.00    +0.134 C 
ATOM      2  C   LIG    1       27.955 -30.536  11.083  0.00  0.00    +0.079 C 
ATOM      3  C   LIG    1       26.434 -30.567  10.898  0.00  0.00    +0.158 C 
ATOM      4  C   LIG    1       25.672 -29.714  11.896  0.00  0.00    +0.030 A 
ATOM      5  C   LIG    1       26.184 -28.480  12.344  0.00  0.00    +0.007 A 
ATOM      6  C   LIG    1       25.293 -27.508  12.853  0.00  0.00    +0.132 A 
ATOM      7  C   LIG    1       23.953 -27.834  13.099  0.00  0.00    +0.078 A 
ATOM      8  C   LIG    1       22.923 -26.812  13.415  0.00  0.00    +0.198 C 
ATOM      9  O   LIG    1       23.260 -25.642  13.577  0.00  0.00    -0.286 OA
ATOM     10  C   LIG    1       21.494 -27.214  13.484  0.00  0.00    +0.037 A 
ATOM     11  C   LIG    1       21.163 -28.569  13.566  0.00  0.00    +0.075 A 
ATOM     12  C   LIG    1       19.830 -28.969  13.770  0.00  0.00    +0.132 A 
ATOM     13  C   LIG    1       18.820 -28.007  13.792  0.00  0.00    +0.046 A 
ATOM     14  C   LIG    1       19.141 -26.653  13.647  0.00  0.00    +0.004 A 
ATOM     15  C   LIG    1       22.227 -29.580  13.389  0.00  0.00    +0.202 C 
ATOM     16  O   LIG    1       22.047 -30.786  13.521  0.00  0.00    -0.286 OA
ATOM     17  C   LIG    1       20.475 -26.251  13.519  0.00  0.00    +0.012 A 
ATOM     18  C   LIG    1       23.566 -29.161  12.967  0.00  0.00    +0.078 A 
ATOM     19  C   LIG    1       24.408 -30.088  12.328  0.00  0.00    +0.135 A 
ATOM     20  C   LIG    1       27.654 -28.212  12.144  0.00  0.00    +0.082 C 
ENDROOT
BRANCH   1  21
ATOM     21  O   LIG    1       29.806 -29.185  11.718  0.00  0.00    -0.381 OA
ATOM     22  H   LIG    1       29.757 -28.586  10.951  0.00  0.00    +0.211 HD
ENDBRANCH   1  21
BRANCH  19  23
ATOM     23  O   LIG    1       23.994 -31.354  12.002  0.00  0.00    -0.506 OA
ATOM     24  H   LIG    1       23.379 -31.292  11.232  0.00  0.00    +0.292 HD
ENDBRANCH  19  23
BRANCH   6  25
ATOM     25  O   LIG    1       25.769 -26.232  13.003  0.00  0.00    -0.506 OA
ATOM     26  H   LIG    1       26.414 -26.217  13.748  0.00  0.00    +0.292 HD
ENDBRANCH   6  25
BRANCH  12  27
ATOM     27  O   LIG    1       19.620 -30.281  14.076  0.00  0.00    -0.494 OA
ATOM     28  C   LIG    1       18.733 -31.037  13.271  0.00  0.00    +0.277 C 
ENDBRANCH  12  27
BRANCH   1  29
ATOM     29  C   LIG    1       28.485 -30.129  13.548  0.00  0.00    +0.202 C 
ATOM     30  O   LIG    1       27.675 -30.992  13.901  0.00  0.00    -0.291 OA
BRANCH  29  31
ATOM     31  C   LIG    1       29.573 -29.663  14.505  0.00  0.00    +0.309 C 
BRANCH  31  32
ATOM     32  O   LIG    1       28.960 -28.827  15.496  0.00  0.00    -0.457 OA
BRANCH  32  33
ATOM     33  C   LIG    1       29.081 -27.495  15.302  0.00  0.00    +0.307 C 
ATOM     34  O   LIG    1       28.113 -26.727  15.012  0.00  0.00    -0.251 OA
BRANCH  33  35
ATOM     35  C   LIG    1       30.491 -27.052  15.500  0.00  0.00    +0.120 C 
BRANCH  35  36
ATOM     36  C   LIG    1       31.534 -28.177  15.500  0.00  0.00    +0.011 C 
BRANCH  36  38
ATOM     37  C   LIG    1       32.972 -28.281  13.352  0.00  0.00    +0.004 C 
ATOM     38  C   LIG    1       32.881 -27.896  14.822  0.00  0.00    -0.003 C 
ENDBRANCH  36  38
ENDBRANCH  35  36
ENDBRANCH  33  35
ENDBRANCH  32  33
ENDBRANCH  31  32
ENDBRANCH  29  31
ENDBRANCH   1  29
BRANCH   3  39
ATOM     39  O   LIG    1       26.014 -30.387   9.510  0.00  0.00    -0.343 OA
BRANCH  39  40
ATOM     40  C   LIG    1       24.624 -30.412   9.164  0.00  0.00    +0.253 C 
ATOM     41  O   LIG    1       24.208 -29.257   8.392  0.00  0.00    -0.346 OA
ATOM     42  C   LIG    1       24.801 -29.228   7.091  0.00  0.00    +0.148 C 
ATOM     43  C   LIG    1       24.576 -27.914   6.378  0.00  0.00    +0.040 C 
ATOM     44  C   LIG    1       24.475 -30.431   6.188  0.00  0.00    +0.163 C 
ATOM     45  C   LIG    1       24.830 -31.691   6.937  0.00  0.00    +0.109 C 
ATOM     46  C   LIG    1       24.231 -31.629   8.347  0.00  0.00    +0.086 C 
BRANCH  45  47
ATOM     47  N   LIG    1       26.232 -32.136   6.788  0.00  0.00    -0.302 N 
ATOM     48  H   LIG    1       26.749 -32.076   7.649  0.00  0.00    +0.149 HD
ATOM     49  C   LIG    1       27.034 -32.748   5.849  0.00  0.00    +0.318 C 
ATOM     50  O   LIG    1       28.131 -33.130   6.288  0.00  0.00    -0.266 OA
BRANCH  49  51
ATOM     51  C   LIG    1       26.667 -33.032   4.380  0.00  0.00    +0.469 C 
ATOM     52  F   LIG    1       27.575 -33.822   3.739  0.00  0.00    -0.162 F 
ATOM     53  F   LIG    1       26.571 -31.920   3.607  0.00  0.00    -0.162 F 
ATOM     54  F   LIG    1       25.488 -33.709   4.286  0.00  0.00    -0.162 F 
ENDBRANCH  49  51
ENDBRANCH  45  47
BRANCH  44  55
ATOM     55  O   LIG    1       23.097 -30.476   5.821  0.00  0.00    -0.387 OA
ATOM     56  H   LIG    1       22.991 -29.876   5.059  0.00  0.00    +0.210 HD
ENDBRANCH  44  55
ENDBRANCH  39  40
ENDBRANCH   3  39
TORSDOF 16
ENDMDL
MODEL 4
REMARK VINA RESULT:      -5.0      3.247      8.201
REMARK  Name = *****
REMARK                            x       y       z     vdW  Elec       q    Type
REMARK                         _______ _______ _______ _____ _____    ______ ____
ROOT
ATOM      1  C   LIG    1       27.065 -28.489  12.934  0.00  0.00    +0.134 C 
ATOM      2  C   LIG    1       27.152 -29.874  12.266  0.00  0.00    +0.079 C 
ATOM      3  C   LIG    1       25.831 -30.646  12.180  0.00  0.00    +0.158 C 
ATOM      4  C   LIG    1       24.683 -29.991  12.926  0.00  0.00    +0.030 A 
ATOM      5  C   LIG    1       24.541 -28.590  12.968  0.00  0.00    +0.007 A 
ATOM      6  C   LIG    1       23.268 -28.033  13.220  0.00  0.00    +0.132 A 
ATOM      7  C   LIG    1       22.203 -28.849  13.622  0.00  0.00    +0.078 A 
ATOM      8  C   LIG    1       20.800 -28.368  13.682  0.00  0.00    +0.198 C 
ATOM      9  O   LIG    1       20.557 -27.180  13.478  0.00  0.00    -0.286 OA
ATOM     10  C   LIG    1       19.705 -29.340  13.942  0.00  0.00    +0.037 A 
ATOM     11  C   LIG    1       20.016 -30.610  14.432  0.00  0.00    +0.075 A 
ATOM     12  C   LIG    1       18.994 -31.498  14.815  0.00  0.00    +0.132 A 
ATOM     13  C   LIG    1       17.661 -31.141  14.610  0.00  0.00    +0.046 A 
ATOM     14  C   LIG    1       17.348 -29.893  14.060  0.00  0.00    +0.004 A 
ATOM     15  C   LIG    1       21.431 -31.028  14.499  0.00  0.00    +0.202 C 
ATOM     16  O   LIG    1       21.804 -32.090  14.985  0.00  0.00    -0.286 OA
ATOM     17  C   LIG    1       18.363 -28.981  13.750  0.00  0.00    +0.012 A 
ATOM     18  C   LIG    1       22.469 -30.183  13.902  0.00  0.00    +0.078 A 
ATOM     19  C   LIG    1       23.690 -30.762  13.516  0.00  0.00    +0.135 A 
ATOM     20  C   LIG    1       25.745 -27.750  12.620  0.00  0.00    +0.082 C 
ENDROOT
BRANCH   1  21
ATOM     21  O   LIG    1       28.132 -27.710  12.380  0.00  0.00    -0.381 OA
ATOM     22  H   LIG    1       28.133 -27.828  11.413  0.00  0.00    +0.211 HD
ENDBRANCH   1  21
BRANCH  19  23
ATOM     23  O   LIG    1       23.922 -32.111  13.595  0.00  0.00    -0.506 OA
ATOM     24  H   LIG    1       24.893 -32.253  13.704  0.00  0.00    +0.292 HD
ENDBRANCH  19  23
BRANCH   6  25
ATOM     25  O   LIG    1       23.102 -26.696  12.967  0.00  0.00    -0.506 OA
ATOM     26  H   LIG    1       23.908 -26.354  12.515  0.00  0.00    +0.292 HD
ENDBRANCH   6  25
BRANCH  12  27
ATOM     27  O   LIG    1       19.372 -32.615  15.500  0.00  0.00    -0.494 OA
ATOM     28  C   LIG    1       18.622 -33.804  15.335  0.00  0.00    +0.277 C 
ENDBRANCH  12  27
BRANCH   1  29
ATOM     29  C   LIG    1       27.225 -28.592  14.474  0.00  0.00    +0.202 C 
ATOM     30  O   LIG    1       26.578 -27.881  15.250  0.00  0.00    -0.291 OA
BRANCH  29  31
ATOM     31  C   LIG    1       28.178 -29.647  15.017  0.00  0.00    +0.309 C 
BRANCH  31  32
ATOM     32  O   LIG    1       29.349 -28.976  15.500  0.00  0.00    -0.457 OA
BRANCH  32  33
ATOM     33  C   LIG    1       30.528 -29.586  15.246  0.00  0.00    +0.307 C 
ATOM     34  O   LIG    1       30.735 -30.828  15.400  0.00  0.00    -0.251 OA
BRANCH  33  35
ATOM     35  C   LIG    1       31.536 -28.610  14.739  0.00  0.00    +0.120 C 
BRANCH  35  36
ATOM     36  C   LIG    1       32.847 -29.229  14.237  0.00  0.00    +0.011 C 
BRANCH  36  38
ATOM     37  C   LIG    1       31.912 -29.358  11.828  0.00  0.00    +0.004 C 
ATOM     38  C   LIG    1       32.814 -29.967  12.892  0.00  0.00    -0.003 C 
ENDBRANCH  36  38
ENDBRANCH  35  36
ENDBRANCH  33  35
ENDBRANCH  32  33
ENDBRANCH  31  32
ENDBRANCH  29  31
ENDBRANCH   1  29
BRANCH   3  39
ATOM     39  O   LIG    1       25.498 -31.078  10.825  0.00  0.00    -0.343 OA
BRANCH  39  40
ATOM     40  C   LIG    1       25.262 -30.112   9.793  0.00  0.00    +0.253 C 
ATOM     41  O   LIG    1       26.008 -30.382   8.578  0.00  0.00    -0.346 OA
ATOM     42  C   LIG    1       25.570 -31.576   7.925  0.00  0.00    +0.148 C 
ATOM     43  C   LIG    1       26.496 -32.000   6.806  0.00  0.00    +0.040 C 
ATOM     44  C   LIG    1       24.096 -31.585   7.481  0.00  0.00    +0.163 C 
ATOM     45  C   LIG    1       23.243 -31.258   8.679  0.00  0.00    +0.109 C 
ATOM     46  C   LIG    1       23.806 -30.017   9.380  0.00  0.00    +0.086 C 
BRANCH  45  47
ATOM     47  N   LIG    1       22.855 -32.419   9.510  0.00  0.00    -0.302 N 
ATOM     48  H   LIG    1       23.537 -33.157   9.482  0.00  0.00    +0.149 HD
ATOM     49  C   LIG    1       21.893 -32.759  10.437  0.00  0.00    +0.318 C 
ATOM     50  O   LIG    1       22.125 -33.817  11.046  0.00  0.00    -0.266 OA
BRANCH  49  51
ATOM     51  C   LIG    1       20.642 -31.936  10.799  0.00  0.00    +0.469 C 
ATOM     52  F   LIG    1       20.922 -30.645  11.133  0.00  0.00    -0.162 F 
ATOM     53  F   LIG    1       19.945 -32.424  11.857  0.00  0.00    -0.162 F 
ATOM     54  F   LIG    1       19.787 -31.845   9.742  0.00  0.00    -0.162 F 
ENDBRANCH  49  51
ENDBRANCH  45  47
BRANCH  44  55
ATOM     55  O   LIG    1       23.835 -30.637   6.446  0.00  0.00    -0.387 OA
ATOM     56  H   LIG    1       24.680 -30.494   5.980  0.00  0.00    +0.210 HD
ENDBRANCH  44  55
ENDBRANCH  39  40
ENDBRANCH   3  39
TORSDOF 16
ENDMDL
