MODEL 1
REMARK VINA RESULT:      -5.3      0.000      0.000
REMARK  Name = *****
REMARK                            x       y       z     vdW  Elec       q    Type
REMARK                         _______ _______ _______ _____ _____    ______ ____
ROOT
ATOM      1  C   LIG    1       25.497 -18.834   4.133  0.00  0.00    -0.015 A 
ATOM      2  C   LIG    1       24.111 -18.946   3.960  0.00  0.00    +0.028 A 
ATOM      3  C   LIG    1       23.364 -19.866   4.708  0.00  0.00    +0.063 A 
ATOM      4 CL   LIG    1       21.654 -19.926   4.452  0.00  0.00    -0.082 Cl
ATOM      5  C   LIG    1       23.984 -20.739   5.623  0.00  0.00    +0.062 A 
ATOM      6  C   LIG    1       25.364 -20.589   5.821  0.00  0.00    +0.063 A 
ATOM      7 CL   LIG    1       26.202 -21.572   6.976  0.00  0.00    -0.082 Cl
ATOM      8  C   LIG    1       26.113 -19.668   5.081  0.00  0.00    +0.028 A 
ENDROOT
BRANCH   5   9
ATOM      9  N   LIG    1       23.212 -21.572   6.468  0.00  0.00    -0.356 N 
ATOM     10  H   LIG    1       23.226 -21.280   7.440  0.00  0.00    +0.142 HD
ATOM     11  H   LIG    1       22.273 -21.733   6.106  0.00  0.00    +0.142 HD
ENDBRANCH   5   9
BRANCH   1  12
ATOM     12  C   LIG    1       26.304 -17.844   3.310  0.00  0.00    +0.158 C 
BRANCH  12  13
ATOM     13  O   LIG    1       27.611 -17.654   3.867  0.00  0.00    -0.386 OA
ATOM     14  H   LIG    1       27.763 -16.688   3.849  0.00  0.00    +0.210 HD
ENDBRANCH  12  13
BRANCH  12  15
ATOM     15  C   LIG    1       25.629 -16.458   3.132  0.00  0.00    +0.117 C 
BRANCH  15  16
ATOM     16  N   LIG    1       26.590 -15.346   3.273  0.00  0.00    -0.309 NA
ATOM     17  H   LIG    1       27.315 -15.623   3.941  0.00  0.00    +0.122 HD
BRANCH  16  19
ATOM     18  C   LIG    1       26.101 -13.073   2.546  0.00  0.00    +0.027 C 
ATOM     19  C   LIG    1       25.999 -14.065   3.723  0.00  0.00    +0.011 C 
ATOM     20  C   LIG    1       24.513 -14.235   4.078  0.00  0.00    +0.027 C 
ATOM     21  C   LIG    1       26.764 -13.465   4.916  0.00  0.00    +0.027 C 
ENDBRANCH  16  19
ENDBRANCH  15  16
ENDBRANCH  12  15
ENDBRANCH   1  12
TORSDOF 6
ENDMDL
MODEL 2
REMARK VINA RESULT:      -4.2      1.944      2.362
REMARK  Name = *****
REMARK                            x       y       z     vdW  Elec       q    Type
REMARK                         _______ _______ _______ _____ _____    ______ ____
ROOT
ATOM      1  C   LIG    1       26.907 -17.085   3.764  0.00  0.00    -0.015 A 
ATOM      2  C   LIG    1       25.658 -17.604   3.398  0.00  0.00    +0.028 A 
ATOM      3  C   LIG    1       25.275 -18.895   3.784  0.00  0.00    +0.063 A 
ATOM      4 CL   LIG    1       23.706 -19.453   3.314  0.00  0.00    -0.082 Cl
ATOM      5  C   LIG    1       26.146 -19.731   4.509  0.00  0.00    +0.062 A 
ATOM      6  C   LIG    1       27.375 -19.188   4.907  0.00  0.00    +0.063 A 
ATOM      7 CL   LIG    1       28.484 -20.117   5.860  0.00  0.00    -0.082 Cl
ATOM      8  C   LIG    1       27.760 -17.896   4.529  0.00  0.00    +0.028 A 
ENDROOT
BRANCH   5   9
ATOM      9  N   LIG    1       25.705 -20.981   5.006  0.00  0.00    -0.356 N 
ATOM     10  H   LIG    1       24.936 -21.376   4.474  0.00  0.00    +0.142 HD
ATOM     11  H   LIG    1       26.472 -21.635   5.157  0.00  0.00    +0.142 HD
ENDBRANCH   5   9
BRANCH   1  12
ATOM     12  C   LIG    1       27.324 -15.688   3.333  0.00  0.00    +0.158 C 
BRANCH  12  13
ATOM     13  O   LIG    1       28.066 -15.029   4.366  0.00  0.00    -0.386 OA
ATOM     14  H   LIG    1       28.818 -14.599   3.911  0.00  0.00    +0.210 HD
ENDBRANCH  12  13
BRANCH  12  15
ATOM     15  C   LIG    1       26.147 -14.774   2.899  0.00  0.00    +0.117 C 
BRANCH  15  16
ATOM     16  N   LIG    1       25.832 -13.750   3.916  0.00  0.00    -0.309 NA
ATOM     17  H   LIG    1       26.124 -14.099   4.833  0.00  0.00    +0.122 HD
BRANCH  16  19
ATOM     18  C   LIG    1       23.995 -12.846   2.595  0.00  0.00    +0.027 C 
ATOM     19  C   LIG    1       24.404 -13.365   3.990  0.00  0.00    +0.011 C 
ATOM     20  C   LIG    1       23.520 -14.576   4.328  0.00  0.00    +0.027 C 
ATOM     21  C   LIG    1       24.164 -12.234   5.005  0.00  0.00    +0.027 C 
ENDBRANCH  16  19
ENDBRANCH  15  16
ENDBRANCH  12  15
ENDBRANCH   1  12
TORSDOF 6
ENDMDL
MODEL 3
REMARK VINA RESULT:      -4.2      1.941      3.195
REMARK  Name = *****
REMARK                            x       y       z     vdW  Elec       q    Type
REMARK                         _______ _______ _______ _____ _____    ______ ____
ROOT
ATOM      1  C   LIG    1       26.912 -17.150   3.771  0.00  0.00    -0.015 A 
ATOM      2  C   LIG    1       27.763 -17.943   4.553  0.00  0.00    +0.028 A 
ATOM      3  C   LIG    1       27.382 -19.231   4.952  0.00  0.00    +0.063 A 
ATOM      4 CL   LIG    1       28.500 -20.155   5.895  0.00  0.00    -0.082 Cl
ATOM      5  C   LIG    1       26.117 -19.755   4.622  0.00  0.00    +0.062 A 
ATOM      6  C   LIG    1       25.291 -18.971   3.803  0.00  0.00    +0.063 A 
ATOM      7 CL   LIG    1       23.745 -19.560   3.289  0.00  0.00    -0.082 Cl
ATOM      8  C   LIG    1       25.670 -17.687   3.398  0.00  0.00    +0.028 A 
ENDROOT
BRANCH   5   9
ATOM      9  N   LIG    1       25.791 -21.100   4.914  0.00  0.00    -0.356 N 
ATOM     10  H   LIG    1       25.009 -21.450   4.368  0.00  0.00    +0.142 HD
ATOM     11  H   LIG    1       26.604 -21.714   4.897  0.00  0.00    +0.142 HD
ENDBRANCH   5   9
BRANCH   1  12
ATOM     12  C   LIG    1       27.325 -15.749   3.352  0.00  0.00    +0.158 C 
BRANCH  12  13
ATOM     13  O   LIG    1       28.041 -15.086   4.401  0.00  0.00    -0.386 OA
ATOM     14  H   LIG    1       28.040 -15.712   5.152  0.00  0.00    +0.210 HD
ENDBRANCH  12  13
BRANCH  12  15
ATOM     15  C   LIG    1       26.149 -14.844   2.898  0.00  0.00    +0.117 C 
BRANCH  15  16
ATOM     16  N   LIG    1       25.865 -13.767   3.868  0.00  0.00    -0.309 NA
ATOM     17  H   LIG    1       26.178 -14.071   4.795  0.00  0.00    +0.122 HD
BRANCH  16  19
ATOM     18  C   LIG    1       24.025 -12.836   2.572  0.00  0.00    +0.027 C 
ATOM     19  C   LIG    1       24.442 -13.368   3.959  0.00  0.00    +0.011 C 
ATOM     20  C   LIG    1       23.549 -14.573   4.297  0.00  0.00    +0.027 C 
ATOM     21  C   LIG    1       24.223 -12.242   4.984  0.00  0.00    +0.027 C 
ENDBRANCH  16  19
ENDBRANCH  15  16
ENDBRANCH  12  15
ENDBRANCH   1  12
TORSDOF 6
ENDMDL
MODEL 4
REMARK VINA RESULT:      -3.9      3.568      6.749
REMARK  Name = *****
REMARK                            x       y       z     vdW  Elec       q    Type
REMARK                         _______ _______ _______ _____ _____    ______ ____
ROOT
ATOM      1  C   LIG    1       23.692 -15.087   3.933  0.00  0.00    -0.015 A 
ATOM      2  C   LIG    1       23.466 -13.814   3.392  0.00  0.00    +0.028 A 
ATOM      3  C   LIG    1       24.537 -12.995   3.008  0.00  0.00    +0.063 A 
ATOM      4 CL   LIG    1       24.173 -11.448   2.325  0.00  0.00    -0.082 Cl
ATOM      5  C   LIG    1       25.872 -13.402   3.195  0.00  0.00    +0.062 A 
ATOM      6  C   LIG    1       26.087 -14.693   3.697  0.00  0.00    +0.063 A 
ATOM      7 CL   LIG    1       27.695 -15.306   3.897  0.00  0.00    -0.082 Cl
ATOM      8  C   LIG    1       25.021 -15.517   4.076  0.00  0.00    +0.028 A 
ENDROOT
BRANCH   5   9
ATOM      9  N   LIG    1       26.943 -12.629   2.687  0.00  0.00    -0.356 N 
ATOM     10  H   LIG    1       26.759 -11.630   2.701  0.00  0.00    +0.142 HD
ATOM     11  H   LIG    1       27.840 -12.881   3.102  0.00  0.00    +0.142 HD
ENDBRANCH   5   9
BRANCH   1  12
ATOM     12  C   LIG    1       22.528 -15.967   4.359  0.00  0.00    +0.158 C 
BRANCH  12  13
ATOM     13  O   LIG    1       22.251 -15.814   5.757  0.00  0.00    -0.386 OA
ATOM     14  H   LIG    1       21.435 -15.277   5.802  0.00  0.00    +0.210 HD
ENDBRANCH  12  13
BRANCH  12  15
ATOM     15  C   LIG    1       22.717 -17.475   4.047  0.00  0.00    +0.117 C 
BRANCH  15  16
ATOM     16  N   LIG    1       22.284 -18.336   5.166  0.00  0.00    -0.309 NA
ATOM     17  H   LIG    1       22.619 -17.926   6.043  0.00  0.00    +0.122 HD
BRANCH  16  19
ATOM     18  C   LIG    1       23.939 -19.775   4.105  0.00  0.00    +0.027 C 
ATOM     19  C   LIG    1       22.752 -19.738   5.091  0.00  0.00    +0.011 C 
ATOM     20  C   LIG    1       23.253 -20.229   6.459  0.00  0.00    +0.027 C 
ATOM     21  C   LIG    1       21.662 -20.682   4.556  0.00  0.00    +0.027 C 
ENDBRANCH  16  19
ENDBRANCH  15  16
ENDBRANCH  12  15
ENDBRANCH   1  12
TORSDOF 6
ENDMDL
MODEL 5
REMARK VINA RESULT:      -3.9      3.568      7.052
REMARK  Name = *****
REMARK                            x       y       z     vdW  Elec       q    Type
REMARK                         _______ _______ _______ _____ _____    ______ ____
ROOT
ATOM      1  C   LIG    1       23.681 -15.074   3.932  0.00  0.00    -0.015 A 
ATOM      2  C   LIG    1       25.003 -15.523   4.056  0.00  0.00    +0.028 A 
ATOM      3  C   LIG    1       26.076 -14.726   3.637  0.00  0.00    +0.063 A 
ATOM      4 CL   LIG    1       27.679 -15.344   3.848  0.00  0.00    -0.082 Cl
ATOM      5  C   LIG    1       25.864 -13.470   3.037  0.00  0.00    +0.062 A 
ATOM      6  C   LIG    1       24.542 -13.011   2.957  0.00  0.00    +0.063 A 
ATOM      7 CL   LIG    1       24.188 -11.449   2.295  0.00  0.00    -0.082 Cl
ATOM      8  C   LIG    1       23.467 -13.801   3.379  0.00  0.00    +0.028 A 
ENDROOT
BRANCH   5   9
ATOM      9  N   LIG    1       26.952 -12.617   2.737  0.00  0.00    -0.356 N 
ATOM     10  H   LIG    1       27.411 -12.845   1.859  0.00  0.00    +0.142 HD
ATOM     11  H   LIG    1       26.712 -11.630   2.824  0.00  0.00    +0.142 HD
ENDBRANCH   5   9
BRANCH   1  12
ATOM     12  C   LIG    1       22.519 -15.947   4.376  0.00  0.00    +0.158 C 
BRANCH  12  13
ATOM     13  O   LIG    1       22.270 -15.800   5.779  0.00  0.00    -0.386 OA
ATOM     14  H   LIG    1       23.152 -15.807   6.202  0.00  0.00    +0.210 HD
ENDBRANCH  12  13
BRANCH  12  15
ATOM     15  C   LIG    1       22.691 -17.455   4.052  0.00  0.00    +0.117 C 
BRANCH  15  16
ATOM     16  N   LIG    1       22.266 -18.319   5.171  0.00  0.00    -0.309 NA
ATOM     17  H   LIG    1       22.587 -17.900   6.048  0.00  0.00    +0.122 HD
BRANCH  16  19
ATOM     18  C   LIG    1       23.962 -19.729   4.137  0.00  0.00    +0.027 C 
ATOM     19  C   LIG    1       22.760 -19.713   5.105  0.00  0.00    +0.011 C 
ATOM     20  C   LIG    1       23.248 -20.194   6.481  0.00  0.00    +0.027 C 
ATOM     21  C   LIG    1       21.695 -20.677   4.554  0.00  0.00    +0.027 C 
ENDBRANCH  16  19
ENDBRANCH  15  16
ENDBRANCH  12  15
ENDBRANCH   1  12
TORSDOF 6
ENDMDL
MODEL 6
REMARK VINA RESULT:      -3.7      3.456      6.509
REMARK  Name = *****
REMARK                            x       y       z     vdW  Elec       q    Type
REMARK                         _______ _______ _______ _____ _____    ______ ____
ROOT
ATOM      1  C   LIG    1       26.693 -15.874   3.715  0.00  0.00    -0.015 A 
ATOM      2  C   LIG    1       25.539 -15.302   3.162  0.00  0.00    +0.028 A 
ATOM      3  C   LIG    1       25.512 -13.951   2.791  0.00  0.00    +0.063 A 
ATOM      4 CL   LIG    1       24.057 -13.328   2.092  0.00  0.00    -0.082 Cl
ATOM      5  C   LIG    1       26.623 -13.112   3.003  0.00  0.00    +0.062 A 
ATOM      6  C   LIG    1       27.786 -13.703   3.516  0.00  0.00    +0.063 A 
ATOM      7 CL   LIG    1       29.225 -12.765   3.748  0.00  0.00    -0.082 Cl
ATOM      8  C   LIG    1       27.820 -15.053   3.882  0.00  0.00    +0.028 A 
ENDROOT
BRANCH   5   9
ATOM      9  N   LIG    1       26.636 -11.786   2.508  0.00  0.00    -0.356 N 
ATOM     10  H   LIG    1       26.935 -11.723   1.539  0.00  0.00    +0.142 HD
ATOM     11  H   LIG    1       25.766 -11.289   2.697  0.00  0.00    +0.142 HD
ENDBRANCH   5   9
BRANCH   1  12
ATOM     12  C   LIG    1       26.714 -17.336   4.127  0.00  0.00    +0.158 C 
BRANCH  12  13
ATOM     13  O   LIG    1       28.053 -17.844   4.160  0.00  0.00    -0.386 OA
ATOM     14  H   LIG    1       28.587 -17.141   4.580  0.00  0.00    +0.210 HD
ENDBRANCH  12  13
BRANCH  12  15
ATOM     15  C   LIG    1       25.846 -18.265   3.237  0.00  0.00    +0.117 C 
BRANCH  15  16
ATOM     16  N   LIG    1       25.768 -19.639   3.773  0.00  0.00    -0.309 NA
ATOM     17  H   LIG    1       26.077 -20.291   3.047  0.00  0.00    +0.122 HD
BRANCH  16  19
ATOM     18  C   LIG    1       24.022 -21.303   3.429  0.00  0.00    +0.027 C 
ATOM     19  C   LIG    1       24.424 -20.051   4.237  0.00  0.00    +0.011 C 
ATOM     20  C   LIG    1       24.444 -20.430   5.727  0.00  0.00    +0.027 C 
ATOM     21  C   LIG    1       23.367 -18.963   3.982  0.00  0.00    +0.027 C 
ENDBRANCH  16  19
ENDBRANCH  15  16
ENDBRANCH  12  15
ENDBRANCH   1  12
TORSDOF 6
ENDMDL
MODEL 7
REMARK VINA RESULT:      -3.7      3.462      6.850
REMARK  Name = *****
REMARK                            x       y       z     vdW  Elec       q    Type
REMARK                         _______ _______ _______ _____ _____    ______ ____
ROOT
ATOM      1  C   LIG    1       26.681 -15.875   3.692  0.00  0.00    -0.015 A 
ATOM      2  C   LIG    1       27.810 -15.067   3.883  0.00  0.00    +0.028 A 
ATOM      3  C   LIG    1       27.811 -13.724   3.483  0.00  0.00    +0.063 A 
ATOM      4 CL   LIG    1       29.236 -12.788   3.778  0.00  0.00    -0.082 Cl
ATOM      5  C   LIG    1       26.698 -13.153   2.835  0.00  0.00    +0.062 A 
ATOM      6  C   LIG    1       25.559 -13.957   2.687  0.00  0.00    +0.063 A 
ATOM      7 CL   LIG    1       24.119 -13.322   1.963  0.00  0.00    -0.082 Cl
ATOM      8  C   LIG    1       25.552 -15.297   3.090  0.00  0.00    +0.028 A 
ENDROOT
BRANCH   5   9
ATOM      9  N   LIG    1       26.655 -11.768   2.552  0.00  0.00    -0.356 N 
ATOM     10  H   LIG    1       26.567 -11.191   3.384  0.00  0.00    +0.142 HD
ATOM     11  H   LIG    1       27.407 -11.471   1.931  0.00  0.00    +0.142 HD
ENDBRANCH   5   9
BRANCH   1  12
ATOM     12  C   LIG    1       26.690 -17.334   4.115  0.00  0.00    +0.158 C 
BRANCH  12  13
ATOM     13  O   LIG    1       28.026 -17.850   4.162  0.00  0.00    -0.386 OA
ATOM     14  H   LIG    1       27.982 -18.631   4.749  0.00  0.00    +0.210 HD
ENDBRANCH  12  13
BRANCH  12  15
ATOM     15  C   LIG    1       25.824 -18.265   3.226  0.00  0.00    +0.117 C 
BRANCH  15  16
ATOM     16  N   LIG    1       25.761 -19.643   3.754  0.00  0.00    -0.309 NA
ATOM     17  H   LIG    1       26.051 -20.289   3.015  0.00  0.00    +0.122 HD
BRANCH  16  19
ATOM     18  C   LIG    1       24.029 -21.333   3.476  0.00  0.00    +0.027 C 
ATOM     19  C   LIG    1       24.430 -20.060   4.251  0.00  0.00    +0.011 C 
ATOM     20  C   LIG    1       24.481 -20.407   5.747  0.00  0.00    +0.027 C 
ATOM     21  C   LIG    1       23.356 -18.989   3.991  0.00  0.00    +0.027 C 
ENDBRANCH  16  19
ENDBRANCH  15  16
ENDBRANCH  12  15
ENDBRANCH   1  12
TORSDOF 6
ENDMDL
MODEL 8
REMARK VINA RESULT:      -3.4      1.879      2.221
REMARK  Name = *****
REMARK                            x       y       z     vdW  Elec       q    Type
REMARK                         _______ _______ _______ _____ _____    ______ ____
ROOT
ATOM      1  C   LIG    1       25.492 -17.831   3.598  0.00  0.00    -0.015 A 
ATOM      2  C   LIG    1       24.367 -17.056   3.909  0.00  0.00    +0.028 A 
ATOM      3  C   LIG    1       23.138 -17.659   4.211  0.00  0.00    +0.063 A 
ATOM      4 CL   LIG    1       21.804 -16.633   4.610  0.00  0.00    -0.082 Cl
ATOM      5  C   LIG    1       22.980 -19.058   4.168  0.00  0.00    +0.062 A 
ATOM      6  C   LIG    1       24.122 -19.826   3.898  0.00  0.00    +0.063 A 
ATOM      7 CL   LIG    1       24.040 -21.557   3.889  0.00  0.00    -0.082 Cl
ATOM      8  C   LIG    1       25.351 -19.228   3.601  0.00  0.00    +0.028 A 
ENDROOT
BRANCH   5   9
ATOM      9  N   LIG    1       21.778 -19.666   4.600  0.00  0.00    -0.356 N 
ATOM     10  H   LIG    1       21.929 -20.491   5.173  0.00  0.00    +0.142 HD
ATOM     11  H   LIG    1       21.128 -18.998   5.014  0.00  0.00    +0.142 HD
ENDBRANCH   5   9
BRANCH   1  12
ATOM     12  C   LIG    1       26.818 -17.172   3.258  0.00  0.00    +0.158 C 
BRANCH  12  13
ATOM     13  O   LIG    1       27.837 -17.553   4.190  0.00  0.00    -0.386 OA
ATOM     14  H   LIG    1       27.553 -17.185   5.050  0.00  0.00    +0.210 HD
ENDBRANCH  12  13
BRANCH  12  15
ATOM     15  C   LIG    1       26.763 -15.623   3.181  0.00  0.00    +0.117 C 
BRANCH  15  16
ATOM     16  N   LIG    1       27.758 -14.984   4.065  0.00  0.00    -0.309 NA
ATOM     17  H   LIG    1       27.767 -15.480   4.960  0.00  0.00    +0.122 HD
BRANCH  16  19
ATOM     18  C   LIG    1       26.370 -13.092   3.410  0.00  0.00    +0.027 C 
ATOM     19  C   LIG    1       27.528 -13.545   4.325  0.00  0.00    +0.011 C 
ATOM     20  C   LIG    1       27.106 -13.306   5.783  0.00  0.00    +0.027 C 
ATOM     21  C   LIG    1       28.762 -12.692   3.984  0.00  0.00    +0.027 C 
ENDBRANCH  16  19
ENDBRANCH  15  16
ENDBRANCH  12  15
ENDBRANCH   1  12
TORSDOF 6
ENDMDL
MODEL 9
REMARK VINA RESULT:      -3.1      2.868      6.181
REMARK  Name = *****
REMARK                            x       y       z     vdW  Elec       q    Type
REMARK                         _______ _______ _______ _____ _____    ______ ____
ROOT
ATOM      1  C   LIG    1       25.812 -17.436   3.607  0.00  0.00    -0.015 A 
ATOM      2  C   LIG    1       26.887 -16.553   3.435  0.00  0.00    +0.028 A 
ATOM      3  C   LIG    1       26.706 -15.168   3.548  0.00  0.00    +0.063 A 
ATOM      4 CL   LIG    1       28.089 -14.148   3.347  0.00  0.00    -0.082 Cl
ATOM      5  C   LIG    1       25.435 -14.614   3.791  0.00  0.00    +0.062 A 
ATOM      6  C   LIG    1       24.375 -15.506   4.005  0.00  0.00    +0.063 A 
ATOM      7 CL   LIG    1       22.788 -14.919   4.377  0.00  0.00    -0.082 Cl
ATOM      8  C   LIG    1       24.551 -16.890   3.899  0.00  0.00    +0.028 A 
ENDROOT
BRANCH   5   9
ATOM      9  N   LIG    1       25.282 -13.228   4.034  0.00  0.00    -0.356 N 
ATOM     10  H   LIG    1       25.953 -12.656   3.529  0.00  0.00    +0.142 HD
ATOM     11  H   LIG    1       24.318 -12.915   3.922  0.00  0.00    +0.142 HD
ENDBRANCH   5   9
BRANCH   1  12
ATOM     12  C   LIG    1       26.010 -18.936   3.471  0.00  0.00    +0.158 C 
BRANCH  12  13
ATOM     13  O   LIG    1       25.441 -19.423   2.250  0.00  0.00    -0.386 OA
ATOM     14  H   LIG    1       26.128 -19.995   1.853  0.00  0.00    +0.210 HD
ENDBRANCH  12  13
BRANCH  12  15
ATOM     15  C   LIG    1       25.446 -19.767   4.654  0.00  0.00    +0.117 C 
BRANCH  15  16
ATOM     16  N   LIG    1       24.219 -20.501   4.287  0.00  0.00    -0.309 NA
ATOM     17  H   LIG    1       23.930 -20.206   3.350  0.00  0.00    +0.122 HD
BRANCH  16  19
ATOM     18  C   LIG    1       22.056 -21.429   4.914  0.00  0.00    +0.027 C 
ATOM     19  C   LIG    1       23.080 -20.314   5.213  0.00  0.00    +0.011 C 
ATOM     20  C   LIG    1       23.527 -20.456   6.677  0.00  0.00    +0.027 C 
ATOM     21  C   LIG    1       22.381 -18.960   5.002  0.00  0.00    +0.027 C 
ENDBRANCH  16  19
ENDBRANCH  15  16
ENDBRANCH  12  15
ENDBRANCH   1  12
TORSDOF 6
ENDMDL
