MODEL 1
REMARK VINA RESULT:      -8.3      0.000      0.000
REMARK  Name = *****
REMARK                            x       y       z     vdW  Elec       q    Type
REMARK                         _______ _______ _______ _____ _____    ______ ____
ROOT
ATOM      1  C   LIG    1       23.450 -21.063   7.573  0.00  0.00    +0.134 C 
ATOM      2  N   LIG    1       24.871 -20.765   7.354  0.00  0.00    -0.159 NA
ATOM      3  S   LIG    1       25.951 -21.752   8.175  0.00  0.00    +0.064 S 
ATOM      4  O   LIG    1       25.859 -23.080   7.601  0.00  0.00    -0.153 OA
ATOM      5  O   LIG    1       25.760 -21.535   9.591  0.00  0.00    -0.153 OA
ATOM      6  C   LIG    1       27.519 -21.099   7.729  0.00  0.00    +0.128 A 
ATOM      7  C   LIG    1       27.599 -20.165   6.698  0.00  0.00    +0.057 A 
ATOM      8  C   LIG    1       28.856 -19.600   6.446  0.00  0.00    +0.047 A 
ATOM      9  C   LIG    1       30.009 -20.015   7.132  0.00  0.00    +0.069 A 
ATOM     10  C   LIG    1       29.904 -20.999   8.117  0.00  0.00    +0.125 A 
ATOM     11 CL   LIG    1       31.488 -19.237   6.695  0.00  0.00    -0.082 Cl
ATOM     12  N   LIG    1       26.492 -19.673   6.013  0.00  0.00    -0.325 N 
ATOM     13  H   LIG    1       26.714 -19.286   5.096  0.00  0.00    +0.148 HD
ATOM     14  C   LIG    1       28.650 -21.539   8.427  0.00  0.00    +0.060 A 
ATOM     15  C   LIG    1       25.245 -20.430   5.983  0.00  0.00    +0.172 C 
ENDROOT
BRANCH  10  16
ATOM     16  S   LIG    1       31.320 -21.603   8.978  0.00  0.00    +0.057 S 
ATOM     17  O   LIG    1       32.146 -20.486   9.370  0.00  0.00    -0.153 OA
ATOM     18  O   LIG    1       31.860 -22.727   8.251  0.00  0.00    -0.153 OA
BRANCH  16  19
ATOM     19  N   LIG    1       30.672 -22.265  10.375  0.00  0.00    -0.203 NA
ATOM     20  H   LIG    1       29.899 -22.887  10.142  0.00  0.00    +0.144 HD
ATOM     21  H   LIG    1       30.422 -21.523  11.032  0.00  0.00    +0.144 HD
ENDBRANCH  16  19
ENDBRANCH  10  16
BRANCH  15  22
ATOM     22  C   LIG    1       25.307 -21.629   4.996  0.00  0.00    +0.109 C 
BRANCH  22  23
ATOM     23  S   LIG    1       24.045 -21.483   3.658  0.00  0.00    -0.149 S 
BRANCH  23  24
ATOM     24  C   LIG    1       23.575 -19.711   3.864  0.00  0.00    +0.182 C 
BRANCH  24  25
ATOM     25  C   LIG    1       22.203 -19.411   4.466  0.00  0.00    +0.399 C 
ATOM     26  F   LIG    1       22.336 -18.842   5.686  0.00  0.00    -0.170 F 
ATOM     27  F   LIG    1       21.487 -20.548   4.626  0.00  0.00    -0.170 F 
ATOM     28  F   LIG    1       21.463 -18.573   3.711  0.00  0.00    -0.170 F 
ENDBRANCH  24  25
ENDBRANCH  23  24
ENDBRANCH  22  23
ENDBRANCH  15  22
TORSDOF 6
ENDMDL
MODEL 2
REMARK VINA RESULT:      -7.8      3.523      4.163
REMARK  Name = *****
REMARK                            x       y       z     vdW  Elec       q    Type
REMARK                         _______ _______ _______ _____ _____    ______ ____
ROOT
ATOM      1  C   LIG    1       23.223 -21.832   7.864  0.00  0.00    +0.134 C 
ATOM      2  N   LIG    1       24.475 -21.296   7.314  0.00  0.00    -0.159 NA
ATOM      3  S   LIG    1       25.810 -21.402   8.324  0.00  0.00    +0.064 S 
ATOM      4  O   LIG    1       26.150 -22.805   8.460  0.00  0.00    -0.153 OA
ATOM      5  O   LIG    1       25.554 -20.580   9.484  0.00  0.00    -0.153 OA
ATOM      6  C   LIG    1       27.089 -20.644   7.389  0.00  0.00    +0.128 A 
ATOM      7  C   LIG    1       26.870 -20.360   6.043  0.00  0.00    +0.057 A 
ATOM      8  C   LIG    1       27.882 -19.666   5.365  0.00  0.00    +0.047 A 
ATOM      9  C   LIG    1       29.105 -19.347   5.979  0.00  0.00    +0.069 A 
ATOM     10  C   LIG    1       29.315 -19.703   7.312  0.00  0.00    +0.125 A 
ATOM     11 CL   LIG    1       30.258 -18.507   5.007  0.00  0.00    -0.082 Cl
ATOM     12  N   LIG    1       25.667 -20.602   5.387  0.00  0.00    -0.325 N 
ATOM     13  H   LIG    1       25.757 -20.672   4.373  0.00  0.00    +0.148 HD
ATOM     14  C   LIG    1       28.299 -20.346   8.028  0.00  0.00    +0.060 A 
ATOM     15  C   LIG    1       24.728 -21.590   5.906  0.00  0.00    +0.172 C 
ENDROOT
BRANCH  10  16
ATOM     16  S   LIG    1       30.847 -19.379   8.126  0.00  0.00    +0.057 S 
ATOM     17  O   LIG    1       31.933 -19.697   7.232  0.00  0.00    -0.153 OA
ATOM     18  O   LIG    1       30.783 -19.918   9.464  0.00  0.00    -0.153 OA
BRANCH  16  19
ATOM     19  N   LIG    1       30.834 -17.716   8.332  0.00  0.00    -0.203 NA
ATOM     20  H   LIG    1       30.662 -17.485   9.310  0.00  0.00    +0.144 HD
ATOM     21  H   LIG    1       30.170 -17.287   7.684  0.00  0.00    +0.144 HD
ENDBRANCH  16  19
ENDBRANCH  10  16
BRANCH  15  22
ATOM     22  C   LIG    1       25.174 -23.047   5.599  0.00  0.00    +0.109 C 
BRANCH  22  23
ATOM     23  S   LIG    1       23.921 -24.280   6.155  0.00  0.00    -0.149 S 
BRANCH  23  24
ATOM     24  C   LIG    1       24.660 -25.817   5.452  0.00  0.00    +0.182 C 
BRANCH  24  25
ATOM     25  C   LIG    1       25.730 -26.528   6.281  0.00  0.00    +0.399 C 
ATOM     26  F   LIG    1       26.095 -25.766   7.337  0.00  0.00    -0.170 F 
ATOM     27  F   LIG    1       26.841 -26.755   5.542  0.00  0.00    -0.170 F 
ATOM     28  F   LIG    1       25.320 -27.719   6.767  0.00  0.00    -0.170 F 
ENDBRANCH  24  25
ENDBRANCH  23  24
ENDBRANCH  22  23
ENDBRANCH  15  22
TORSDOF 6
ENDMDL
MODEL 3
REMARK VINA RESULT:      -6.9      4.816      7.490
REMARK  Name = *****
REMARK                            x       y       z     vdW  Elec       q    Type
REMARK                         _______ _______ _______ _____ _____    ______ ____
ROOT
ATOM      1  C   LIG    1       30.730 -21.173   8.513  0.00  0.00    +0.134 C 
ATOM      2  N   LIG    1       29.636 -20.878   7.579  0.00  0.00    -0.159 NA
ATOM      3  S   LIG    1       28.102 -20.829   8.256  0.00  0.00    +0.064 S 
ATOM      4  O   LIG    1       28.039 -19.671   9.125  0.00  0.00    -0.153 OA
ATOM      5  O   LIG    1       27.795 -22.152   8.751  0.00  0.00    -0.153 OA
ATOM      6  C   LIG    1       27.061 -20.506   6.880  0.00  0.00    +0.128 A 
ATOM      7  C   LIG    1       27.633 -20.131   5.666  0.00  0.00    +0.057 A 
ATOM      8  C   LIG    1       26.769 -19.981   4.573  0.00  0.00    +0.047 A 
ATOM      9  C   LIG    1       25.377 -20.109   4.702  0.00  0.00    +0.069 A 
ATOM     10  C   LIG    1       24.831 -20.424   5.948  0.00  0.00    +0.125 A 
ATOM     11 CL   LIG    1       24.445 -19.875   3.268  0.00  0.00    -0.082 Cl
ATOM     12  N   LIG    1       29.006 -20.036   5.455  0.00  0.00    -0.325 N 
ATOM     13  H   LIG    1       29.261 -19.439   4.668  0.00  0.00    +0.148 HD
ATOM     14  C   LIG    1       25.676 -20.635   7.043  0.00  0.00    +0.060 A 
ATOM     15  C   LIG    1       29.915 -19.849   6.581  0.00  0.00    +0.172 C 
ENDROOT
BRANCH  10  16
ATOM     16  S   LIG    1       23.087 -20.547   6.190  0.00  0.00    +0.057 S 
ATOM     17  O   LIG    1       22.447 -19.390   5.612  0.00  0.00    -0.153 OA
ATOM     18  O   LIG    1       22.837 -20.951   7.554  0.00  0.00    -0.153 OA
BRANCH  16  19
ATOM     19  N   LIG    1       22.659 -21.876   5.263  0.00  0.00    -0.203 NA
ATOM     20  H   LIG    1       23.387 -22.588   5.314  0.00  0.00    +0.144 HD
ATOM     21  H   LIG    1       22.435 -21.582   4.310  0.00  0.00    +0.144 HD
ENDBRANCH  16  19
ENDBRANCH  10  16
BRANCH  15  22
ATOM     22  C   LIG    1       29.907 -18.387   7.109  0.00  0.00    +0.109 C 
BRANCH  22  23
ATOM     23  S   LIG    1       31.346 -18.049   8.213  0.00  0.00    -0.149 S 
BRANCH  23  24
ATOM     24  C   LIG    1       30.505 -17.071   9.531  0.00  0.00    +0.182 C 
BRANCH  24  25
ATOM     25  C   LIG    1       31.109 -17.113  10.934  0.00  0.00    +0.399 C 
ATOM     26  F   LIG    1       32.444 -17.320  10.869  0.00  0.00    -0.170 F 
ATOM     27  F   LIG    1       30.577 -18.125  11.659  0.00  0.00    -0.170 F 
ATOM     28  F   LIG    1       30.913 -15.974  11.632  0.00  0.00    -0.170 F 
ENDBRANCH  24  25
ENDBRANCH  23  24
ENDBRANCH  22  23
ENDBRANCH  15  22
TORSDOF 6
ENDMDL
MODEL 4
REMARK VINA RESULT:      -6.2      8.381      9.564
REMARK  Name = *****
REMARK                            x       y       z     vdW  Elec       q    Type
REMARK                         _______ _______ _______ _____ _____    ______ ____
ROOT
ATOM      1  C   LIG    1       26.927 -31.652   9.187  0.00  0.00    +0.134 C 
ATOM      2  N   LIG    1       26.249 -30.734  10.111  0.00  0.00    -0.159 NA
ATOM      3  S   LIG    1       27.087 -29.328  10.477  0.00  0.00    +0.064 S 
ATOM      4  O   LIG    1       27.136 -28.519   9.275  0.00  0.00    -0.153 OA
ATOM      5  O   LIG    1       28.296 -29.702  11.175  0.00  0.00    -0.153 OA
ATOM      6  C   LIG    1       26.031 -28.509  11.615  0.00  0.00    +0.128 A 
ATOM      7  C   LIG    1       24.730 -28.975  11.793  0.00  0.00    +0.057 A 
ATOM      8  C   LIG    1       23.959 -28.350  12.783  0.00  0.00    +0.047 A 
ATOM      9  C   LIG    1       24.432 -27.242  13.505  0.00  0.00    +0.069 A 
ATOM     10  C   LIG    1       25.718 -26.761  13.257  0.00  0.00    +0.125 A 
ATOM     11 CL   LIG    1       23.356 -26.571  14.677  0.00  0.00    -0.082 Cl
ATOM     12  N   LIG    1       24.216 -30.096  11.149  0.00  0.00    -0.325 N 
ATOM     13  H   LIG    1       23.197 -30.113  11.103  0.00  0.00    +0.148 HD
ATOM     14  C   LIG    1       26.530 -27.402  12.314  0.00  0.00    +0.060 A 
ATOM     15  C   LIG    1       24.812 -30.573   9.905  0.00  0.00    +0.172 C 
ENDROOT
BRANCH  10  16
ATOM     16  S   LIG    1       26.353 -25.341  14.091  0.00  0.00    +0.057 S 
ATOM     17  O   LIG    1       26.622 -25.683  15.467  0.00  0.00    -0.153 OA
ATOM     18  O   LIG    1       25.546 -24.197  13.738  0.00  0.00    -0.153 OA
BRANCH  16  19
ATOM     19  N   LIG    1       27.827 -25.076  13.340  0.00  0.00    -0.203 NA
ATOM     20  H   LIG    1       27.882 -24.115  13.005  0.00  0.00    +0.144 HD
ATOM     21  H   LIG    1       27.981 -25.777  12.612  0.00  0.00    +0.144 HD
ENDBRANCH  16  19
ENDBRANCH  10  16
BRANCH  15  22
ATOM     22  C   LIG    1       24.407 -29.701   8.685  0.00  0.00    +0.109 C 
BRANCH  22  23
ATOM     23  S   LIG    1       24.739 -30.560   7.087  0.00  0.00    -0.149 S 
BRANCH  23  24
ATOM     24  C   LIG    1       24.072 -29.305   5.912  0.00  0.00    +0.182 C 
BRANCH  24  25
ATOM     25  C   LIG    1       24.763 -27.943   5.868  0.00  0.00    +0.399 C 
ATOM     26  F   LIG    1       23.944 -26.980   6.352  0.00  0.00    -0.170 F 
ATOM     27  F   LIG    1       25.080 -27.603   4.597  0.00  0.00    -0.170 F 
ATOM     28  F   LIG    1       25.902 -27.901   6.591  0.00  0.00    -0.170 F 
ENDBRANCH  24  25
ENDBRANCH  23  24
ENDBRANCH  22  23
ENDBRANCH  15  22
TORSDOF 6
ENDMDL
MODEL 5
REMARK VINA RESULT:      -5.7      9.817     11.415
REMARK  Name = *****
REMARK                            x       y       z     vdW  Elec       q    Type
REMARK                         _______ _______ _______ _____ _____    ______ ____
ROOT
ATOM      1  C   LIG    1       25.481 -33.224  13.269  0.00  0.00    +0.134 C 
ATOM      2  N   LIG    1       25.551 -32.165  12.254  0.00  0.00    -0.159 NA
ATOM      3  S   LIG    1       24.710 -32.467  10.835  0.00  0.00    +0.064 S 
ATOM      4  O   LIG    1       23.295 -32.451  11.149  0.00  0.00    -0.153 OA
ATOM      5  O   LIG    1       25.320 -33.610  10.194  0.00  0.00    -0.153 OA
ATOM      6  C   LIG    1       25.043 -31.049   9.855  0.00  0.00    +0.128 A 
ATOM      7  C   LIG    1       25.649 -29.942  10.443  0.00  0.00    +0.057 A 
ATOM      8  C   LIG    1       25.984 -28.875   9.599  0.00  0.00    +0.047 A 
ATOM      9  C   LIG    1       25.645 -28.870   8.236  0.00  0.00    +0.069 A 
ATOM     10  C   LIG    1       24.981 -29.970   7.691  0.00  0.00    +0.125 A 
ATOM     11 CL   LIG    1       26.109 -27.474   7.332  0.00  0.00    -0.082 Cl
ATOM     12  N   LIG    1       26.057 -29.900  11.773  0.00  0.00    -0.325 N 
ATOM     13  H   LIG    1       26.156 -28.955  12.144  0.00  0.00    +0.148 HD
ATOM     14  C   LIG    1       24.686 -31.073   8.500  0.00  0.00    +0.060 A 
ATOM     15  C   LIG    1       25.461 -30.797  12.758  0.00  0.00    +0.172 C 
ENDROOT
BRANCH  10  16
ATOM     16  S   LIG    1       24.480 -30.005   6.000  0.00  0.00    +0.057 S 
ATOM     17  O   LIG    1       25.624 -30.308   5.174  0.00  0.00    -0.153 OA
ATOM     18  O   LIG    1       23.640 -28.859   5.742  0.00  0.00    -0.153 OA
BRANCH  16  19
ATOM     19  N   LIG    1       23.445 -31.321   5.929  0.00  0.00    -0.203 NA
ATOM     20  H   LIG    1       22.489 -31.007   5.767  0.00  0.00    +0.144 HD
ATOM     21  H   LIG    1       23.554 -31.899   6.764  0.00  0.00    +0.144 HD
ENDBRANCH  16  19
ENDBRANCH  10  16
BRANCH  15  22
ATOM     22  C   LIG    1       24.042 -30.337  13.191  0.00  0.00    +0.109 C 
BRANCH  22  23
ATOM     23  S   LIG    1       23.938 -28.504  13.365  0.00  0.00    -0.149 S 
BRANCH  23  24
ATOM     24  C   LIG    1       22.122 -28.271  13.137  0.00  0.00    +0.182 C 
BRANCH  24  25
ATOM     25  C   LIG    1       21.566 -26.858  13.309  0.00  0.00    +0.399 C 
ATOM     26  F   LIG    1       22.504 -25.937  12.991  0.00  0.00    -0.170 F 
ATOM     27  F   LIG    1       21.200 -26.636  14.593  0.00  0.00    -0.170 F 
ATOM     28  F   LIG    1       20.486 -26.614  12.537  0.00  0.00    -0.170 F 
ENDBRANCH  24  25
ENDBRANCH  23  24
ENDBRANCH  22  23
ENDBRANCH  15  22
TORSDOF 6
ENDMDL
MODEL 6
REMARK VINA RESULT:      -5.6     10.125     11.698
REMARK  Name = *****
REMARK                            x       y       z     vdW  Elec       q    Type
REMARK                         _______ _______ _______ _____ _____    ______ ____
ROOT
ATOM      1  C   LIG    1       20.052 -32.319  12.828  0.00  0.00    +0.134 C 
ATOM      2  N   LIG    1       21.225 -31.674  12.223  0.00  0.00    -0.159 NA
ATOM      3  S   LIG    1       21.194 -31.542  10.551  0.00  0.00    +0.064 S 
ATOM      4  O   LIG    1       20.152 -30.596  10.202  0.00  0.00    -0.153 OA
ATOM      5  O   LIG    1       21.204 -32.878  10.001  0.00  0.00    -0.153 OA
ATOM      6  C   LIG    1       22.733 -30.785  10.174  0.00  0.00    +0.128 A 
ATOM      7  C   LIG    1       23.500 -30.251  11.208  0.00  0.00    +0.057 A 
ATOM      8  C   LIG    1       24.763 -29.748  10.869  0.00  0.00    +0.047 A 
ATOM      9  C   LIG    1       25.210 -29.692   9.539  0.00  0.00    +0.069 A 
ATOM     10  C   LIG    1       24.389 -30.178   8.520  0.00  0.00    +0.125 A 
ATOM     11 CL   LIG    1       26.782 -29.025   9.282  0.00  0.00    -0.082 Cl
ATOM     12  N   LIG    1       23.142 -30.319  12.551  0.00  0.00    -0.325 N 
ATOM     13  H   LIG    1       23.594 -29.615  13.134  0.00  0.00    +0.148 HD
ATOM     14  C   LIG    1       23.146 -30.738   8.837  0.00  0.00    +0.060 A 
ATOM     15  C   LIG    1       21.747 -30.511  12.935  0.00  0.00    +0.172 C 
ENDROOT
BRANCH  10  16
ATOM     16  S   LIG    1       24.867 -30.088   6.824  0.00  0.00    +0.057 S 
ATOM     17  O   LIG    1       25.855 -31.106   6.558  0.00  0.00    -0.153 OA
ATOM     18  O   LIG    1       25.092 -28.705   6.478  0.00  0.00    -0.153 OA
BRANCH  16  19
ATOM     19  N   LIG    1       23.470 -30.515   6.004  0.00  0.00    -0.203 NA
ATOM     20  H   LIG    1       23.174 -29.753   5.395  0.00  0.00    +0.144 HD
ATOM     21  H   LIG    1       22.752 -30.817   6.666  0.00  0.00    +0.144 HD
ENDBRANCH  16  19
ENDBRANCH  10  16
BRANCH  15  22
ATOM     22  C   LIG    1       20.911 -29.209  12.790  0.00  0.00    +0.109 C 
BRANCH  22  23
ATOM     23  S   LIG    1       20.660 -28.371  14.414  0.00  0.00    -0.149 S 
BRANCH  23  24
ATOM     24  C   LIG    1       22.352 -27.684  14.676  0.00  0.00    +0.182 C 
BRANCH  24  25
ATOM     25  C   LIG    1       22.855 -26.647  13.673  0.00  0.00    +0.399 C 
ATOM     26  F   LIG    1       23.714 -27.215  12.795  0.00  0.00    -0.170 F 
ATOM     27  F   LIG    1       23.519 -25.650  14.301  0.00  0.00    -0.170 F 
ATOM     28  F   LIG    1       21.865 -26.079  12.954  0.00  0.00    -0.170 F 
ENDBRANCH  24  25
ENDBRANCH  23  24
ENDBRANCH  22  23
ENDBRANCH  15  22
TORSDOF 6
ENDMDL
MODEL 7
REMARK VINA RESULT:      -5.6     10.299     11.828
REMARK  Name = *****
REMARK                            x       y       z     vdW  Elec       q    Type
REMARK                         _______ _______ _______ _____ _____    ______ ____
ROOT
ATOM      1  C   LIG    1       20.001 -32.426  12.761  0.00  0.00    +0.134 C 
ATOM      2  N   LIG    1       21.185 -31.763  12.199  0.00  0.00    -0.159 NA
ATOM      3  S   LIG    1       21.159 -31.526  10.539  0.00  0.00    +0.064 S 
ATOM      4  O   LIG    1       20.133 -30.543  10.249  0.00  0.00    -0.153 OA
ATOM      5  O   LIG    1       21.148 -32.825   9.906  0.00  0.00    -0.153 OA
ATOM      6  C   LIG    1       22.710 -30.772  10.211  0.00  0.00    +0.128 A 
ATOM      7  C   LIG    1       23.484 -30.318  11.276  0.00  0.00    +0.057 A 
ATOM      8  C   LIG    1       24.757 -29.814  10.970  0.00  0.00    +0.047 A 
ATOM      9  C   LIG    1       25.206 -29.682   9.646  0.00  0.00    +0.069 A 
ATOM     10  C   LIG    1       24.378 -30.090   8.599  0.00  0.00    +0.125 A 
ATOM     11 CL   LIG    1       26.789 -29.027   9.432  0.00  0.00    -0.082 Cl
ATOM     12  N   LIG    1       23.123 -30.464  12.612  0.00  0.00    -0.325 N 
ATOM     13  H   LIG    1       23.586 -29.805  13.238  0.00  0.00    +0.148 HD
ATOM     14  C   LIG    1       23.126 -30.648   8.879  0.00  0.00    +0.060 A 
ATOM     15  C   LIG    1       21.725 -30.656  12.983  0.00  0.00    +0.172 C 
ENDROOT
BRANCH  10  16
ATOM     16  S   LIG    1       24.861 -29.902   6.911  0.00  0.00    +0.057 S 
ATOM     17  O   LIG    1       25.873 -30.881   6.598  0.00  0.00    -0.153 OA
ATOM     18  O   LIG    1       25.053 -28.497   6.638  0.00  0.00    -0.153 OA
BRANCH  16  19
ATOM     19  N   LIG    1       23.477 -30.319   6.064  0.00  0.00    -0.203 NA
ATOM     20  H   LIG    1       22.742 -29.634   6.233  0.00  0.00    +0.144 HD
ATOM     21  H   LIG    1       23.205 -31.279   6.285  0.00  0.00    +0.144 HD
ENDBRANCH  16  19
ENDBRANCH  10  16
BRANCH  15  22
ATOM     22  C   LIG    1       20.911 -29.334  12.920  0.00  0.00    +0.109 C 
BRANCH  22  23
ATOM     23  S   LIG    1       20.397 -28.764  14.597  0.00  0.00    -0.149 S 
BRANCH  23  24
ATOM     24  C   LIG    1       18.802 -27.941  14.172  0.00  0.00    +0.182 C 
BRANCH  24  25
ATOM     25  C   LIG    1       18.811 -26.421  14.021  0.00  0.00    +0.399 C 
ATOM     26  F   LIG    1       19.527 -25.850  15.017  0.00  0.00    -0.170 F 
ATOM     27  F   LIG    1       17.556 -25.921  14.086  0.00  0.00    -0.170 F 
ATOM     28  F   LIG    1       19.348 -26.006  12.853  0.00  0.00    -0.170 F 
ENDBRANCH  24  25
ENDBRANCH  23  24
ENDBRANCH  22  23
ENDBRANCH  15  22
TORSDOF 6
ENDMDL
MODEL 8
REMARK VINA RESULT:      -5.5      8.996     10.242
REMARK  Name = *****
REMARK                            x       y       z     vdW  Elec       q    Type
REMARK                         _______ _______ _______ _____ _____    ______ ____
ROOT
ATOM      1  C   LIG    1       26.562 -31.628   7.191  0.00  0.00    +0.134 C 
ATOM      2  N   LIG    1       25.640 -31.133   8.221  0.00  0.00    -0.159 NA
ATOM      3  S   LIG    1       26.364 -30.503   9.597  0.00  0.00    +0.064 S 
ATOM      4  O   LIG    1       27.035 -29.275   9.219  0.00  0.00    -0.153 OA
ATOM      5  O   LIG    1       27.080 -31.575  10.251  0.00  0.00    -0.153 OA
ATOM      6  C   LIG    1       24.999 -30.061  10.609  0.00  0.00    +0.128 A 
ATOM      7  C   LIG    1       23.718 -30.062  10.062  0.00  0.00    +0.057 A 
ATOM      8  C   LIG    1       22.652 -29.799  10.934  0.00  0.00    +0.047 A 
ATOM      9  C   LIG    1       22.860 -29.457  12.280  0.00  0.00    +0.069 A 
ATOM     10  C   LIG    1       24.162 -29.403  12.780  0.00  0.00    +0.125 A 
ATOM     11 CL   LIG    1       21.447 -29.142  13.222  0.00  0.00    -0.082 Cl
ATOM     12  N   LIG    1       23.436 -30.441   8.753  0.00  0.00    -0.325 N 
ATOM     13  H   LIG    1       22.553 -30.074   8.399  0.00  0.00    +0.148 HD
ATOM     14  C   LIG    1       25.240 -29.716  11.945  0.00  0.00    +0.060 A 
ATOM     15  C   LIG    1       24.477 -30.398   7.731  0.00  0.00    +0.172 C 
ENDROOT
BRANCH  10  16
ATOM     16  S   LIG    1       24.495 -28.927  14.447  0.00  0.00    +0.057 S 
ATOM     17  O   LIG    1       23.970 -29.933  15.338  0.00  0.00    -0.153 OA
ATOM     18  O   LIG    1       24.169 -27.529  14.603  0.00  0.00    -0.153 OA
BRANCH  16  19
ATOM     19  N   LIG    1       26.167 -28.992  14.542  0.00  0.00    -0.203 NA
ATOM     20  H   LIG    1       26.477 -28.702  15.469  0.00  0.00    +0.144 HD
ATOM     21  H   LIG    1       26.583 -28.453  13.780  0.00  0.00    +0.144 HD
ENDBRANCH  16  19
ENDBRANCH  10  16
BRANCH  15  22
ATOM     22  C   LIG    1       24.761 -28.952   7.239  0.00  0.00    +0.109 C 
BRANCH  22  23
ATOM     23  S   LIG    1       24.444 -28.767   5.431  0.00  0.00    -0.149 S 
BRANCH  23  24
ATOM     24  C   LIG    1       25.640 -27.419   5.040  0.00  0.00    +0.182 C 
BRANCH  24  25
ATOM     25  C   LIG    1       25.234 -25.990   5.400  0.00  0.00    +0.399 C 
ATOM     26  F   LIG    1       25.150 -25.227   4.286  0.00  0.00    -0.170 F 
ATOM     27  F   LIG    1       26.152 -25.419   6.214  0.00  0.00    -0.170 F 
ATOM     28  F   LIG    1       24.041 -25.918   6.027  0.00  0.00    -0.170 F 
ENDBRANCH  24  25
ENDBRANCH  23  24
ENDBRANCH  22  23
ENDBRANCH  15  22
TORSDOF 6
ENDMDL
MODEL 9
REMARK VINA RESULT:      -5.5      8.814     10.667
REMARK  Name = *****
REMARK                            x       y       z     vdW  Elec       q    Type
REMARK                         _______ _______ _______ _____ _____    ______ ____
ROOT
ATOM      1  C   LIG    1       28.612 -29.398  11.739  0.00  0.00    +0.134 C 
ATOM      2  N   LIG    1       27.147 -29.476  11.680  0.00  0.00    -0.159 NA
ATOM      3  S   LIG    1       26.325 -28.317  12.571  0.00  0.00    +0.064 S 
ATOM      4  O   LIG    1       26.555 -27.032  11.942  0.00  0.00    -0.153 OA
ATOM      5  O   LIG    1       26.634 -28.532  13.967  0.00  0.00    -0.153 OA
ATOM      6  C   LIG    1       24.638 -28.729  12.316  0.00  0.00    +0.128 A 
ATOM      7  C   LIG    1       24.305 -29.659  11.334  0.00  0.00    +0.057 A 
ATOM      8  C   LIG    1       22.956 -30.028  11.235  0.00  0.00    +0.047 A 
ATOM      9  C   LIG    1       21.961 -29.425  12.022  0.00  0.00    +0.069 A 
ATOM     10  C   LIG    1       22.322 -28.449  12.953  0.00  0.00    +0.125 A 
ATOM     11 CL   LIG    1       20.343 -29.973  11.770  0.00  0.00    -0.082 Cl
ATOM     12  N   LIG    1       25.243 -30.332  10.556  0.00  0.00    -0.325 N 
ATOM     13  H   LIG    1       24.867 -30.699   9.682  0.00  0.00    +0.148 HD
ATOM     14  C   LIG    1       23.668 -28.104  13.111  0.00  0.00    +0.060 A 
ATOM     15  C   LIG    1       26.581 -29.778  10.368  0.00  0.00    +0.172 C 
ENDROOT
BRANCH  10  16
ATOM     16  S   LIG    1       21.115 -27.615  13.934  0.00  0.00    +0.057 S 
ATOM     17  O   LIG    1       21.766 -26.588  14.710  0.00  0.00    -0.153 OA
ATOM     18  O   LIG    1       20.256 -28.600  14.548  0.00  0.00    -0.153 OA
BRANCH  16  19
ATOM     19  N   LIG    1       20.150 -26.852  12.796  0.00  0.00    -0.203 NA
ATOM     20  H   LIG    1       19.516 -27.524  12.366  0.00  0.00    +0.144 HD
ATOM     21  H   LIG    1       20.731 -26.345  12.126  0.00  0.00    +0.144 HD
ENDBRANCH  16  19
ENDBRANCH  10  16
BRANCH  15  22
ATOM     22  C   LIG    1       26.594 -28.605   9.350  0.00  0.00    +0.109 C 
BRANCH  22  23
ATOM     23  S   LIG    1       25.458 -28.916   7.930  0.00  0.00    -0.149 S 
BRANCH  23  24
ATOM     24  C   LIG    1       25.762 -27.385   6.946  0.00  0.00    +0.182 C 
BRANCH  24  25
ATOM     25  C   LIG    1       24.725 -27.011   5.887  0.00  0.00    +0.399 C 
ATOM     26  F   LIG    1       25.322 -26.417   4.829  0.00  0.00    -0.170 F 
ATOM     27  F   LIG    1       23.821 -26.136   6.385  0.00  0.00    -0.170 F 
ATOM     28  F   LIG    1       24.038 -28.073   5.417  0.00  0.00    -0.170 F 
ENDBRANCH  24  25
ENDBRANCH  23  24
ENDBRANCH  22  23
ENDBRANCH  15  22
TORSDOF 6
ENDMDL
