MODEL 1
REMARK VINA RESULT:      -8.8      0.000      0.000
REMARK  Name = *****
REMARK                            x       y       z     vdW  Elec       q    Type
REMARK                         _______ _______ _______ _____ _____    ______ ____
ROOT
ATOM      1  N   LIG    1       25.643 -21.940   6.152  0.00  0.00    -0.300 N 
ATOM      2  C   LIG    1       25.225 -23.293   6.297  0.00  0.00    +0.037 A 
ATOM      3  C   LIG    1       23.897 -23.749   6.410  0.00  0.00    -0.026 A 
ATOM      4  C   LIG    1       23.652 -25.140   6.546  0.00  0.00    +0.005 A 
ATOM      5  C   LIG    1       24.682 -26.075   6.576  0.00  0.00    +0.000 A 
ATOM      6  C   LIG    1       25.982 -25.645   6.405  0.00  0.00    +0.002 A 
ATOM      7  C   LIG    1       22.655 -22.893   6.320  0.00  0.00    +0.041 C 
ATOM      8  C   LIG    1       22.778 -21.434   6.722  0.00  0.00    +0.041 C 
ATOM      9  C   LIG    1       23.557 -20.654   5.699  0.00  0.00    -0.026 A 
ATOM     10  C   LIG    1       22.911 -19.647   4.960  0.00  0.00    +0.005 A 
ATOM     11  C   LIG    1       23.603 -18.911   3.995  0.00  0.00    +0.000 A 
ATOM     12  C   LIG    1       24.953 -19.164   3.783  0.00  0.00    +0.002 A 
ATOM     13  C   LIG    1       25.599 -20.159   4.515  0.00  0.00    +0.024 A 
ATOM     14  C   LIG    1       26.232 -24.284   6.229  0.00  0.00    +0.024 A 
ATOM     15  C   LIG    1       24.914 -20.925   5.475  0.00  0.00    +0.037 A 
ENDROOT
BRANCH   1  16
ATOM     16  C   LIG    1       26.353 -21.362   7.348  0.00  0.00    +0.112 C 
BRANCH  16  17
ATOM     17  C   LIG    1       27.883 -21.479   7.277  0.00  0.00    +0.034 C 
BRANCH  17  18
ATOM     18  C   LIG    1       28.617 -20.193   6.897  0.00  0.00    +0.082 C 
BRANCH  18  20
ATOM     19  C   LIG    1       30.856 -19.247   6.894  0.00  0.00    +0.101 C 
ATOM     20  N   LIG    1       30.054 -20.446   7.059  0.00  0.00    -0.319 NA
ATOM     21  H   LIG    1       30.359 -21.155   6.392  0.00  0.00    +0.122 HD
ENDBRANCH  18  20
ENDBRANCH  17  18
ENDBRANCH  16  17
ENDBRANCH   1  16
TORSDOF 4
ENDMDL
MODEL 2
REMARK VINA RESULT:      -8.2      1.013      1.137
REMARK  Name = *****
REMARK                            x       y       z     vdW  Elec       q    Type
REMARK                         _______ _______ _______ _____ _____    ______ ____
ROOT
ATOM      1  N   LIG    1       25.228 -21.866   5.341  0.00  0.00    -0.300 N 
ATOM      2  C   LIG    1       24.801 -23.174   5.709  0.00  0.00    +0.037 A 
ATOM      3  C   LIG    1       23.634 -23.499   6.428  0.00  0.00    -0.026 A 
ATOM      4  C   LIG    1       23.354 -24.862   6.710  0.00  0.00    +0.005 A 
ATOM      5  C   LIG    1       24.196 -25.892   6.303  0.00  0.00    +0.000 A 
ATOM      6  C   LIG    1       25.309 -25.588   5.547  0.00  0.00    +0.002 A 
ATOM      7  C   LIG    1       22.571 -22.526   6.879  0.00  0.00    +0.041 C 
ATOM      8  C   LIG    1       22.995 -21.090   7.128  0.00  0.00    +0.041 C 
ATOM      9  C   LIG    1       23.290 -20.380   5.836  0.00  0.00    -0.026 A 
ATOM     10  C   LIG    1       22.473 -19.309   5.434  0.00  0.00    +0.005 A 
ATOM     11  C   LIG    1       22.714 -18.635   4.235  0.00  0.00    +0.000 A 
ATOM     12  C   LIG    1       23.791 -19.015   3.442  0.00  0.00    +0.002 A 
ATOM     13  C   LIG    1       24.606 -20.075   3.838  0.00  0.00    +0.024 A 
ATOM     14  C   LIG    1       25.574 -24.257   5.228  0.00  0.00    +0.024 A 
ATOM     15  C   LIG    1       24.367 -20.779   5.032  0.00  0.00    +0.037 A 
ENDROOT
BRANCH   1  16
ATOM     16  C   LIG    1       26.454 -21.370   6.064  0.00  0.00    +0.112 C 
BRANCH  16  17
ATOM     17  C   LIG    1       26.334 -21.425   7.594  0.00  0.00    +0.034 C 
BRANCH  17  18
ATOM     18  C   LIG    1       27.235 -20.449   8.352  0.00  0.00    +0.082 C 
BRANCH  18  20
ATOM     19  C   LIG    1       29.541 -20.099   7.669  0.00  0.00    +0.101 C 
ATOM     20  N   LIG    1       28.598 -20.993   8.315  0.00  0.00    -0.319 NA
ATOM     21  H   LIG    1       28.598 -21.894   7.835  0.00  0.00    +0.122 HD
ENDBRANCH  18  20
ENDBRANCH  17  18
ENDBRANCH  16  17
ENDBRANCH   1  16
TORSDOF 4
ENDMDL
MODEL 3
REMARK VINA RESULT:      -8.1      1.634      4.826
REMARK  Name = *****
REMARK                            x       y       z     vdW  Elec       q    Type
REMARK                         _______ _______ _______ _____ _____    ______ ____
ROOT
ATOM      1  N   LIG    1       25.110 -21.338   6.124  0.00  0.00    -0.300 N 
ATOM      2  C   LIG    1       26.437 -21.051   6.552  0.00  0.00    +0.037 A 
ATOM      3  C   LIG    1       27.358 -20.206   5.904  0.00  0.00    -0.026 A 
ATOM      4  C   LIG    1       28.648 -20.025   6.470  0.00  0.00    +0.005 A 
ATOM      5  C   LIG    1       29.036 -20.658   7.646  0.00  0.00    +0.000 A 
ATOM      6  C   LIG    1       28.121 -21.439   8.321  0.00  0.00    +0.002 A 
ATOM      7  C   LIG    1       27.087 -19.380   4.668  0.00  0.00    +0.041 C 
ATOM      8  C   LIG    1       26.023 -19.883   3.709  0.00  0.00    +0.041 C 
ATOM      9  C   LIG    1       24.646 -19.716   4.290  0.00  0.00    -0.026 A 
ATOM     10  C   LIG    1       23.745 -18.823   3.684  0.00  0.00    +0.005 A 
ATOM     11  C   LIG    1       22.463 -18.637   4.205  0.00  0.00    +0.000 A 
ATOM     12  C   LIG    1       22.068 -19.363   5.323  0.00  0.00    +0.002 A 
ATOM     13  C   LIG    1       22.957 -20.252   5.925  0.00  0.00    +0.024 A 
ATOM     14  C   LIG    1       26.838 -21.592   7.797  0.00  0.00    +0.024 A 
ATOM     15  C   LIG    1       24.260 -20.437   5.428  0.00  0.00    +0.037 A 
ENDROOT
BRANCH   1  16
ATOM     16  C   LIG    1       24.891 -22.745   5.632  0.00  0.00    +0.112 C 
BRANCH  16  17
ATOM     17  C   LIG    1       24.145 -23.642   6.631  0.00  0.00    +0.034 C 
BRANCH  17  18
ATOM     18  C   LIG    1       24.027 -25.111   6.224  0.00  0.00    +0.082 C 
BRANCH  18  20
ATOM     19  C   LIG    1       25.571 -26.400   4.859  0.00  0.00    +0.101 C 
ATOM     20  N   LIG    1       24.679 -25.256   4.917  0.00  0.00    -0.319 NA
ATOM     21  H   LIG    1       25.199 -24.407   4.693  0.00  0.00    +0.122 HD
ENDBRANCH  18  20
ENDBRANCH  17  18
ENDBRANCH  16  17
ENDBRANCH   1  16
TORSDOF 4
ENDMDL
MODEL 4
REMARK VINA RESULT:      -7.1      1.681      5.372
REMARK  Name = *****
REMARK                            x       y       z     vdW  Elec       q    Type
REMARK                         _______ _______ _______ _____ _____    ______ ____
ROOT
ATOM      1  N   LIG    1       26.302 -21.041   5.627  0.00  0.00    -0.300 N 
ATOM      2  C   LIG    1       27.325 -20.529   6.475  0.00  0.00    +0.037 A 
ATOM      3  C   LIG    1       27.215 -20.272   7.855  0.00  0.00    -0.026 A 
ATOM      4  C   LIG    1       28.339 -19.762   8.556  0.00  0.00    +0.005 A 
ATOM      5  C   LIG    1       29.551 -19.502   7.924  0.00  0.00    +0.000 A 
ATOM      6  C   LIG    1       29.688 -19.807   6.585  0.00  0.00    +0.002 A 
ATOM      7  C   LIG    1       26.010 -20.564   8.718  0.00  0.00    +0.041 C 
ATOM      8  C   LIG    1       24.650 -20.572   8.044  0.00  0.00    +0.041 C 
ATOM      9  C   LIG    1       24.487 -21.782   7.166  0.00  0.00    -0.026 A 
ATOM     10  C   LIG    1       23.525 -22.752   7.499  0.00  0.00    +0.005 A 
ATOM     11  C   LIG    1       23.355 -23.892   6.710  0.00  0.00    +0.000 A 
ATOM     12  C   LIG    1       24.133 -24.055   5.570  0.00  0.00    +0.002 A 
ATOM     13  C   LIG    1       25.086 -23.095   5.234  0.00  0.00    +0.024 A 
ATOM     14  C   LIG    1       28.603 -20.347   5.895  0.00  0.00    +0.024 A 
ATOM     15  C   LIG    1       25.286 -21.951   6.027  0.00  0.00    +0.037 A 
ENDROOT
BRANCH   1  16
ATOM     16  C   LIG    1       25.755 -20.058   4.625  0.00  0.00    +0.112 C 
BRANCH  16  17
ATOM     17  C   LIG    1       24.312 -20.354   4.191  0.00  0.00    +0.034 C 
BRANCH  17  18
ATOM     18  C   LIG    1       23.438 -19.122   3.957  0.00  0.00    +0.082 C 
BRANCH  18  20
ATOM     19  C   LIG    1       21.897 -20.763   4.874  0.00  0.00    +0.101 C 
ATOM     20  N   LIG    1       22.162 -19.354   4.645  0.00  0.00    -0.319 NA
ATOM     21  H   LIG    1       21.398 -18.947   4.105  0.00  0.00    +0.122 HD
ENDBRANCH  18  20
ENDBRANCH  17  18
ENDBRANCH  16  17
ENDBRANCH   1  16
TORSDOF 4
ENDMDL
MODEL 5
REMARK VINA RESULT:      -6.8      1.703      5.698
REMARK  Name = *****
REMARK                            x       y       z     vdW  Elec       q    Type
REMARK                         _______ _______ _______ _____ _____    ______ ____
ROOT
ATOM      1  N   LIG    1       25.631 -21.280   5.779  0.00  0.00    -0.300 N 
ATOM      2  C   LIG    1       26.827 -20.537   5.988  0.00  0.00    +0.037 A 
ATOM      3  C   LIG    1       27.779 -20.756   7.003  0.00  0.00    -0.026 A 
ATOM      4  C   LIG    1       28.925 -19.921   7.068  0.00  0.00    +0.005 A 
ATOM      5  C   LIG    1       29.140 -18.886   6.163  0.00  0.00    +0.000 A 
ATOM      6  C   LIG    1       28.244 -18.702   5.129  0.00  0.00    +0.002 A 
ATOM      7  C   LIG    1       27.751 -21.874   8.019  0.00  0.00    +0.041 C 
ATOM      8  C   LIG    1       26.396 -22.445   8.396  0.00  0.00    +0.041 C 
ATOM      9  C   LIG    1       25.823 -23.266   7.274  0.00  0.00    -0.026 A 
ATOM     10  C   LIG    1       25.650 -24.650   7.450  0.00  0.00    +0.005 A 
ATOM     11  C   LIG    1       25.130 -25.442   6.424  0.00  0.00    +0.000 A 
ATOM     12  C   LIG    1       24.757 -24.848   5.224  0.00  0.00    +0.002 A 
ATOM     13  C   LIG    1       24.924 -23.475   5.046  0.00  0.00    +0.024 A 
ATOM     14  C   LIG    1       27.136 -19.543   5.030  0.00  0.00    +0.024 A 
ATOM     15  C   LIG    1       25.466 -22.664   6.059  0.00  0.00    +0.037 A 
ENDROOT
BRANCH   1  16
ATOM     16  C   LIG    1       24.357 -20.534   6.080  0.00  0.00    +0.112 C 
BRANCH  16  17
ATOM     17  C   LIG    1       23.312 -20.614   4.957  0.00  0.00    +0.034 C 
BRANCH  17  18
ATOM     18  C   LIG    1       23.707 -19.924   3.651  0.00  0.00    +0.082 C 
BRANCH  18  20
ATOM     19  C   LIG    1       22.228 -18.127   4.350  0.00  0.00    +0.101 C 
ATOM     20  N   LIG    1       23.546 -18.479   3.854  0.00  0.00    -0.319 NA
ATOM     21  H   LIG    1       23.725 -17.984   2.980  0.00  0.00    +0.122 HD
ENDBRANCH  18  20
ENDBRANCH  17  18
ENDBRANCH  16  17
ENDBRANCH   1  16
TORSDOF 4
ENDMDL
MODEL 6
REMARK VINA RESULT:      -6.1      1.518      5.017
REMARK  Name = *****
REMARK                            x       y       z     vdW  Elec       q    Type
REMARK                         _______ _______ _______ _____ _____    ______ ____
ROOT
ATOM      1  N   LIG    1       23.309 -21.186   6.500  0.00  0.00    -0.300 N 
ATOM      2  C   LIG    1       23.319 -20.176   5.497  0.00  0.00    +0.037 A 
ATOM      3  C   LIG    1       24.266 -20.033   4.465  0.00  0.00    -0.026 A 
ATOM      4  C   LIG    1       24.126 -18.966   3.540  0.00  0.00    +0.005 A 
ATOM      5  C   LIG    1       23.083 -18.048   3.619  0.00  0.00    +0.000 A 
ATOM      6  C   LIG    1       22.117 -18.215   4.590  0.00  0.00    +0.002 A 
ATOM      7  C   LIG    1       25.413 -20.974   4.178  0.00  0.00    +0.041 C 
ATOM      8  C   LIG    1       25.974 -21.771   5.342  0.00  0.00    +0.041 C 
ATOM      9  C   LIG    1       25.018 -22.848   5.773  0.00  0.00    -0.026 A 
ATOM     10  C   LIG    1       25.380 -24.197   5.613  0.00  0.00    +0.005 A 
ATOM     11  C   LIG    1       24.511 -25.222   5.994  0.00  0.00    +0.000 A 
ATOM     12  C   LIG    1       23.283 -24.900   6.559  0.00  0.00    +0.002 A 
ATOM     13  C   LIG    1       22.920 -23.564   6.723  0.00  0.00    +0.024 A 
ATOM     14  C   LIG    1       22.220 -19.284   5.479  0.00  0.00    +0.024 A 
ATOM     15  C   LIG    1       23.773 -22.518   6.326  0.00  0.00    +0.037 A 
ENDROOT
BRANCH   1  16
ATOM     16  C   LIG    1       23.622 -20.704   7.892  0.00  0.00    +0.112 C 
BRANCH  16  17
ATOM     17  C   LIG    1       24.867 -21.359   8.509  0.00  0.00    +0.034 C 
BRANCH  17  18
ATOM     18  C   LIG    1       26.104 -20.464   8.582  0.00  0.00    +0.082 C 
BRANCH  18  20
ATOM     19  C   LIG    1       28.376 -20.879   7.823  0.00  0.00    +0.101 C 
ATOM     20  N   LIG    1       27.277 -21.344   8.650  0.00  0.00    -0.319 NA
ATOM     21  H   LIG    1       27.017 -22.290   8.371  0.00  0.00    +0.122 HD
ENDBRANCH  18  20
ENDBRANCH  17  18
ENDBRANCH  16  17
ENDBRANCH   1  16
TORSDOF 4
ENDMDL
MODEL 7
REMARK VINA RESULT:      -6.0      1.596      5.082
REMARK  Name = *****
REMARK                            x       y       z     vdW  Elec       q    Type
REMARK                         _______ _______ _______ _____ _____    ______ ____
ROOT
ATOM      1  N   LIG    1       26.387 -21.761   6.053  0.00  0.00    -0.300 N 
ATOM      2  C   LIG    1       25.037 -21.363   5.835  0.00  0.00    +0.037 A 
ATOM      3  C   LIG    1       24.223 -20.645   6.732  0.00  0.00    -0.026 A 
ATOM      4  C   LIG    1       22.893 -20.324   6.355  0.00  0.00    +0.005 A 
ATOM      5  C   LIG    1       22.361 -20.699   5.125  0.00  0.00    +0.000 A 
ATOM      6  C   LIG    1       23.169 -21.350   4.215  0.00  0.00    +0.002 A 
ATOM      7  C   LIG    1       24.653 -20.090   8.070  0.00  0.00    +0.041 C 
ATOM      8  C   LIG    1       25.785 -20.799   8.792  0.00  0.00    +0.041 C 
ATOM      9  C   LIG    1       27.102 -20.550   8.111  0.00  0.00    -0.026 A 
ATOM     10  C   LIG    1       28.098 -19.818   8.781  0.00  0.00    +0.005 A 
ATOM     11  C   LIG    1       29.329 -19.561   8.172  0.00  0.00    +0.000 A 
ATOM     12  C   LIG    1       29.577 -20.057   6.898  0.00  0.00    +0.002 A 
ATOM     13  C   LIG    1       28.594 -20.786   6.231  0.00  0.00    +0.024 A 
ATOM     14  C   LIG    1       24.490 -21.634   4.558  0.00  0.00    +0.024 A 
ATOM     15  C   LIG    1       27.341 -21.037   6.819  0.00  0.00    +0.037 A 
ENDROOT
BRANCH   1  16
ATOM     16  C   LIG    1       26.593 -23.243   6.232  0.00  0.00    +0.112 C 
BRANCH  16  17
ATOM     17  C   LIG    1       25.460 -23.937   7.003  0.00  0.00    +0.034 C 
BRANCH  17  18
ATOM     18  C   LIG    1       25.011 -25.281   6.430  0.00  0.00    +0.082 C 
BRANCH  18  20
ATOM     19  C   LIG    1       22.931 -24.066   6.753  0.00  0.00    +0.101 C 
ATOM     20  N   LIG    1       23.600 -25.144   6.047  0.00  0.00    -0.319 NA
ATOM     21  H   LIG    1       23.109 -26.021   6.218  0.00  0.00    +0.122 HD
ENDBRANCH  18  20
ENDBRANCH  17  18
ENDBRANCH  16  17
ENDBRANCH   1  16
TORSDOF 4
ENDMDL
MODEL 8
REMARK VINA RESULT:      -6.0      1.844      4.867
REMARK  Name = *****
REMARK                            x       y       z     vdW  Elec       q    Type
REMARK                         _______ _______ _______ _____ _____    ______ ____
ROOT
ATOM      1  N   LIG    1       25.873 -21.459   5.384  0.00  0.00    -0.300 N 
ATOM      2  C   LIG    1       26.785 -20.774   6.236  0.00  0.00    +0.037 A 
ATOM      3  C   LIG    1       26.598 -20.488   7.602  0.00  0.00    -0.026 A 
ATOM      4  C   LIG    1       27.616 -19.796   8.309  0.00  0.00    +0.005 A 
ATOM      5  C   LIG    1       28.796 -19.384   7.697  0.00  0.00    +0.000 A 
ATOM      6  C   LIG    1       29.014 -19.712   6.375  0.00  0.00    +0.002 A 
ATOM      7  C   LIG    1       25.423 -20.923   8.446  0.00  0.00    +0.041 C 
ATOM      8  C   LIG    1       24.099 -21.152   7.740  0.00  0.00    +0.041 C 
ATOM      9  C   LIG    1       24.139 -22.403   6.906  0.00  0.00    -0.026 A 
ATOM     10  C   LIG    1       23.318 -23.491   7.253  0.00  0.00    +0.005 A 
ATOM     11  C   LIG    1       23.339 -24.670   6.505  0.00  0.00    +0.000 A 
ATOM     12  C   LIG    1       24.165 -24.757   5.391  0.00  0.00    +0.002 A 
ATOM     13  C   LIG    1       24.979 -23.681   5.041  0.00  0.00    +0.024 A 
ATOM     14  C   LIG    1       28.040 -20.428   5.680  0.00  0.00    +0.024 A 
ATOM     15  C   LIG    1       24.988 -22.493   5.794  0.00  0.00    +0.037 A 
ENDROOT
BRANCH   1  16
ATOM     16  C   LIG    1       25.219 -20.602   4.331  0.00  0.00    +0.112 C 
BRANCH  16  17
ATOM     17  C   LIG    1       25.436 -19.095   4.537  0.00  0.00    +0.034 C 
BRANCH  17  18
ATOM     18  C   LIG    1       25.350 -18.247   3.268  0.00  0.00    +0.082 C 
BRANCH  18  20
ATOM     19  C   LIG    1       26.257 -15.995   3.383  0.00  0.00    +0.101 C 
ATOM     20  N   LIG    1       26.553 -17.407   3.222  0.00  0.00    -0.319 NA
ATOM     21  H   LIG    1       27.045 -17.554   2.340  0.00  0.00    +0.122 HD
ENDBRANCH  18  20
ENDBRANCH  17  18
ENDBRANCH  16  17
ENDBRANCH   1  16
TORSDOF 4
ENDMDL
MODEL 9
REMARK VINA RESULT:      -5.9      5.266      9.265
REMARK  Name = *****
REMARK                            x       y       z     vdW  Elec       q    Type
REMARK                         _______ _______ _______ _____ _____    ______ ____
ROOT
ATOM      1  N   LIG    1       25.177 -29.693   7.128  0.00  0.00    -0.300 N 
ATOM      2  C   LIG    1       25.518 -29.617   8.508  0.00  0.00    +0.037 A 
ATOM      3  C   LIG    1       25.191 -30.560   9.501  0.00  0.00    -0.026 A 
ATOM      4  C   LIG    1       25.613 -30.333  10.837  0.00  0.00    +0.005 A 
ATOM      5  C   LIG    1       26.341 -29.204  11.203  0.00  0.00    +0.000 A 
ATOM      6  C   LIG    1       26.719 -28.306  10.226  0.00  0.00    +0.002 A 
ATOM      7  C   LIG    1       24.479 -31.874   9.277  0.00  0.00    +0.041 C 
ATOM      8  C   LIG    1       23.538 -31.968   8.089  0.00  0.00    +0.041 C 
ATOM      9  C   LIG    1       24.301 -32.002   6.794  0.00  0.00    -0.026 A 
ATOM     10  C   LIG    1       24.260 -33.161   5.999  0.00  0.00    +0.005 A 
ATOM     11  C   LIG    1       24.965 -33.229   4.796  0.00  0.00    +0.000 A 
ATOM     12  C   LIG    1       25.698 -32.127   4.370  0.00  0.00    +0.002 A 
ATOM     13  C   LIG    1       25.739 -30.974   5.153  0.00  0.00    +0.024 A 
ATOM     14  C   LIG    1       26.345 -28.539   8.904  0.00  0.00    +0.024 A 
ATOM     15  C   LIG    1       25.053 -30.894   6.379  0.00  0.00    +0.037 A 
ENDROOT
BRANCH   1  16
ATOM     16  C   LIG    1       24.156 -28.685   6.669  0.00  0.00    +0.112 C 
BRANCH  16  17
ATOM     17  C   LIG    1       24.712 -27.642   5.688  0.00  0.00    +0.034 C 
BRANCH  17  18
ATOM     18  C   LIG    1       24.881 -26.235   6.263  0.00  0.00    +0.082 C 
BRANCH  18  20
ATOM     19  C   LIG    1       23.509 -24.267   6.651  0.00  0.00    +0.101 C 
ATOM     20  N   LIG    1       23.724 -25.443   5.828  0.00  0.00    -0.319 NA
ATOM     21  H   LIG    1       22.885 -26.023   5.836  0.00  0.00    +0.122 HD
ENDBRANCH  18  20
ENDBRANCH  17  18
ENDBRANCH  16  17
ENDBRANCH   1  16
TORSDOF 4
ENDMDL
