MODEL 1
REMARK VINA RESULT:      63.4      0.000      0.000
REMARK  Name = *****
REMARK                            x       y       z     vdW  Elec       q    Type
REMARK                         _______ _______ _______ _____ _____    ______ ____
ROOT
ATOM      1  C   LIG    1       24.995 -14.274   2.717  0.00  0.00    +0.218 C 
ATOM      2  C   LIG    1       25.120 -15.874   2.867  0.00  0.00    +0.188 C 
ATOM      3  C   LIG    1       23.899 -16.881   3.429  0.00  0.00    +0.157 C 
ATOM      4  C   LIG    1       22.654 -16.036   3.929  0.00  0.00    +0.028 C 
ATOM      5  C   LIG    1       22.931 -15.128   5.167  0.00  0.00    +0.012 C 
ATOM      6  C   LIG    1       21.702 -14.389   5.810  0.00  0.00    +0.019 C 
ATOM      7  C   LIG    1       21.165 -15.115   7.053  0.00  0.00    +0.010 C 
ATOM      8  C   LIG    1       21.973 -12.888   6.112  0.00  0.00    +0.140 C 
ATOM      9  C   LIG    1       23.366 -12.573   6.604  0.00  0.00    +0.004 C 
ATOM     10  C   LIG    1       24.190 -11.862   5.817  0.00  0.00    -0.002 C 
ATOM     11  C   LIG    1       25.617 -11.685   5.860  0.00  0.00    -0.004 C 
ATOM     12  C   LIG    1       26.502 -12.263   6.681  0.00  0.00    -0.023 C 
ATOM     13  C   LIG    1       27.979 -12.238   6.375  0.00  0.00    +0.071 C 
ATOM     14  C   LIG    1       28.470 -13.081   5.156  0.00  0.00    +0.177 C 
ATOM     15  C   LIG    1       29.200 -14.340   5.648  0.00  0.00    +0.052 C 
ATOM     16  O   LIG    1       27.398 -13.478   4.244  0.00  0.00    -0.461 OA
ATOM     17  C   LIG    1       27.321 -12.943   3.005  0.00  0.00    +0.311 C 
ATOM     18  O   LIG    1       28.085 -12.068   2.598  0.00  0.00    -0.251 OA
ATOM     19  C   LIG    1       26.230 -13.531   2.101  0.00  0.00    +0.168 C 
ENDROOT
BRANCH   8  20
ATOM     20  O   LIG    1       21.017 -12.369   7.026  0.00  0.00    -0.388 OA
ATOM     21  H   LIG    1       20.176 -12.266   6.554  0.00  0.00    +0.210 HD
ENDBRANCH   8  20
BRANCH   2  22
ATOM     22  O   LIG    1       26.404 -16.241   3.364  0.00  0.00    -0.373 OA
ATOM     23  C   LIG    1       26.934 -15.377   4.348  0.00  0.00    +0.194 C 
ENDBRANCH   2  22
BRANCH   3  24
ATOM     24  O   LIG    1       24.426 -18.018   4.263  0.00  0.00    -0.343 OA
BRANCH  24  25
ATOM     25  C   LIG    1       25.811 -18.044   4.719  0.00  0.00    +0.281 C 
ATOM     26  C   LIG    1       26.982 -18.415   3.704  0.00  0.00    +0.190 C 
ATOM     27  C   LIG    1       28.205 -17.296   3.564  0.00  0.00    +0.121 C 
ATOM     28  C   LIG    1       28.603 -16.859   5.003  0.00  0.00    +0.169 C 
ATOM     29  C   LIG    1       27.332 -16.634   5.816  0.00  0.00    +0.149 C 
ATOM     30  C   LIG    1       27.260 -15.207   6.367  0.00  0.00    +0.040 C 
ATOM     31  O   LIG    1       26.134 -16.737   5.080  0.00  0.00    -0.343 OA
BRANCH  27  32
ATOM     32  N   LIG    1       28.038 -16.142   2.601  0.00  0.00    -0.301 NA
ATOM     33  C   LIG    1       26.667 -15.957   2.157  0.00  0.00    +0.105 C 
ATOM     34  C   LIG    1       28.624 -14.820   2.921  0.00  0.00    +0.105 C 
ENDBRANCH  27  32
BRANCH  26  35
ATOM     35  O   LIG    1       27.573 -19.623   4.257  0.00  0.00    -0.385 OA
ATOM     36  H   LIG    1       28.251 -19.356   4.902  0.00  0.00    +0.210 HD
ENDBRANCH  26  35
BRANCH  28  37
ATOM     37  O   LIG    1       29.474 -17.860   5.583  0.00  0.00    -0.344 OA
BRANCH  37  38
ATOM     38  C   LIG    1       28.962 -19.094   6.128  0.00  0.00    +0.254 C 
ATOM     39  O   LIG    1       29.237 -20.300   5.403  0.00  0.00    -0.344 OA
ATOM     40  C   LIG    1       28.341 -20.540   4.332  0.00  0.00    +0.162 C 
ATOM     41  C   LIG    1       28.871 -21.567   3.348  0.00  0.00    +0.042 C 
ATOM     42  C   LIG    1       26.835 -20.655   4.671  0.00  0.00    +0.236 C 
ATOM     43  C   LIG    1       26.554 -20.044   6.061  0.00  0.00    +0.107 C 
ATOM     44  C   LIG    1       26.484 -21.255   6.974  0.00  0.00    +0.045 C 
ATOM     45  C   LIG    1       27.527 -18.998   6.606  0.00  0.00    +0.099 C 
BRANCH  43  46
ATOM     46  O   LIG    1       25.282 -19.372   6.122  0.00  0.00    -0.385 OA
ATOM     47  H   LIG    1       24.682 -19.833   5.508  0.00  0.00    +0.210 HD
ENDBRANCH  43  46
BRANCH  42  48
ATOM     48  O   LIG    1       25.994 -20.001   3.679  0.00  0.00    -0.456 OA
BRANCH  48  49
ATOM     49  C   LIG    1       24.696 -20.420   3.488  0.00  0.00    +0.307 C 
ATOM     50  O   LIG    1       23.952 -20.799   4.326  0.00  0.00    -0.251 OA
BRANCH  49  51
ATOM     51  C   LIG    1       24.345 -20.257   2.007  0.00  0.00    +0.117 C 
ATOM     52  C   LIG    1       22.844 -20.117   1.886  0.00  0.00    +0.015 C 
ENDBRANCH  49  51
ENDBRANCH  48  49
ENDBRANCH  42  48
ENDBRANCH  37  38
ENDBRANCH  28  37
ENDBRANCH  24  25
ENDBRANCH   3  24
BRANCH   4  53
ATOM     53  C   LIG    1       21.411 -16.821   4.260  0.00  0.00    +0.077 C 
BRANCH  53  54
ATOM     54  C   LIG    1       20.916 -17.834   3.329  0.00  0.00    +0.223 C 
ATOM     55  O   LIG    1       21.778 -18.455   2.544  0.00  0.00    -0.301 OA
ENDBRANCH  53  54
ENDBRANCH   4  53
BRANCH   1  56
ATOM     56  O   LIG    1       23.850 -14.000   1.843  0.00  0.00    -0.458 OA
BRANCH  56  57
ATOM     57  C   LIG    1       22.709 -13.515   2.409  0.00  0.00    +0.307 C 
ATOM     58  O   LIG    1       21.726 -14.192   2.681  0.00  0.00    -0.251 OA
BRANCH  57  60
ATOM     59  C   LIG    1       24.229 -11.535   2.676  0.00  0.00    +0.015 C 
ATOM     60  C   LIG    1       22.795 -12.036   2.708  0.00  0.00    +0.117 C 
ENDBRANCH  57  60
ENDBRANCH  56  57
ENDBRANCH   1  56
TORSDOF 17
ENDMDL
MODEL 2
REMARK VINA RESULT:      64.9      2.059      5.305
REMARK  Name = *****
REMARK                            x       y       z     vdW  Elec       q    Type
REMARK                         _______ _______ _______ _____ _____    ______ ____
ROOT
ATOM      1  C   LIG    1       26.870 -15.754   2.758  0.00  0.00    +0.218 C 
ATOM      2  C   LIG    1       25.296 -16.073   2.893  0.00  0.00    +0.188 C 
ATOM      3  C   LIG    1       24.137 -14.974   3.410  0.00  0.00    +0.157 C 
ATOM      4  C   LIG    1       24.812 -13.621   3.886  0.00  0.00    +0.028 C 
ATOM      5  C   LIG    1       25.729 -13.751   5.141  0.00  0.00    +0.012 C 
ATOM      6  C   LIG    1       26.300 -12.424   5.760  0.00  0.00    +0.019 C 
ATOM      7  C   LIG    1       25.495 -11.950   6.979  0.00  0.00    +0.010 C 
ATOM      8  C   LIG    1       27.818 -12.498   6.087  0.00  0.00    +0.140 C 
ATOM      9  C   LIG    1       28.297 -13.828   6.620  0.00  0.00    +0.004 C 
ATOM     10  C   LIG    1       29.116 -14.576   5.864  0.00  0.00    -0.002 C 
ATOM     11  C   LIG    1       29.469 -15.969   5.947  0.00  0.00    -0.004 C 
ATOM     12  C   LIG    1       28.993 -16.898   6.785  0.00  0.00    -0.023 C 
ATOM     13  C   LIG    1       29.206 -18.367   6.519  0.00  0.00    +0.071 C 
ATOM     14  C   LIG    1       28.449 -18.990   5.303  0.00  0.00    +0.177 C 
ATOM     15  C   LIG    1       27.283 -19.859   5.800  0.00  0.00    +0.052 C 
ATOM     16  O   LIG    1       27.935 -17.999   4.359  0.00  0.00    -0.461 OA
ATOM     17  C   LIG    1       28.476 -17.887   3.124  0.00  0.00    +0.311 C 
ATOM     18  O   LIG    1       29.444 -18.546   2.748  0.00  0.00    -0.251 OA
ATOM     19  C   LIG    1       27.770 -16.901   2.184  0.00  0.00    +0.168 C 
ENDROOT
BRANCH   8  20
ATOM     20  O   LIG    1       28.201 -11.462   6.981  0.00  0.00    -0.388 OA
ATOM     21  H   LIG    1       28.632 -10.764   6.463  0.00  0.00    +0.210 HD
ENDBRANCH   8  20
BRANCH   2  22
ATOM     22  O   LIG    1       25.084 -17.380   3.420  0.00  0.00    -0.373 OA
ATOM     23  C   LIG    1       25.938 -18.379   2.902  0.00  0.00    +0.194 C 
ENDBRANCH   2  22
BRANCH   3  24
ATOM     24  O   LIG    1       23.062 -15.617   4.244  0.00  0.00    -0.343 OA
BRANCH  24  25
ATOM     25  C   LIG    1       23.054 -17.054   4.492  0.00  0.00    +0.281 C 
ATOM     26  C   LIG    1       22.100 -17.668   5.610  0.00  0.00    +0.190 C 
ATOM     27  C   LIG    1       21.061 -18.865   5.102  0.00  0.00    +0.121 C 
ATOM     28  C   LIG    1       21.882 -19.853   4.225  0.00  0.00    +0.169 C 
ATOM     29  C   LIG    1       22.779 -19.049   3.289  0.00  0.00    +0.149 C 
ATOM     30  C   LIG    1       22.501 -19.381   1.820  0.00  0.00    +0.040 C 
ATOM     31  O   LIG    1       22.575 -17.655   3.330  0.00  0.00    -0.343 OA
BRANCH  27  32
ATOM     32  N   LIG    1       19.731 -18.475   4.498  0.00  0.00    -0.301 NA
ATOM     33  C   LIG    1       19.405 -17.072   4.682  0.00  0.00    +0.105 C 
ATOM     34  C   LIG    1       19.407 -18.867   3.107  0.00  0.00    +0.105 C 
ENDBRANCH  27  32
BRANCH  26  35
ATOM     35  O   LIG    1       23.008 -18.274   6.571  0.00  0.00    -0.385 OA
ATOM     36  H   LIG    1       23.901 -18.266   6.185  0.00  0.00    +0.210 HD
ENDBRANCH  26  35
BRANCH  28  37
ATOM     37  O   LIG    1       22.626 -20.751   5.086  0.00  0.00    -0.344 OA
BRANCH  37  38
ATOM     38  C   LIG    1       23.850 -21.382   4.654  0.00  0.00    +0.254 C 
ATOM     39  O   LIG    1       24.896 -21.525   5.624  0.00  0.00    -0.344 OA
ATOM     40  C   LIG    1       25.692 -20.364   5.782  0.00  0.00    +0.162 C 
ATOM     41  C   LIG    1       26.507 -20.386   7.062  0.00  0.00    +0.042 C 
ATOM     42  C   LIG    1       26.427 -19.823   4.531  0.00  0.00    +0.236 C 
ATOM     43  C   LIG    1       25.794 -20.406   3.249  0.00  0.00    +0.107 C 
ATOM     44  C   LIG    1       26.734 -21.537   2.871  0.00  0.00    +0.045 C 
ATOM     45  C   LIG    1       24.345 -20.892   3.309  0.00  0.00    +0.099 C 
BRANCH  43  46
ATOM     46  O   LIG    1       25.780 -19.462   2.161  0.00  0.00    -0.385 OA
ATOM     47  H   LIG    1       26.708 -19.273   1.932  0.00  0.00    +0.210 HD
ENDBRANCH  43  46
BRANCH  42  48
ATOM     48  O   LIG    1       26.402 -18.370   4.461  0.00  0.00    -0.456 OA
BRANCH  48  49
ATOM     49  C   LIG    1       25.838 -17.638   5.483  0.00  0.00    +0.307 C 
ATOM     50  O   LIG    1       24.892 -17.944   6.124  0.00  0.00    -0.251 OA
BRANCH  49  51
ATOM     51  C   LIG    1       26.680 -16.378   5.701  0.00  0.00    +0.117 C 
ATOM     52  C   LIG    1       26.562 -15.508   4.470  0.00  0.00    +0.015 C 
ENDBRANCH  49  51
ENDBRANCH  48  49
ENDBRANCH  42  48
ENDBRANCH  37  38
ENDBRANCH  28  37
ENDBRANCH  24  25
ENDBRANCH   3  24
BRANCH   4  53
ATOM     53  C   LIG    1       23.875 -12.477   4.174  0.00  0.00    +0.077 C 
BRANCH  53  54
ATOM     54  C   LIG    1       23.526 -11.532   3.114  0.00  0.00    +0.223 C 
ATOM     55  O   LIG    1       23.469 -11.964   1.867  0.00  0.00    -0.301 OA
ENDBRANCH  53  54
ENDBRANCH   4  53
BRANCH   1  56
ATOM     56  O   LIG    1       27.013 -14.606   1.856  0.00  0.00    -0.458 OA
BRANCH  56  57
ATOM     57  C   LIG    1       27.311 -13.393   2.401  0.00  0.00    +0.307 C 
ATOM     58  O   LIG    1       27.111 -12.317   1.853  0.00  0.00    -0.251 OA
BRANCH  57  60
ATOM     59  C   LIG    1       29.342 -13.963   3.763  0.00  0.00    +0.015 C 
ATOM     60  C   LIG    1       27.892 -13.510   3.792  0.00  0.00    +0.117 C 
ENDBRANCH  57  60
ENDBRANCH  56  57
ENDBRANCH   1  56
TORSDOF 17
ENDMDL
