MODEL 1
REMARK VINA RESULT:      31.9      0.000      0.000
REMARK  Name = *****
REMARK                            x       y       z     vdW  Elec       q    Type
REMARK                         _______ _______ _______ _____ _____    ______ ____
ROOT
ATOM      1  O   LIG    1       25.265 -16.154   3.039  0.00  0.00    -0.340 OA
ENDROOT
BRANCH   1   5
ATOM      2  C   LIG    1       24.568 -18.783   5.098  0.00  0.00    +0.283 C 
ATOM      3  C   LIG    1       25.586 -19.437   4.124  0.00  0.00    +0.201 C 
ATOM      4  C   LIG    1       26.004 -18.523   2.972  0.00  0.00    +0.180 C 
ATOM      5  C   LIG    1       24.945 -17.502   2.568  0.00  0.00    +0.192 C 
ATOM      6  C   LIG    1       23.558 -17.913   3.078  0.00  0.00    +0.261 C 
ATOM      7  O   LIG    1       23.616 -17.903   4.499  0.00  0.00    -0.332 OA
BRANCH   6   8
ATOM      8  C   LIG    1       22.999 -19.212   2.431  0.00  0.00    +0.337 C 
ATOM      9  O   LIG    1       21.806 -19.458   2.340  0.00  0.00    -0.248 OA
BRANCH   8  10
ATOM     10  O   LIG    1       23.925 -20.072   1.944  0.00  0.00    -0.479 OA
ATOM     11  H   LIG    1       23.930 -20.986   2.284  0.00  0.00    +0.295 HD
ENDBRANCH   8  10
ENDBRANCH   6   8
BRANCH   4  12
ATOM     12  O   LIG    1       26.310 -19.308   1.813  0.00  0.00    -0.386 OA
ATOM     13  H   LIG    1       26.307 -20.250   2.073  0.00  0.00    +0.210 HD
ENDBRANCH   4  12
BRANCH   3  14
ATOM     14  O   LIG    1       26.800 -19.839   4.789  0.00  0.00    -0.384 OA
ATOM     15  H   LIG    1       27.561 -19.428   4.343  0.00  0.00    +0.210 HD
ENDBRANCH   3  14
BRANCH   2  16
ATOM     16  O   LIG    1       23.783 -19.700   5.839  0.00  0.00    -0.341 OA
BRANCH  16  18
ATOM     17  C   LIG    1       23.432 -21.561   4.171  0.00  0.00    +0.160 C 
ATOM     18  C   LIG    1       23.842 -21.112   5.596  0.00  0.00    +0.177 C 
ATOM     19  C   LIG    1       25.352 -21.433   5.752  0.00  0.00    +0.176 C 
ATOM     20  C   LIG    1       26.163 -20.738   4.633  0.00  0.00    +0.178 C 
ATOM     21  O   LIG    1       25.670 -21.082   3.321  0.00  0.00    -0.341 OA
ATOM     22  C   LIG    1       24.289 -20.772   3.153  0.00  0.00    +0.270 C 
BRANCH  17  25
ATOM     23  C   LIG    1       19.643 -21.136   4.392  0.00  0.00    +0.109 C 
ATOM     24  C   LIG    1       21.083 -21.070   4.829  0.00  0.00    +0.210 C 
ATOM     25  N   LIG    1       21.986 -21.532   3.894  0.00  0.00    -0.305 N 
ATOM     26  H   LIG    1       21.621 -22.147   3.189  0.00  0.00    +0.149 HD
ATOM     27  O   LIG    1       21.403 -20.600   5.921  0.00  0.00    -0.276 OA
ENDBRANCH  17  25
BRANCH  22  28
ATOM     28  O   LIG    1       23.951 -21.132   1.827  0.00  0.00    -0.365 OA
ATOM     29  H   LIG    1       24.810 -21.323   1.414  0.00  0.00    +0.212 HD
ENDBRANCH  22  28
BRANCH  19  30
ATOM     30  O   LIG    1       25.817 -21.002   7.037  0.00  0.00    -0.387 OA
ATOM     31  H   LIG    1       25.803 -21.779   7.634  0.00  0.00    +0.210 HD
ENDBRANCH  19  30
BRANCH  20  32
ATOM     32  C   LIG    1       27.646 -21.134   4.674  0.00  0.00    +0.190 C 
BRANCH  32  33
ATOM     33  O   LIG    1       28.332 -20.445   5.720  0.00  0.00    -0.392 OA
ATOM     34  H   LIG    1       27.643 -20.118   6.326  0.00  0.00    +0.209 HD
ENDBRANCH  32  33
ENDBRANCH  20  32
ENDBRANCH  16  18
ENDBRANCH   2  16
ENDBRANCH   1   5
BRANCH   1  35
ATOM     35  C   LIG    1       26.667 -15.817   3.202  0.00  0.00    +0.274 C 
ATOM     36  C   LIG    1       26.869 -14.319   3.559  0.00  0.00    +0.160 C 
ATOM     37  C   LIG    1       27.034 -14.176   5.089  0.00  0.00    +0.177 C 
ATOM     38  C   LIG    1       28.312 -14.933   5.519  0.00  0.00    +0.176 C 
ATOM     39  C   LIG    1       28.544 -16.229   4.695  0.00  0.00    +0.178 C 
ATOM     40  O   LIG    1       27.309 -16.727   4.140  0.00  0.00    -0.341 OA
BRANCH  36  41
ATOM     41  N   LIG    1       27.924 -13.728   2.707  0.00  0.00    -0.305 N 
ATOM     42  H   LIG    1       28.279 -14.267   1.925  0.00  0.00    +0.149 HD
ATOM     43  C   LIG    1       28.421 -12.459   2.881  0.00  0.00    +0.210 C 
ATOM     44  O   LIG    1       28.027 -11.706   3.775  0.00  0.00    -0.276 OA
ATOM     45  C   LIG    1       29.472 -12.033   1.886  0.00  0.00    +0.109 C 
ENDBRANCH  36  41
BRANCH  38  46
ATOM     46  O   LIG    1       29.472 -14.100   5.385  0.00  0.00    -0.387 OA
ATOM     47  H   LIG    1       30.224 -14.723   5.291  0.00  0.00    +0.210 HD
ENDBRANCH  38  46
BRANCH  39  48
ATOM     48  C   LIG    1       29.265 -17.283   5.583  0.00  0.00    +0.190 C 
BRANCH  48  49
ATOM     49  O   LIG    1       28.313 -18.164   6.192  0.00  0.00    -0.392 OA
ATOM     50  H   LIG    1       28.655 -18.441   7.061  0.00  0.00    +0.209 HD
ENDBRANCH  48  49
ENDBRANCH  39  48
BRANCH  37  51
ATOM     51  O   LIG    1       25.926 -14.736   5.869  0.00  0.00    -0.341 OA
BRANCH  51  52
ATOM     52  C   LIG    1       25.026 -13.822   6.503  0.00  0.00    +0.283 C 
ATOM     53  C   LIG    1       25.272 -12.353   6.058  0.00  0.00    +0.201 C 
ATOM     54  C   LIG    1       24.616 -12.081   4.703  0.00  0.00    +0.179 C 
ATOM     55  C   LIG    1       23.115 -12.374   4.802  0.00  0.00    +0.185 C 
ATOM     56  C   LIG    1       22.899 -13.813   5.276  0.00  0.00    +0.260 C 
ATOM     57  O   LIG    1       23.660 -14.228   6.415  0.00  0.00    -0.332 OA
BRANCH  56  58
ATOM     58  C   LIG    1       22.986 -14.697   4.005  0.00  0.00    +0.337 C 
ATOM     59  O   LIG    1       23.186 -14.311   2.887  0.00  0.00    -0.248 OA
BRANCH  58  60
ATOM     60  O   LIG    1       22.673 -15.994   4.294  0.00  0.00    -0.479 OA
ATOM     61  H   LIG    1       23.496 -16.506   4.373  0.00  0.00    +0.295 HD
ENDBRANCH  58  60
ENDBRANCH  56  58
BRANCH  55  62
ATOM     62  O   LIG    1       22.482 -11.460   5.714  0.00  0.00    -0.386 OA
ATOM     63  H   LIG    1       22.067 -12.021   6.400  0.00  0.00    +0.210 HD
ENDBRANCH  55  62
BRANCH  54  64
ATOM     64  O   LIG    1       25.203 -12.866   3.669  0.00  0.00    -0.386 OA
ATOM     65  H   LIG    1       25.454 -12.299   2.918  0.00  0.00    +0.210 HD
ENDBRANCH  54  64
BRANCH  53  66
ATOM     66  O   LIG    1       24.758 -11.453   7.061  0.00  0.00    -0.384 OA
ATOM     67  H   LIG    1       25.361 -10.673   7.091  0.00  0.00    +0.210 HD
ENDBRANCH  53  66
ENDBRANCH  51  52
ENDBRANCH  37  51
ENDBRANCH   1  35
TORSDOF 24
ENDMDL
MODEL 2
REMARK VINA RESULT:      33.3      1.790      5.018
REMARK  Name = *****
REMARK                            x       y       z     vdW  Elec       q    Type
REMARK                         _______ _______ _______ _____ _____    ______ ____
ROOT
ATOM      1  O   LIG    1       25.320 -15.671   5.763  0.00  0.00    -0.340 OA
ENDROOT
BRANCH   1   5
ATOM      2  C   LIG    1       24.719 -18.647   4.207  0.00  0.00    +0.283 C 
ATOM      3  C   LIG    1       26.171 -18.868   4.711  0.00  0.00    +0.201 C 
ATOM      4  C   LIG    1       26.790 -17.630   5.358  0.00  0.00    +0.180 C 
ATOM      5  C   LIG    1       26.245 -16.308   4.827  0.00  0.00    +0.192 C 
ATOM      6  C   LIG    1       25.557 -16.500   3.469  0.00  0.00    +0.261 C 
ATOM      7  O   LIG    1       24.437 -17.348   3.685  0.00  0.00    -0.332 OA
BRANCH   6   8
ATOM      8  C   LIG    1       26.517 -16.925   2.321  0.00  0.00    +0.337 C 
ATOM      9  O   LIG    1       26.507 -18.037   1.813  0.00  0.00    -0.248 OA
BRANCH   8  10
ATOM     10  O   LIG    1       27.375 -15.972   1.888  0.00  0.00    -0.479 OA
ATOM     11  H   LIG    1       27.005 -15.135   1.553  0.00  0.00    +0.295 HD
ENDBRANCH   8  10
ENDBRANCH   6   8
BRANCH   4  12
ATOM     12  O   LIG    1       28.208 -17.628   5.150  0.00  0.00    -0.386 OA
ATOM     13  H   LIG    1       28.400 -18.156   4.351  0.00  0.00    +0.210 HD
ENDBRANCH   4  12
BRANCH   3  14
ATOM     14  O   LIG    1       26.257 -19.927   5.686  0.00  0.00    -0.384 OA
ATOM     15  H   LIG    1       25.666 -19.724   6.432  0.00  0.00    +0.210 HD
ENDBRANCH   3  14
BRANCH   2  16
ATOM     16  O   LIG    1       24.303 -19.535   3.186  0.00  0.00    -0.341 OA
BRANCH  16  18
ATOM     17  C   LIG    1       25.093 -21.442   4.638  0.00  0.00    +0.160 C 
ATOM     18  C   LIG    1       24.456 -20.955   3.311  0.00  0.00    +0.177 C 
ATOM     19  C   LIG    1       22.993 -21.470   3.299  0.00  0.00    +0.176 C 
ATOM     20  C   LIG    1       22.242 -20.973   4.558  0.00  0.00    +0.178 C 
ATOM     21  O   LIG    1       22.932 -21.337   5.771  0.00  0.00    -0.341 OA
ATOM     22  C   LIG    1       24.272 -20.851   5.809  0.00  0.00    +0.270 C 
BRANCH  17  25
ATOM     23  C   LIG    1       28.642 -20.850   5.916  0.00  0.00    +0.109 C 
ATOM     24  C   LIG    1       27.156 -21.083   5.981  0.00  0.00    +0.210 C 
ATOM     25  N   LIG    1       26.546 -21.233   4.753  0.00  0.00    -0.305 N 
ATOM     26  H   LIG    1       27.040 -20.861   3.963  0.00  0.00    +0.149 HD
ATOM     27  O   LIG    1       26.565 -21.170   7.058  0.00  0.00    -0.276 OA
ENDBRANCH  17  25
BRANCH  22  28
ATOM     28  O   LIG    1       24.814 -21.252   7.053  0.00  0.00    -0.365 OA
ATOM     29  H   LIG    1       25.773 -21.257   6.896  0.00  0.00    +0.212 HD
ENDBRANCH  22  28
BRANCH  19  30
ATOM     30  O   LIG    1       22.322 -21.019   2.116  0.00  0.00    -0.387 OA
ATOM     31  H   LIG    1       22.921 -21.175   1.356  0.00  0.00    +0.210 HD
ENDBRANCH  19  30
BRANCH  20  32
ATOM     32  C   LIG    1       20.829 -21.567   4.650  0.00  0.00    +0.190 C 
BRANCH  32  33
ATOM     33  O   LIG    1       19.890 -20.770   3.926  0.00  0.00    -0.392 OA
ATOM     34  H   LIG    1       19.477 -21.363   3.272  0.00  0.00    +0.209 HD
ENDBRANCH  32  33
ENDBRANCH  20  32
ENDBRANCH  16  18
ENDBRANCH   2  16
ENDBRANCH   1   5
BRANCH   1  35
ATOM     35  C   LIG    1       24.225 -14.902   5.204  0.00  0.00    +0.274 C 
ATOM     36  C   LIG    1       24.653 -13.453   4.844  0.00  0.00    +0.160 C 
ATOM     37  C   LIG    1       24.991 -13.378   3.338  0.00  0.00    +0.177 C 
ATOM     38  C   LIG    1       23.712 -13.699   2.530  0.00  0.00    +0.176 C 
ATOM     39  C   LIG    1       22.829 -14.779   3.214  0.00  0.00    +0.178 C 
ATOM     40  O   LIG    1       23.609 -15.615   4.094  0.00  0.00    -0.341 OA
BRANCH  36  41
ATOM     41  N   LIG    1       23.664 -12.483   5.364  0.00  0.00    -0.305 N 
ATOM     42  H   LIG    1       23.755 -11.507   5.105  0.00  0.00    +0.149 HD
ATOM     43  C   LIG    1       22.588 -12.836   6.141  0.00  0.00    +0.210 C 
ATOM     44  O   LIG    1       22.362 -14.001   6.477  0.00  0.00    -0.276 OA
ATOM     45  C   LIG    1       21.680 -11.700   6.544  0.00  0.00    +0.109 C 
ENDBRANCH  36  41
BRANCH  38  46
ATOM     46  O   LIG    1       22.916 -12.521   2.339  0.00  0.00    -0.387 OA
ATOM     47  H   LIG    1       22.437 -12.671   1.496  0.00  0.00    +0.210 HD
ENDBRANCH  38  46
BRANCH  39  48
ATOM     48  C   LIG    1       22.079 -15.598   2.125  0.00  0.00    +0.190 C 
BRANCH  48  49
ATOM     49  O   LIG    1       21.409 -16.721   2.711  0.00  0.00    -0.392 OA
ATOM     50  H   LIG    1       21.392 -17.449   2.064  0.00  0.00    +0.209 HD
ENDBRANCH  48  49
ENDBRANCH  39  48
BRANCH  37  51
ATOM     51  O   LIG    1       26.017 -14.331   2.904  0.00  0.00    -0.341 OA
BRANCH  51  52
ATOM     52  C   LIG    1       27.382 -13.902   2.932  0.00  0.00    +0.283 C 
ATOM     53  C   LIG    1       27.546 -12.437   2.438  0.00  0.00    +0.201 C 
ATOM     54  C   LIG    1       27.198 -11.448   3.552  0.00  0.00    +0.179 C 
ATOM     55  C   LIG    1       28.098 -11.718   4.763  0.00  0.00    +0.185 C 
ATOM     56  C   LIG    1       27.946 -13.174   5.207  0.00  0.00    +0.260 C 
ATOM     57  O   LIG    1       28.028 -14.164   4.178  0.00  0.00    -0.332 OA
BRANCH  56  58
ATOM     58  C   LIG    1       26.699 -13.210   6.128  0.00  0.00    +0.337 C 
ATOM     59  O   LIG    1       26.310 -14.153   6.758  0.00  0.00    -0.248 OA
BRANCH  58  60
ATOM     60  O   LIG    1       25.997 -12.042   6.038  0.00  0.00    -0.479 OA
ATOM     61  H   LIG    1       25.053 -12.251   5.930  0.00  0.00    +0.295 HD
ENDBRANCH  58  60
ENDBRANCH  56  58
BRANCH  55  62
ATOM     62  O   LIG    1       29.472 -11.447   4.440  0.00  0.00    -0.386 OA
ATOM     63  H   LIG    1       29.450 -10.970   3.586  0.00  0.00    +0.210 HD
ENDBRANCH  55  62
BRANCH  54  64
ATOM     64  O   LIG    1       25.827 -11.543   3.928  0.00  0.00    -0.386 OA
ATOM     65  H   LIG    1       25.365 -10.710   3.725  0.00  0.00    +0.210 HD
ENDBRANCH  54  64
BRANCH  53  66
ATOM     66  O   LIG    1       28.899 -12.231   1.980  0.00  0.00    -0.384 OA
ATOM     67  H   LIG    1       29.455 -12.069   2.777  0.00  0.00    +0.210 HD
ENDBRANCH  53  66
ENDBRANCH  51  52
ENDBRANCH  37  51
ENDBRANCH   1  35
TORSDOF 24
ENDMDL
MODEL 3
REMARK VINA RESULT:      33.5      1.927      7.349
REMARK  Name = *****
REMARK                            x       y       z     vdW  Elec       q    Type
REMARK                         _______ _______ _______ _____ _____    ______ ____
ROOT
ATOM      1  O   LIG    1       27.363 -17.137   3.377  0.00  0.00    -0.340 OA
ENDROOT
BRANCH   1   5
ATOM      2  C   LIG    1       26.515 -13.952   2.495  0.00  0.00    +0.283 C 
ATOM      3  C   LIG    1       27.544 -13.678   3.625  0.00  0.00    +0.201 C 
ATOM      4  C   LIG    1       28.029 -14.944   4.331  0.00  0.00    +0.180 C 
ATOM      5  C   LIG    1       27.016 -16.086   4.333  0.00  0.00    +0.192 C 
ATOM      6  C   LIG    1       25.601 -15.569   4.046  0.00  0.00    +0.261 C 
ATOM      7  O   LIG    1       25.612 -15.033   2.729  0.00  0.00    -0.332 OA
BRANCH   6   8
ATOM      8  C   LIG    1       25.024 -14.640   5.152  0.00  0.00    +0.337 C 
ATOM      9  O   LIG    1       23.996 -14.885   5.767  0.00  0.00    -0.248 OA
BRANCH   8  10
ATOM     10  O   LIG    1       25.745 -13.526   5.420  0.00  0.00    -0.479 OA
ATOM     11  H   LIG    1       26.706 -13.619   5.554  0.00  0.00    +0.295 HD
ENDBRANCH   8  10
ENDBRANCH   6   8
BRANCH   4  12
ATOM     12  O   LIG    1       28.348 -14.649   5.697  0.00  0.00    -0.386 OA
ATOM     13  H   LIG    1       27.612 -14.133   6.078  0.00  0.00    +0.210 HD
ENDBRANCH   4  12
BRANCH   3  14
ATOM     14  O   LIG    1       28.722 -13.002   3.142  0.00  0.00    -0.384 OA
ATOM     15  H   LIG    1       28.980 -12.313   3.778  0.00  0.00    +0.210 HD
ENDBRANCH   3  14
BRANCH   2  16
ATOM     16  O   LIG    1       25.677 -12.856   2.177  0.00  0.00    -0.341 OA
BRANCH  16  18
ATOM     17  C   LIG    1       25.127 -11.544   4.261  0.00  0.00    +0.160 C 
ATOM     18  C   LIG    1       25.785 -11.600   2.860  0.00  0.00    +0.177 C 
ATOM     19  C   LIG    1       27.315 -11.447   3.074  0.00  0.00    +0.176 C 
ATOM     20  C   LIG    1       27.829 -12.543   4.038  0.00  0.00    +0.178 C 
ATOM     21  O   LIG    1       27.106 -12.542   5.286  0.00  0.00    -0.341 OA
ATOM     22  C   LIG    1       25.701 -12.705   5.108  0.00  0.00    +0.270 C 
BRANCH  17  25
ATOM     23  C   LIG    1       21.442 -11.459   5.256  0.00  0.00    +0.109 C 
ATOM     24  C   LIG    1       22.934 -11.526   5.437  0.00  0.00    +0.210 C 
ATOM     25  N   LIG    1       23.657 -11.465   4.263  0.00  0.00    -0.305 N 
ATOM     26  H   LIG    1       23.162 -11.708   3.425  0.00  0.00    +0.149 HD
ATOM     27  O   LIG    1       23.444 -11.590   6.556  0.00  0.00    -0.276 OA
ENDBRANCH  17  25
BRANCH  22  28
ATOM     28  O   LIG    1       25.127 -12.714   6.401  0.00  0.00    -0.365 OA
ATOM     29  H   LIG    1       25.339 -13.600   6.742  0.00  0.00    +0.212 HD
ENDBRANCH  22  28
BRANCH  19  30
ATOM     30  O   LIG    1       27.999 -11.534   1.820  0.00  0.00    -0.387 OA
ATOM     31  H   LIG    1       28.143 -10.621   1.495  0.00  0.00    +0.210 HD
ENDBRANCH  19  30
BRANCH  20  32
ATOM     32  C   LIG    1       29.314 -12.350   4.379  0.00  0.00    +0.190 C 
BRANCH  32  33
ATOM     33  O   LIG    1       29.469 -11.672   5.627  0.00  0.00    -0.392 OA
ATOM     34  H   LIG    1       30.318 -11.196   5.574  0.00  0.00    +0.209 HD
ENDBRANCH  32  33
ENDBRANCH  20  32
ENDBRANCH  16  18
ENDBRANCH   2  16
ENDBRANCH   1   5
BRANCH   1  35
ATOM     35  C   LIG    1       27.248 -18.512   3.823  0.00  0.00    +0.274 C 
ATOM     36  C   LIG    1       26.627 -18.615   5.243  0.00  0.00    +0.160 C 
ATOM     37  C   LIG    1       25.116 -18.913   5.121  0.00  0.00    +0.177 C 
ATOM     38  C   LIG    1       24.939 -20.288   4.436  0.00  0.00    +0.176 C 
ATOM     39  C   LIG    1       26.011 -20.553   3.344  0.00  0.00    +0.178 C 
ATOM     40  O   LIG    1       26.553 -19.319   2.830  0.00  0.00    -0.341 OA
BRANCH  36  41
ATOM     41  N   LIG    1       27.430 -19.527   6.087  0.00  0.00    -0.305 N 
ATOM     42  H   LIG    1       27.683 -19.231   7.023  0.00  0.00    +0.149 HD
ATOM     43  C   LIG    1       27.814 -20.786   5.695  0.00  0.00    +0.210 C 
ATOM     44  O   LIG    1       27.523 -21.259   4.594  0.00  0.00    -0.276 OA
ATOM     45  C   LIG    1       28.603 -21.570   6.715  0.00  0.00    +0.109 C 
ENDBRANCH  36  41
BRANCH  38  46
ATOM     46  O   LIG    1       25.001 -21.352   5.396  0.00  0.00    -0.387 OA
ATOM     47  H   LIG    1       25.957 -21.477   5.577  0.00  0.00    +0.210 HD
ENDBRANCH  38  46
BRANCH  39  48
ATOM     48  C   LIG    1       25.400 -21.446   2.227  0.00  0.00    +0.190 C 
BRANCH  48  49
ATOM     49  O   LIG    1       23.982 -21.570   2.400  0.00  0.00    -0.392 OA
ATOM     50  H   LIG    1       23.771 -22.500   2.600  0.00  0.00    +0.209 HD
ENDBRANCH  48  49
ENDBRANCH  39  48
BRANCH  37  51
ATOM     51  O   LIG    1       24.374 -17.939   4.316  0.00  0.00    -0.341 OA
BRANCH  51  52
ATOM     52  C   LIG    1       23.392 -18.437   3.401  0.00  0.00    +0.283 C 
ATOM     53  C   LIG    1       22.822 -19.812   3.846  0.00  0.00    +0.201 C 
ATOM     54  C   LIG    1       21.749 -19.632   4.921  0.00  0.00    +0.179 C 
ATOM     55  C   LIG    1       20.634 -18.732   4.374  0.00  0.00    +0.185 C 
ATOM     56  C   LIG    1       21.226 -17.399   3.910  0.00  0.00    +0.260 C 
ATOM     57  O   LIG    1       22.387 -17.475   3.078  0.00  0.00    -0.332 OA
BRANCH  56  58
ATOM     58  C   LIG    1       21.318 -16.512   5.178  0.00  0.00    +0.337 C 
ATOM     59  O   LIG    1       20.404 -15.961   5.725  0.00  0.00    -0.248 OA
BRANCH  58  60
ATOM     60  O   LIG    1       22.620 -16.315   5.539  0.00  0.00    -0.479 OA
ATOM     61  H   LIG    1       22.981 -17.151   5.882  0.00  0.00    +0.295 HD
ENDBRANCH  58  60
ENDBRANCH  56  58
BRANCH  55  62
ATOM     62  O   LIG    1       19.960 -19.375   3.279  0.00  0.00    -0.386 OA
ATOM     63  H   LIG    1       19.215 -19.865   3.682  0.00  0.00    +0.210 HD
ENDBRANCH  55  62
BRANCH  54  64
ATOM     64  O   LIG    1       22.291 -19.071   6.114  0.00  0.00    -0.386 OA
ATOM     65  H   LIG    1       22.544 -19.781   6.733  0.00  0.00    +0.210 HD
ENDBRANCH  54  64
BRANCH  53  66
ATOM     66  O   LIG    1       22.281 -20.504   2.700  0.00  0.00    -0.384 OA
ATOM     67  H   LIG    1       23.015 -20.608   2.050  0.00  0.00    +0.210 HD
ENDBRANCH  53  66
ENDBRANCH  51  52
ENDBRANCH  37  51
ENDBRANCH   1  35
TORSDOF 24
ENDMDL
MODEL 4
REMARK VINA RESULT:      33.8      1.693      4.298
REMARK  Name = *****
REMARK                            x       y       z     vdW  Elec       q    Type
REMARK                         _______ _______ _______ _____ _____    ______ ____
ROOT
ATOM      1  O   LIG    1       25.873 -16.411   3.238  0.00  0.00    -0.340 OA
ENDROOT
BRANCH   1   5
ATOM      2  C   LIG    1       24.472 -18.644   5.403  0.00  0.00    +0.283 C 
ATOM      3  C   LIG    1       25.835 -19.330   5.117  0.00  0.00    +0.201 C 
ATOM      4  C   LIG    1       26.667 -18.617   4.051  0.00  0.00    +0.180 C 
ATOM      5  C   LIG    1       25.842 -17.856   3.018  0.00  0.00    +0.192 C 
ATOM      6  C   LIG    1       24.388 -18.347   3.003  0.00  0.00    +0.261 C 
ATOM      7  O   LIG    1       23.832 -18.044   4.276  0.00  0.00    -0.332 OA
BRANCH   6   8
ATOM      8  C   LIG    1       24.215 -19.815   2.519  0.00  0.00    +0.337 C 
ATOM      9  O   LIG    1       25.114 -20.464   2.004  0.00  0.00    -0.248 OA
BRANCH   8  10
ATOM     10  O   LIG    1       22.993 -20.361   2.720  0.00  0.00    -0.479 OA
ATOM     11  H   LIG    1       22.207 -19.808   2.554  0.00  0.00    +0.295 HD
ENDBRANCH   8  10
ENDBRANCH   6   8
BRANCH   4  12
ATOM     12  O   LIG    1       27.473 -19.569   3.344  0.00  0.00    -0.386 OA
ATOM     13  H   LIG    1       27.281 -20.457   3.701  0.00  0.00    +0.210 HD
ENDBRANCH   4  12
BRANCH   3  14
ATOM     14  O   LIG    1       26.664 -19.416   6.294  0.00  0.00    -0.384 OA
ATOM     15  H   LIG    1       26.116 -19.261   7.083  0.00  0.00    +0.210 HD
ENDBRANCH   3  14
BRANCH   2  16
ATOM     16  O   LIG    1       23.484 -19.494   5.958  0.00  0.00    -0.341 OA
BRANCH  16  18
ATOM     17  C   LIG    1       23.035 -21.524   4.528  0.00  0.00    +0.160 C 
ATOM     18  C   LIG    1       23.571 -20.921   5.851  0.00  0.00    +0.177 C 
ATOM     19  C   LIG    1       25.100 -21.184   5.879  0.00  0.00    +0.176 C 
ATOM     20  C   LIG    1       25.766 -20.585   4.617  0.00  0.00    +0.178 C 
ATOM     21  O   LIG    1       25.156 -21.075   3.405  0.00  0.00    -0.341 OA
ATOM     22  C   LIG    1       23.755 -20.820   3.353  0.00  0.00    +0.270 C 
BRANCH  17  25
ATOM     23  C   LIG    1       19.357 -20.649   3.991  0.00  0.00    +0.109 C 
ATOM     24  C   LIG    1       20.847 -20.441   4.047  0.00  0.00    +0.210 C 
ATOM     25  N   LIG    1       21.569 -21.562   4.402  0.00  0.00    -0.305 N 
ATOM     26  H   LIG    1       21.064 -22.278   4.892  0.00  0.00    +0.149 HD
ATOM     27  O   LIG    1       21.357 -19.359   3.754  0.00  0.00    -0.276 OA
ENDBRANCH  17  25
BRANCH  22  28
ATOM     28  O   LIG    1       23.297 -21.322   2.112  0.00  0.00    -0.365 OA
ATOM     29  H   LIG    1       22.356 -21.506   2.270  0.00  0.00    +0.212 HD
ENDBRANCH  22  28
BRANCH  19  30
ATOM     30  O   LIG    1       25.677 -20.612   7.058  0.00  0.00    -0.387 OA
ATOM     31  H   LIG    1       24.949 -20.437   7.691  0.00  0.00    +0.210 HD
ENDBRANCH  19  30
BRANCH  20  32
ATOM     32  C   LIG    1       27.260 -20.935   4.541  0.00  0.00    +0.190 C 
BRANCH  32  33
ATOM     33  O   LIG    1       27.942 -20.529   5.729  0.00  0.00    -0.392 OA
ATOM     34  H   LIG    1       28.837 -20.262   5.449  0.00  0.00    +0.209 HD
ENDBRANCH  32  33
ENDBRANCH  20  32
ENDBRANCH  16  18
ENDBRANCH   2  16
ENDBRANCH   1   5
BRANCH   1  35
ATOM     35  C   LIG    1       24.621 -15.688   3.116  0.00  0.00    +0.274 C 
ATOM     36  C   LIG    1       23.885 -15.562   4.478  0.00  0.00    +0.160 C 
ATOM     37  C   LIG    1       24.197 -14.184   5.103  0.00  0.00    +0.177 C 
ATOM     38  C   LIG    1       23.640 -13.083   4.171  0.00  0.00    +0.176 C 
ATOM     39  C   LIG    1       23.770 -13.452   2.667  0.00  0.00    +0.178 C 
ATOM     40  O   LIG    1       24.828 -14.409   2.451  0.00  0.00    -0.341 OA
BRANCH  36  41
ATOM     41  N   LIG    1       22.459 -15.928   4.324  0.00  0.00    -0.305 N 
ATOM     42  H   LIG    1       22.131 -16.244   3.418  0.00  0.00    +0.149 HD
ATOM     43  C   LIG    1       21.554 -15.914   5.357  0.00  0.00    +0.210 C 
ATOM     44  O   LIG    1       21.860 -15.586   6.506  0.00  0.00    -0.276 OA
ATOM     45  C   LIG    1       20.155 -16.351   4.999  0.00  0.00    +0.109 C 
ENDBRANCH  36  41
BRANCH  38  46
ATOM     46  O   LIG    1       22.258 -12.821   4.453  0.00  0.00    -0.387 OA
ATOM     47  H   LIG    1       21.990 -13.522   5.085  0.00  0.00    +0.210 HD
ENDBRANCH  38  46
BRANCH  39  48
ATOM     48  C   LIG    1       23.961 -12.154   1.832  0.00  0.00    +0.190 C 
BRANCH  48  49
ATOM     49  O   LIG    1       25.145 -11.459   2.246  0.00  0.00    -0.392 OA
ATOM     50  H   LIG    1       25.476 -10.930   1.497  0.00  0.00    +0.209 HD
ENDBRANCH  48  49
ENDBRANCH  39  48
BRANCH  37  51
ATOM     51  O   LIG    1       25.627 -13.912   5.275  0.00  0.00    -0.341 OA
BRANCH  51  52
ATOM     52  C   LIG    1       26.529 -14.427   4.292  0.00  0.00    +0.283 C 
ATOM     53  C   LIG    1       26.481 -13.612   2.969  0.00  0.00    +0.201 C 
ATOM     54  C   LIG    1       27.317 -12.337   3.088  0.00  0.00    +0.179 C 
ATOM     55  C   LIG    1       28.760 -12.712   3.444  0.00  0.00    +0.185 C 
ATOM     56  C   LIG    1       28.778 -13.543   4.728  0.00  0.00    +0.260 C 
ATOM     57  O   LIG    1       27.850 -14.630   4.794  0.00  0.00    -0.332 OA
BRANCH  56  58
ATOM     58  C   LIG    1       28.757 -12.522   5.895  0.00  0.00    +0.337 C 
ATOM     59  O   LIG    1       29.469 -11.564   6.010  0.00  0.00    -0.248 OA
BRANCH  58  60
ATOM     60  O   LIG    1       27.895 -12.923   6.875  0.00  0.00    -0.479 OA
ATOM     61  H   LIG    1       27.930 -12.282   7.606  0.00  0.00    +0.295 HD
ENDBRANCH  58  60
ENDBRANCH  56  58
BRANCH  55  62
ATOM     62  O   LIG    1       29.366 -13.456   2.373  0.00  0.00    -0.386 OA
ATOM     63  H   LIG    1       30.276 -13.651   2.673  0.00  0.00    +0.210 HD
ENDBRANCH  55  62
BRANCH  54  64
ATOM     64  O   LIG    1       26.785 -11.450   4.069  0.00  0.00    -0.386 OA
ATOM     65  H   LIG    1       26.691 -11.911   4.922  0.00  0.00    +0.210 HD
ENDBRANCH  54  64
BRANCH  53  66
ATOM     66  O   LIG    1       26.957 -14.432   1.881  0.00  0.00    -0.384 OA
ATOM     67  H   LIG    1       27.924 -14.565   2.017  0.00  0.00    +0.210 HD
ENDBRANCH  53  66
ENDBRANCH  51  52
ENDBRANCH  37  51
ENDBRANCH   1  35
TORSDOF 24
ENDMDL
MODEL 5
REMARK VINA RESULT:      33.8      1.761      4.371
REMARK  Name = *****
REMARK                            x       y       z     vdW  Elec       q    Type
REMARK                         _______ _______ _______ _____ _____    ______ ____
ROOT
ATOM      1  O   LIG    1       22.666 -16.353   2.278  0.00  0.00    -0.340 OA
ENDROOT
BRANCH   1   5
ATOM      2  C   LIG    1       24.627 -18.209   4.364  0.00  0.00    +0.283 C 
ATOM      3  C   LIG    1       24.229 -19.277   3.309  0.00  0.00    +0.201 C 
ATOM      4  C   LIG    1       23.220 -18.773   2.278  0.00  0.00    +0.180 C 
ATOM      5  C   LIG    1       22.298 -17.672   2.793  0.00  0.00    +0.192 C 
ATOM      6  C   LIG    1       22.275 -17.642   4.326  0.00  0.00    +0.261 C 
ATOM      7  O   LIG    1       23.589 -17.311   4.757  0.00  0.00    -0.332 OA
BRANCH   6   8
ATOM      8  C   LIG    1       21.645 -18.906   4.980  0.00  0.00    +0.337 C 
ATOM      9  O   LIG    1       21.926 -19.290   6.106  0.00  0.00    -0.248 OA
BRANCH   8  10
ATOM     10  O   LIG    1       20.734 -19.565   4.228  0.00  0.00    -0.479 OA
ATOM     11  H   LIG    1       20.938 -20.476   3.947  0.00  0.00    +0.295 HD
ENDBRANCH   8  10
ENDBRANCH   6   8
BRANCH   4  12
ATOM     12  O   LIG    1       22.393 -19.856   1.835  0.00  0.00    -0.386 OA
ATOM     13  H   LIG    1       21.459 -19.587   1.933  0.00  0.00    +0.210 HD
ENDBRANCH   4  12
BRANCH   3  14
ATOM     14  O   LIG    1       25.366 -19.763   2.566  0.00  0.00    -0.384 OA
ATOM     15  H   LIG    1       25.792 -19.018   2.109  0.00  0.00    +0.210 HD
ENDBRANCH   3  14
BRANCH   2  16
ATOM     16  O   LIG    1       25.119 -18.734   5.584  0.00  0.00    -0.341 OA
BRANCH  16  18
ATOM     17  C   LIG    1       24.676 -21.044   4.672  0.00  0.00    +0.160 C 
ATOM     18  C   LIG    1       25.165 -20.144   5.834  0.00  0.00    +0.177 C 
ATOM     19  C   LIG    1       26.681 -20.422   6.011  0.00  0.00    +0.176 C 
ATOM     20  C   LIG    1       27.428 -20.165   4.680  0.00  0.00    +0.178 C 
ATOM     21  O   LIG    1       26.863 -20.926   3.593  0.00  0.00    -0.341 OA
ATOM     22  C   LIG    1       25.474 -20.665   3.402  0.00  0.00    +0.270 C 
BRANCH  17  25
ATOM     23  C   LIG    1       21.157 -21.284   3.209  0.00  0.00    +0.109 C 
ATOM     24  C   LIG    1       22.662 -21.302   3.234  0.00  0.00    +0.210 C 
ATOM     25  N   LIG    1       23.216 -21.084   4.478  0.00  0.00    -0.305 N 
ATOM     26  H   LIG    1       22.631 -20.624   5.151  0.00  0.00    +0.149 HD
ATOM     27  O   LIG    1       23.319 -21.536   2.218  0.00  0.00    -0.276 OA
ENDBRANCH  17  25
BRANCH  22  28
ATOM     28  O   LIG    1       25.062 -21.448   2.298  0.00  0.00    -0.365 OA
ATOM     29  H   LIG    1       25.898 -21.764   1.914  0.00  0.00    +0.212 HD
ENDBRANCH  22  28
BRANCH  19  30
ATOM     30  O   LIG    1       27.218 -19.589   7.045  0.00  0.00    -0.387 OA
ATOM     31  H   LIG    1       26.643 -19.685   7.833  0.00  0.00    +0.210 HD
ENDBRANCH  19  30
BRANCH  20  32
ATOM     32  C   LIG    1       28.911 -20.552   4.775  0.00  0.00    +0.190 C 
BRANCH  32  33
ATOM     33  O   LIG    1       29.405 -20.365   6.102  0.00  0.00    -0.392 OA
ATOM     34  H   LIG    1       28.917 -20.993   6.665  0.00  0.00    +0.209 HD
ENDBRANCH  32  33
ENDBRANCH  20  32
ENDBRANCH  16  18
ENDBRANCH   2  16
ENDBRANCH   1   5
BRANCH   1  35
ATOM     35  C   LIG    1       22.589 -15.231   3.195  0.00  0.00    +0.274 C 
ATOM     36  C   LIG    1       23.468 -15.447   4.457  0.00  0.00    +0.160 C 
ATOM     37  C   LIG    1       24.821 -14.727   4.268  0.00  0.00    +0.177 C 
ATOM     38  C   LIG    1       24.558 -13.209   4.139  0.00  0.00    +0.176 C 
ATOM     39  C   LIG    1       23.243 -12.894   3.375  0.00  0.00    +0.178 C 
ATOM     40  O   LIG    1       22.869 -13.981   2.503  0.00  0.00    -0.341 OA
BRANCH  36  41
ATOM     41  N   LIG    1       22.697 -15.126   5.678  0.00  0.00    -0.305 N 
ATOM     42  H   LIG    1       23.169 -15.153   6.575  0.00  0.00    +0.149 HD
ATOM     43  C   LIG    1       21.379 -14.740   5.666  0.00  0.00    +0.210 C 
ATOM     44  O   LIG    1       20.724 -14.635   4.626  0.00  0.00    -0.276 OA
ATOM     45  C   LIG    1       20.783 -14.428   7.017  0.00  0.00    +0.109 C 
ENDBRANCH  36  41
BRANCH  38  46
ATOM     46  O   LIG    1       24.488 -12.589   5.431  0.00  0.00    -0.387 OA
ATOM     47  H   LIG    1       23.917 -13.181   5.966  0.00  0.00    +0.210 HD
ENDBRANCH  38  46
BRANCH  39  48
ATOM     48  C   LIG    1       23.399 -11.547   2.612  0.00  0.00    +0.190 C 
BRANCH  48  49
ATOM     49  O   LIG    1       24.598 -11.550   1.826  0.00  0.00    -0.392 OA
ATOM     50  H   LIG    1       24.354 -11.569   0.883  0.00  0.00    +0.209 HD
ENDBRANCH  48  49
ENDBRANCH  39  48
BRANCH  37  51
ATOM     51  O   LIG    1       25.556 -15.134   3.066  0.00  0.00    -0.341 OA
BRANCH  51  52
ATOM     52  C   LIG    1       26.975 -14.953   3.056  0.00  0.00    +0.283 C 
ATOM     53  C   LIG    1       27.396 -13.651   2.318  0.00  0.00    +0.201 C 
ATOM     54  C   LIG    1       27.233 -12.435   3.231  0.00  0.00    +0.179 C 
ATOM     55  C   LIG    1       28.075 -12.638   4.496  0.00  0.00    +0.185 C 
ATOM     56  C   LIG    1       27.668 -13.943   5.184  0.00  0.00    +0.260 C 
ATOM     57  O   LIG    1       27.569 -15.099   4.347  0.00  0.00    -0.332 OA
BRANCH  56  58
ATOM     58  C   LIG    1       26.438 -13.595   6.061  0.00  0.00    +0.337 C 
ATOM     59  O   LIG    1       25.633 -14.372   6.494  0.00  0.00    -0.248 OA
BRANCH  58  60
ATOM     60  O   LIG    1       26.296 -12.242   6.183  0.00  0.00    -0.479 OA
ATOM     61  H   LIG    1       25.496 -11.965   5.704  0.00  0.00    +0.295 HD
ENDBRANCH  58  60
ENDBRANCH  56  58
BRANCH  55  62
ATOM     62  O   LIG    1       29.474 -12.675   4.169  0.00  0.00    -0.386 OA
ATOM     63  H   LIG    1       29.643 -11.860   3.655  0.00  0.00    +0.210 HD
ENDBRANCH  55  62
BRANCH  54  64
ATOM     64  O   LIG    1       25.868 -12.219   3.580  0.00  0.00    -0.386 OA
ATOM     65  H   LIG    1       25.744 -11.307   3.900  0.00  0.00    +0.210 HD
ENDBRANCH  54  64
BRANCH  53  66
ATOM     66  O   LIG    1       28.762 -13.771   1.869  0.00  0.00    -0.384 OA
ATOM     67  H   LIG    1       29.154 -12.866   1.884  0.00  0.00    +0.210 HD
ENDBRANCH  53  66
ENDBRANCH  51  52
ENDBRANCH  37  51
ENDBRANCH   1  35
TORSDOF 24
ENDMDL
