MODEL 1
REMARK VINA RESULT:      -6.1      0.000      0.000
REMARK  Name = *****
REMARK                            x       y       z     vdW  Elec       q    Type
REMARK                         _______ _______ _______ _____ _____    ______ ____
ROOT
ATOM      1  C   LIG    1       29.589 -18.136   7.306  0.00  0.00    +0.015 C 
ATOM      2  C   LIG    1       29.735 -19.338   8.257  0.00  0.00    +0.013 C 
ATOM      3  C   LIG    1       31.072 -19.256   9.073  0.00  0.00    +0.168 C 
ATOM      4  C   LIG    1       31.312 -20.690   9.556  0.00  0.00    +0.047 C 
ATOM      5  C   LIG    1       30.601 -21.593   8.541  0.00  0.00    +0.008 C 
ATOM      6  C   LIG    1       29.949 -20.667   7.489  0.00  0.00    +0.002 C 
ATOM      7  C   LIG    1       28.701 -21.307   6.836  0.00  0.00    -0.000 C 
ATOM      8  C   LIG    1       28.424 -20.751   5.416  0.00  0.00    +0.008 C 
ATOM      9  C   LIG    1       27.005 -20.262   5.094  0.00  0.00    +0.032 C 
ATOM     10  C   LIG    1       25.868 -20.856   5.888  0.00  0.00    -0.056 C 
ATOM     11  C   LIG    1       26.205 -21.881   6.960  0.00  0.00    +0.013 C 
ATOM     12  C   LIG    1       26.480 -23.250   6.288  0.00  0.00    +0.020 C 
ATOM     13  C   LIG    1       25.032 -22.151   7.890  0.00  0.00    -0.012 C 
ATOM     14  C   LIG    1       23.799 -21.654   7.722  0.00  0.00    +0.047 C 
ATOM     15  C   LIG    1       23.497 -20.759   6.589  0.00  0.00    +0.179 C 
ATOM     16  O   LIG    1       22.364 -20.343   6.389  0.00  0.00    -0.288 OA
ATOM     17  C   LIG    1       24.627 -20.359   5.722  0.00  0.00    +0.051 C 
ATOM     18  C   LIG    1       27.454 -21.350   7.754  0.00  0.00    +0.035 C 
ATOM     19  C   LIG    1       27.230 -19.976   8.446  0.00  0.00    +0.120 C 
ATOM     20  C   LIG    1       28.482 -19.449   9.151  0.00  0.00    +0.042 C 
ENDROOT
BRANCH   3  21
ATOM     21  O   LIG    1       32.144 -18.959   8.154  0.00  0.00    -0.377 OA
ATOM     22  H   LIG    1       32.228 -17.986   8.118  0.00  0.00    +0.211 HD
ENDBRANCH   3  21
BRANCH   3  23
ATOM     23  C   LIG    1       31.126 -18.226  10.229  0.00  0.00    +0.341 C 
ATOM     24  O   LIG    1       30.713 -18.467  11.354  0.00  0.00    -0.247 OA
BRANCH  23  25
ATOM     25  O   LIG    1       31.627 -17.029   9.827  0.00  0.00    -0.447 OA
BRANCH  25  26
ATOM     26  C   LIG    1       32.864 -16.656  10.438  0.00  0.00    +0.340 C 
ATOM     27 CL   LIG    1       32.559 -15.889  12.006  0.00  0.00    -0.081 Cl
ENDBRANCH  25  26
ENDBRANCH  23  25
ENDBRANCH   3  23
BRANCH  19  28
ATOM     28  O   LIG    1       26.214 -20.060   9.446  0.00  0.00    -0.391 OA
ATOM     29  H   LIG    1       25.393 -19.686   9.084  0.00  0.00    +0.210 HD
ENDBRANCH  19  28
TORSDOF 5
ENDMDL
MODEL 2
REMARK VINA RESULT:      -6.0      9.884     12.016
REMARK  Name = *****
REMARK                            x       y       z     vdW  Elec       q    Type
REMARK                         _______ _______ _______ _____ _____    ______ ____
ROOT
ATOM      1  C   LIG    1       25.976 -31.122  12.690  0.00  0.00    +0.015 C 
ATOM      2  C   LIG    1       25.804 -29.986  11.666  0.00  0.00    +0.013 C 
ATOM      3  C   LIG    1       26.857 -30.100  10.509  0.00  0.00    +0.168 C 
ATOM      4  C   LIG    1       26.899 -28.699   9.892  0.00  0.00    +0.047 C 
ATOM      5  C   LIG    1       26.474 -27.741  11.010  0.00  0.00    +0.008 C 
ATOM      6  C   LIG    1       26.179 -28.603  12.258  0.00  0.00    +0.002 C 
ATOM      7  C   LIG    1       25.146 -27.941  13.200  0.00  0.00    -0.000 C 
ATOM      8  C   LIG    1       25.302 -28.403  14.671  0.00  0.00    +0.008 C 
ATOM      9  C   LIG    1       24.051 -28.893  15.413  0.00  0.00    +0.032 C 
ATOM     10  C   LIG    1       22.715 -28.374  14.942  0.00  0.00    -0.056 C 
ATOM     11  C   LIG    1       22.698 -27.420  13.758  0.00  0.00    +0.013 C 
ATOM     12  C   LIG    1       23.103 -26.003  14.240  0.00  0.00    +0.020 C 
ATOM     13  C   LIG    1       21.300 -27.233  13.186  0.00  0.00    -0.012 C 
ATOM     14  C   LIG    1       20.184 -27.739  13.728  0.00  0.00    +0.047 C 
ATOM     15  C   LIG    1       20.248 -28.558  14.953  0.00  0.00    +0.179 C 
ATOM     16  O   LIG    1       19.233 -28.979  15.493  0.00  0.00    -0.288 OA
ATOM     17  C   LIG    1       21.591 -28.879  15.485  0.00  0.00    +0.051 C 
ATOM     18  C   LIG    1       23.689 -27.983  12.675  0.00  0.00    +0.035 C 
ATOM     19  C   LIG    1       23.328 -29.404  12.160  0.00  0.00    +0.120 C 
ATOM     20  C   LIG    1       24.346 -29.957  11.161  0.00  0.00    +0.042 C 
ENDROOT
BRANCH   3  21
ATOM     21  O   LIG    1       28.156 -30.316  11.100  0.00  0.00    -0.377 OA
ATOM     22  H   LIG    1       28.597 -29.446  11.147  0.00  0.00    +0.211 HD
ENDBRANCH   3  21
BRANCH   3  23
ATOM     23  C   LIG    1       26.619 -31.206   9.450  0.00  0.00    +0.341 C 
ATOM     24  O   LIG    1       26.704 -32.399   9.705  0.00  0.00    -0.247 OA
BRANCH  23  25
ATOM     25  O   LIG    1       26.366 -30.693   8.218  0.00  0.00    -0.447 OA
BRANCH  25  26
ATOM     26  C   LIG    1       25.077 -31.006   7.686  0.00  0.00    +0.340 C 
ATOM     27 CL   LIG    1       24.116 -29.526   7.515  0.00  0.00    -0.081 Cl
ENDBRANCH  25  26
ENDBRANCH  23  25
ENDBRANCH   3  23
BRANCH  19  28
ATOM     28  O   LIG    1       22.067 -29.406  11.488  0.00  0.00    -0.391 OA
ATOM     29  H   LIG    1       21.848 -28.492  11.239  0.00  0.00    +0.210 HD
ENDBRANCH  19  28
TORSDOF 5
ENDMDL
MODEL 3
REMARK VINA RESULT:      -5.9      9.892     12.038
REMARK  Name = *****
REMARK                            x       y       z     vdW  Elec       q    Type
REMARK                         _______ _______ _______ _____ _____    ______ ____
ROOT
ATOM      1  C   LIG    1       24.234 -28.044  12.813  0.00  0.00    +0.015 C 
ATOM      2  C   LIG    1       24.049 -29.571  12.858  0.00  0.00    +0.013 C 
ATOM      3  C   LIG    1       23.671 -30.055  14.301  0.00  0.00    +0.168 C 
ATOM      4  C   LIG    1       24.014 -31.547  14.305  0.00  0.00    +0.047 C 
ATOM      5  C   LIG    1       25.115 -31.722  13.252  0.00  0.00    +0.008 C 
ATOM      6  C   LIG    1       25.385 -30.328  12.644  0.00  0.00    +0.002 C 
ATOM      7  C   LIG    1       25.918 -30.412  11.193  0.00  0.00    -0.000 C 
ATOM      8  C   LIG    1       26.772 -29.179  10.803  0.00  0.00    +0.008 C 
ATOM      9  C   LIG    1       26.441 -28.457   9.489  0.00  0.00    +0.032 C 
ATOM     10  C   LIG    1       25.765 -29.260   8.405  0.00  0.00    -0.056 C 
ATOM     11  C   LIG    1       25.443 -30.718   8.693  0.00  0.00    +0.013 C 
ATOM     12  C   LIG    1       26.734 -31.564   8.545  0.00  0.00    +0.020 C 
ATOM     13  C   LIG    1       24.489 -31.312   7.667  0.00  0.00    -0.012 C 
ATOM     14  C   LIG    1       24.073 -30.680   6.561  0.00  0.00    +0.047 C 
ATOM     15  C   LIG    1       24.518 -29.305   6.269  0.00  0.00    +0.179 C 
ATOM     16  O   LIG    1       24.194 -28.736   5.235  0.00  0.00    -0.288 OA
ATOM     17  C   LIG    1       25.346 -28.628   7.291  0.00  0.00    +0.051 C 
ATOM     18  C   LIG    1       24.846 -30.798  10.144  0.00  0.00    +0.035 C 
ATOM     19  C   LIG    1       23.550 -29.965  10.346  0.00  0.00    +0.120 C 
ATOM     20  C   LIG    1       23.029 -30.003  11.784  0.00  0.00    +0.042 C 
ENDROOT
BRANCH   3  21
ATOM     21  O   LIG    1       24.577 -29.433  15.238  0.00  0.00    -0.377 OA
ATOM     22  H   LIG    1       24.382 -29.811  16.117  0.00  0.00    +0.211 HD
ENDBRANCH   3  21
BRANCH   3  23
ATOM     23  C   LIG    1       22.223 -29.780  14.776  0.00  0.00    +0.341 C 
ATOM     24  O   LIG    1       21.419 -30.671  15.010  0.00  0.00    -0.247 OA
BRANCH  23  25
ATOM     25  O   LIG    1       21.946 -28.451  14.842  0.00  0.00    -0.447 OA
BRANCH  25  26
ATOM     26  C   LIG    1       20.673 -28.072  14.315  0.00  0.00    +0.340 C 
ATOM     27 CL   LIG    1       20.882 -26.863  13.036  0.00  0.00    -0.081 Cl
ENDBRANCH  25  26
ENDBRANCH  23  25
ENDBRANCH   3  23
BRANCH  19  28
ATOM     28  O   LIG    1       22.487 -30.451   9.524  0.00  0.00    -0.391 OA
ATOM     29  H   LIG    1       22.415 -31.412   9.649  0.00  0.00    +0.210 HD
ENDBRANCH  19  28
TORSDOF 5
ENDMDL
MODEL 4
REMARK VINA RESULT:      -5.8      9.347     12.222
REMARK  Name = *****
REMARK                            x       y       z     vdW  Elec       q    Type
REMARK                         _______ _______ _______ _____ _____    ______ ____
ROOT
ATOM      1  C   LIG    1       23.492 -30.072   9.143  0.00  0.00    +0.015 C 
ATOM      2  C   LIG    1       24.728 -30.823   9.669  0.00  0.00    +0.013 C 
ATOM      3  C   LIG    1       25.028 -32.096   8.804  0.00  0.00    +0.168 C 
ATOM      4  C   LIG    1       25.908 -32.970   9.704  0.00  0.00    +0.047 C 
ATOM      5  C   LIG    1       25.548 -32.577  11.142  0.00  0.00    +0.008 C 
ATOM      6  C   LIG    1       24.471 -31.471  11.054  0.00  0.00    +0.002 C 
ATOM      7  C   LIG    1       24.492 -30.531  12.282  0.00  0.00    -0.000 C 
ATOM      8  C   LIG    1       23.115 -29.871  12.547  0.00  0.00    +0.008 C 
ATOM      9  C   LIG    1       23.067 -28.349  12.741  0.00  0.00    +0.032 C 
ATOM     10  C   LIG    1       24.319 -27.673  13.244  0.00  0.00    -0.056 C 
ATOM     11  C   LIG    1       25.541 -28.538  13.507  0.00  0.00    +0.013 C 
ATOM     12  C   LIG    1       25.366 -29.270  14.862  0.00  0.00    +0.020 C 
ATOM     13  C   LIG    1       26.805 -27.711  13.690  0.00  0.00    -0.012 C 
ATOM     14  C   LIG    1       26.836 -26.373  13.748  0.00  0.00    +0.047 C 
ATOM     15  C   LIG    1       25.596 -25.586  13.610  0.00  0.00    +0.179 C 
ATOM     16  O   LIG    1       25.599 -24.367  13.718  0.00  0.00    -0.288 OA
ATOM     17  C   LIG    1       24.353 -26.327  13.304  0.00  0.00    +0.051 C 
ATOM     18  C   LIG    1       25.684 -29.542  12.305  0.00  0.00    +0.035 C 
ATOM     19  C   LIG    1       25.860 -28.857  10.921  0.00  0.00    +0.120 C 
ATOM     20  C   LIG    1       25.924 -29.854   9.762  0.00  0.00    +0.042 C 
ENDROOT
BRANCH   3  21
ATOM     21  O   LIG    1       23.794 -32.822   8.625  0.00  0.00    -0.377 OA
ATOM     22  H   LIG    1       23.609 -33.285   9.466  0.00  0.00    +0.211 HD
ENDBRANCH   3  21
BRANCH   3  23
ATOM     23  C   LIG    1       25.658 -31.863   7.408  0.00  0.00    +0.341 C 
ATOM     24  O   LIG    1       26.842 -32.058   7.172  0.00  0.00    -0.247 OA
BRANCH  23  25
ATOM     25  O   LIG    1       24.760 -31.371   6.515  0.00  0.00    -0.447 OA
BRANCH  25  26
ATOM     26  C   LIG    1       25.233 -30.280   5.723  0.00  0.00    +0.340 C 
ATOM     27 CL   LIG    1       24.060 -28.951   5.762  0.00  0.00    -0.081 Cl
ENDBRANCH  25  26
ENDBRANCH  23  25
ENDBRANCH   3  23
BRANCH  19  28
ATOM     28  O   LIG    1       27.072 -28.103  10.867  0.00  0.00    -0.391 OA
ATOM     29  H   LIG    1       26.877 -27.234  10.478  0.00  0.00    +0.210 HD
ENDBRANCH  19  28
TORSDOF 5
ENDMDL
MODEL 5
REMARK VINA RESULT:      -5.5     10.274     12.880
REMARK  Name = *****
REMARK                            x       y       z     vdW  Elec       q    Type
REMARK                         _______ _______ _______ _____ _____    ______ ____
ROOT
ATOM      1  C   LIG    1       24.154 -29.512   8.025  0.00  0.00    +0.015 C 
ATOM      2  C   LIG    1       24.935 -30.803   8.333  0.00  0.00    +0.013 C 
ATOM      3  C   LIG    1       24.876 -31.804   7.127  0.00  0.00    +0.168 C 
ATOM      4  C   LIG    1       25.228 -33.161   7.740  0.00  0.00    +0.047 C 
ATOM      5  C   LIG    1       24.824 -33.066   9.216  0.00  0.00    +0.008 C 
ATOM      6  C   LIG    1       24.254 -31.647   9.440  0.00  0.00    +0.002 C 
ATOM      7  C   LIG    1       24.431 -31.164  10.899  0.00  0.00    -0.000 C 
ATOM      8  C   LIG    1       23.368 -30.114  11.309  0.00  0.00    +0.008 C 
ATOM      9  C   LIG    1       23.852 -28.812  11.963  0.00  0.00    +0.032 C 
ATOM     10  C   LIG    1       25.173 -28.849  12.691  0.00  0.00    -0.056 C 
ATOM     11  C   LIG    1       25.939 -30.162  12.713  0.00  0.00    +0.013 C 
ATOM     12  C   LIG    1       25.306 -31.104  13.769  0.00  0.00    +0.020 C 
ATOM     13  C   LIG    1       27.375 -29.985  13.186  0.00  0.00    -0.012 C 
ATOM     14  C   LIG    1       27.884 -28.838  13.655  0.00  0.00    +0.047 C 
ATOM     15  C   LIG    1       27.054 -27.621  13.727  0.00  0.00    +0.179 C 
ATOM     16  O   LIG    1       27.487 -26.581  14.207  0.00  0.00    -0.288 OA
ATOM     17  C   LIG    1       25.688 -27.698  13.165  0.00  0.00    +0.051 C 
ATOM     18  C   LIG    1       25.884 -30.772  11.266  0.00  0.00    +0.035 C 
ATOM     19  C   LIG    1       26.505 -29.864  10.168  0.00  0.00    +0.120 C 
ATOM     20  C   LIG    1       26.375 -30.449   8.760  0.00  0.00    +0.042 C 
ENDROOT
BRANCH   3  21
ATOM     21  O   LIG    1       23.504 -31.905   6.691  0.00  0.00    -0.377 OA
ATOM     22  H   LIG    1       23.042 -32.480   7.332  0.00  0.00    +0.211 HD
ENDBRANCH   3  21
BRANCH   3  23
ATOM     23  C   LIG    1       25.750 -31.467   5.893  0.00  0.00    +0.341 C 
ATOM     24  O   LIG    1       25.667 -30.408   5.288  0.00  0.00    -0.247 OA
BRANCH  23  25
ATOM     25  O   LIG    1       26.562 -32.499   5.541  0.00  0.00    -0.447 OA
BRANCH  25  26
ATOM     26  C   LIG    1       26.471 -32.899   4.173  0.00  0.00    +0.340 C 
ATOM     27 CL   LIG    1       24.814 -33.408   3.799  0.00  0.00    -0.081 Cl
ENDBRANCH  25  26
ENDBRANCH  23  25
ENDBRANCH   3  23
BRANCH  19  28
ATOM     28  O   LIG    1       27.903 -29.665  10.390  0.00  0.00    -0.391 OA
ATOM     29  H   LIG    1       28.042 -29.480  11.334  0.00  0.00    +0.210 HD
ENDBRANCH  19  28
TORSDOF 5
ENDMDL
MODEL 6
REMARK VINA RESULT:      -5.5      1.911      3.086
REMARK  Name = *****
REMARK                            x       y       z     vdW  Elec       q    Type
REMARK                         _______ _______ _______ _____ _____    ______ ____
ROOT
ATOM      1  C   LIG    1       29.632 -21.825   7.121  0.00  0.00    +0.015 C 
ATOM      2  C   LIG    1       29.112 -20.443   7.554  0.00  0.00    +0.013 C 
ATOM      3  C   LIG    1       30.198 -19.658   8.370  0.00  0.00    +0.168 C 
ATOM      4  C   LIG    1       29.407 -18.591   9.131  0.00  0.00    +0.047 C 
ATOM      5  C   LIG    1       27.993 -19.161   9.292  0.00  0.00    +0.008 C 
ATOM      6  C   LIG    1       27.982 -20.548   8.610  0.00  0.00    +0.002 C 
ATOM      7  C   LIG    1       26.577 -20.940   8.095  0.00  0.00    -0.000 C 
ATOM      8  C   LIG    1       26.383 -22.475   8.011  0.00  0.00    +0.008 C 
ATOM      9  C   LIG    1       25.840 -23.066   6.702  0.00  0.00    +0.032 C 
ATOM     10  C   LIG    1       24.998 -22.167   5.831  0.00  0.00    -0.056 C 
ATOM     11  C   LIG    1       24.760 -20.740   6.297  0.00  0.00    +0.013 C 
ATOM     12  C   LIG    1       23.665 -20.738   7.395  0.00  0.00    +0.020 C 
ATOM     13  C   LIG    1       24.186 -19.860   5.197  0.00  0.00    -0.012 C 
ATOM     14  C   LIG    1       23.805 -20.303   3.991  0.00  0.00    +0.047 C 
ATOM     15  C   LIG    1       23.945 -21.728   3.636  0.00  0.00    +0.179 C 
ATOM     16  O   LIG    1       23.549 -22.159   2.561  0.00  0.00    -0.288 OA
ATOM     17  C   LIG    1       24.613 -22.610   4.618  0.00  0.00    +0.051 C 
ATOM     18  C   LIG    1       26.129 -20.175   6.825  0.00  0.00    +0.035 C 
ATOM     19  C   LIG    1       27.262 -20.157   5.762  0.00  0.00    +0.120 C 
ATOM     20  C   LIG    1       28.601 -19.670   6.320  0.00  0.00    +0.042 C 
ENDROOT
BRANCH   3  21
ATOM     21  O   LIG    1       30.740 -20.546   9.371  0.00  0.00    -0.377 OA
ATOM     22  H   LIG    1       30.410 -21.443   9.166  0.00  0.00    +0.211 HD
ENDBRANCH   3  21
BRANCH   3  23
ATOM     23  C   LIG    1       31.380 -19.058   7.567  0.00  0.00    +0.341 C 
ATOM     24  O   LIG    1       32.050 -19.712   6.781  0.00  0.00    -0.247 OA
BRANCH  23  25
ATOM     25  O   LIG    1       31.608 -17.757   7.884  0.00  0.00    -0.447 OA
BRANCH  25  26
ATOM     26  C   LIG    1       32.328 -17.549   9.100  0.00  0.00    +0.340 C 
ATOM     27 CL   LIG    1       32.504 -15.812   9.412  0.00  0.00    -0.081 Cl
ENDBRANCH  25  26
ENDBRANCH  23  25
ENDBRANCH   3  23
BRANCH  19  28
ATOM     28  O   LIG    1       26.941 -19.284   4.677  0.00  0.00    -0.391 OA
ATOM     29  H   LIG    1       26.406 -19.778   4.033  0.00  0.00    +0.210 HD
ENDBRANCH  19  28
TORSDOF 5
ENDMDL
MODEL 7
REMARK VINA RESULT:      -5.3      6.097      8.367
REMARK  Name = *****
REMARK                            x       y       z     vdW  Elec       q    Type
REMARK                         _______ _______ _______ _____ _____    ______ ____
ROOT
ATOM      1  C   LIG    1       23.282 -25.351   6.689  0.00  0.00    +0.015 C 
ATOM      2  C   LIG    1       24.701 -25.270   6.098  0.00  0.00    +0.013 C 
ATOM      3  C   LIG    1       25.403 -26.673   6.113  0.00  0.00    +0.168 C 
ATOM      4  C   LIG    1       26.895 -26.354   5.991  0.00  0.00    +0.047 C 
ATOM      5  C   LIG    1       27.066 -24.943   6.566  0.00  0.00    +0.008 C 
ATOM      6  C   LIG    1       25.664 -24.459   7.003  0.00  0.00    +0.002 C 
ATOM      7  C   LIG    1       25.534 -22.918   6.961  0.00  0.00    -0.000 C 
ATOM      8  C   LIG    1       24.464 -22.385   7.946  0.00  0.00    +0.008 C 
ATOM      9  C   LIG    1       23.409 -21.407   7.411  0.00  0.00    +0.032 C 
ATOM     10  C   LIG    1       23.779 -20.578   6.205  0.00  0.00    -0.056 C 
ATOM     11  C   LIG    1       25.156 -20.781   5.595  0.00  0.00    +0.013 C 
ATOM     12  C   LIG    1       26.210 -20.037   6.455  0.00  0.00    +0.020 C 
ATOM     13  C   LIG    1       25.279 -20.141   4.220  0.00  0.00    -0.012 C 
ATOM     14  C   LIG    1       24.339 -19.373   3.653  0.00  0.00    +0.047 C 
ATOM     15  C   LIG    1       23.066 -19.108   4.348  0.00  0.00    +0.179 C 
ATOM     16  O   LIG    1       22.221 -18.362   3.869  0.00  0.00    -0.288 OA
ATOM     17  C   LIG    1       22.836 -19.805   5.632  0.00  0.00    +0.051 C 
ATOM     18  C   LIG    1       25.429 -22.328   5.532  0.00  0.00    +0.035 C 
ATOM     19  C   LIG    1       24.398 -23.121   4.681  0.00  0.00    +0.120 C 
ATOM     20  C   LIG    1       24.644 -24.632   4.695  0.00  0.00    +0.042 C 
ENDROOT
BRANCH   3  21
ATOM     21  O   LIG    1       25.223 -27.254   7.421  0.00  0.00    -0.377 OA
ATOM     22  H   LIG    1       26.108 -27.315   7.831  0.00  0.00    +0.211 HD
ENDBRANCH   3  21
BRANCH   3  23
ATOM     23  C   LIG    1       24.930 -27.703   5.058  0.00  0.00    +0.341 C 
ATOM     24  O   LIG    1       25.327 -27.701   3.901  0.00  0.00    -0.247 OA
BRANCH  23  25
ATOM     25  O   LIG    1       23.996 -28.556   5.554  0.00  0.00    -0.447 OA
BRANCH  25  26
ATOM     26  C   LIG    1       24.420 -29.916   5.670  0.00  0.00    +0.340 C 
ATOM     27 CL   LIG    1       24.294 -30.449   7.356  0.00  0.00    -0.081 Cl
ENDBRANCH  25  26
ENDBRANCH  23  25
ENDBRANCH   3  23
BRANCH  19  28
ATOM     28  O   LIG    1       24.441 -22.722   3.310  0.00  0.00    -0.391 OA
ATOM     29  H   LIG    1       25.343 -22.863   2.976  0.00  0.00    +0.210 HD
ENDBRANCH  19  28
TORSDOF 5
ENDMDL
MODEL 8
REMARK VINA RESULT:      -5.2      9.832     12.887
REMARK  Name = *****
REMARK                            x       y       z     vdW  Elec       q    Type
REMARK                         _______ _______ _______ _____ _____    ______ ____
ROOT
ATOM      1  C   LIG    1       22.808 -29.836  15.497  0.00  0.00    +0.015 C 
ATOM      2  C   LIG    1       22.424 -29.182  14.157  0.00  0.00    +0.013 C 
ATOM      3  C   LIG    1       20.962 -29.565  13.737  0.00  0.00    +0.168 C 
ATOM      4  C   LIG    1       20.914 -29.289  12.232  0.00  0.00    +0.047 C 
ATOM      5  C   LIG    1       22.359 -29.427  11.738  0.00  0.00    +0.008 C 
ATOM      6  C   LIG    1       23.227 -29.771  12.969  0.00  0.00    +0.002 C 
ATOM      7  C   LIG    1       24.691 -29.295  12.808  0.00  0.00    -0.000 C 
ATOM      8  C   LIG    1       25.684 -30.135  13.650  0.00  0.00    +0.008 C 
ATOM      9  C   LIG    1       26.681 -29.391  14.550  0.00  0.00    +0.032 C 
ATOM     10  C   LIG    1       27.054 -27.983  14.157  0.00  0.00    -0.056 C 
ATOM     11  C   LIG    1       26.407 -27.393  12.914  0.00  0.00    +0.013 C 
ATOM     12  C   LIG    1       27.116 -27.955  11.655  0.00  0.00    +0.020 C 
ATOM     13  C   LIG    1       26.610 -25.889  12.815  0.00  0.00    -0.012 C 
ATOM     14  C   LIG    1       27.376 -25.169  13.646  0.00  0.00    +0.047 C 
ATOM     15  C   LIG    1       28.082 -25.817  14.767  0.00  0.00    +0.179 C 
ATOM     16  O   LIG    1       28.831 -25.184  15.500  0.00  0.00    -0.288 OA
ATOM     17  C   LIG    1       27.824 -27.256  14.990  0.00  0.00    +0.051 C 
ATOM     18  C   LIG    1       24.880 -27.764  12.947  0.00  0.00    +0.035 C 
ATOM     19  C   LIG    1       24.122 -27.224  14.192  0.00  0.00    +0.120 C 
ATOM     20  C   LIG    1       22.655 -27.659  14.237  0.00  0.00    +0.042 C 
ENDROOT
BRANCH   3  21
ATOM     21  O   LIG    1       20.809 -30.993  13.887  0.00  0.00    -0.377 OA
ATOM     22  H   LIG    1       21.595 -31.409  13.483  0.00  0.00    +0.211 HD
ENDBRANCH   3  21
BRANCH   3  23
ATOM     23  C   LIG    1       19.808 -28.873  14.503  0.00  0.00    +0.341 C 
ATOM     24  O   LIG    1       19.185 -29.420  15.402  0.00  0.00    -0.247 OA
BRANCH  23  25
ATOM     25  O   LIG    1       19.544 -27.630  14.022  0.00  0.00    -0.447 OA
BRANCH  25  26
ATOM     26  C   LIG    1       18.778 -26.796  14.893  0.00  0.00    +0.340 C 
ATOM     27 CL   LIG    1       17.270 -26.312  14.097  0.00  0.00    -0.081 Cl
ENDBRANCH  25  26
ENDBRANCH  23  25
ENDBRANCH   3  23
BRANCH  19  28
ATOM     28  O   LIG    1       24.116 -25.796  14.217  0.00  0.00    -0.391 OA
ATOM     29  H   LIG    1       24.416 -25.471  13.351  0.00  0.00    +0.210 HD
ENDBRANCH  19  28
TORSDOF 5
ENDMDL
MODEL 9
REMARK VINA RESULT:      -5.2     11.274     13.351
REMARK  Name = *****
REMARK                            x       y       z     vdW  Elec       q    Type
REMARK                         _______ _______ _______ _____ _____    ______ ____
ROOT
ATOM      1  C   LIG    1       22.165 -27.757  12.882  0.00  0.00    +0.015 C 
ATOM      2  C   LIG    1       21.729 -29.196  13.209  0.00  0.00    +0.013 C 
ATOM      3  C   LIG    1       20.783 -29.233  14.459  0.00  0.00    +0.168 C 
ATOM      4  C   LIG    1       20.853 -30.682  14.948  0.00  0.00    +0.047 C 
ATOM      5  C   LIG    1       22.215 -31.211  14.483  0.00  0.00    +0.008 C 
ATOM      6  C   LIG    1       22.910 -30.062  13.719  0.00  0.00    +0.002 C 
ATOM      7  C   LIG    1       23.908 -30.581  12.657  0.00  0.00    -0.000 C 
ATOM      8  C   LIG    1       25.035 -29.561  12.352  0.00  0.00    +0.008 C 
ATOM      9  C   LIG    1       25.322 -29.217  10.884  0.00  0.00    +0.032 C 
ATOM     10  C   LIG    1       24.961 -30.249   9.845  0.00  0.00    -0.056 C 
ATOM     11  C   LIG    1       24.324 -31.545  10.318  0.00  0.00    +0.013 C 
ATOM     12  C   LIG    1       25.425 -32.475  10.890  0.00  0.00    +0.020 C 
ATOM     13  C   LIG    1       23.721 -32.344   9.172  0.00  0.00    -0.012 C 
ATOM     14  C   LIG    1       23.841 -32.024   7.877  0.00  0.00    +0.047 C 
ATOM     15  C   LIG    1       24.579 -30.815   7.467  0.00  0.00    +0.179 C 
ATOM     16  O   LIG    1       24.747 -30.540   6.286  0.00  0.00    -0.288 OA
ATOM     17  C   LIG    1       25.081 -29.930   8.541  0.00  0.00    +0.051 C 
ATOM     18  C   LIG    1       23.239 -31.180  11.395  0.00  0.00    +0.035 C 
ATOM     19  C   LIG    1       22.112 -30.247  10.871  0.00  0.00    +0.120 C 
ATOM     20  C   LIG    1       21.109 -29.849  11.956  0.00  0.00    +0.042 C 
ENDROOT
BRANCH   3  21
ATOM     21  O   LIG    1       21.378 -28.430  15.500  0.00  0.00    -0.377 OA
ATOM     22  H   LIG    1       21.897 -27.729  15.059  0.00  0.00    +0.211 HD
ENDBRANCH   3  21
BRANCH   3  23
ATOM     23  C   LIG    1       19.326 -28.749  14.250  0.00  0.00    +0.341 C 
ATOM     24  O   LIG    1       18.372 -29.512  14.206  0.00  0.00    -0.247 OA
BRANCH  23  25
ATOM     25  O   LIG    1       19.252 -27.404  14.068  0.00  0.00    -0.447 OA
BRANCH  25  26
ATOM     26  C   LIG    1       18.349 -26.726  14.943  0.00  0.00    +0.340 C 
ATOM     27 CL   LIG    1       16.839 -26.358  14.088  0.00  0.00    -0.081 Cl
ENDBRANCH  25  26
ENDBRANCH  23  25
ENDBRANCH   3  23
BRANCH  19  28
ATOM     28  O   LIG    1       21.353 -30.879   9.838  0.00  0.00    -0.391 OA
ATOM     29  H   LIG    1       21.958 -31.126   9.118  0.00  0.00    +0.210 HD
ENDBRANCH  19  28
TORSDOF 5
ENDMDL
