MODEL 1
REMARK VINA RESULT:      -7.5      0.000      0.000
REMARK  Name = *****
REMARK                            x       y       z     vdW  Elec       q    Type
REMARK                         _______ _______ _______ _____ _____    ______ ____
ROOT
ATOM      1  C   LIG    1       25.580 -22.411   7.528  0.00  0.00    +0.147 A 
ATOM      2  N   LIG    1       24.442 -22.710   6.801  0.00  0.00    -0.318 N 
ATOM      3  C   LIG    1       24.612 -23.978   6.293  0.00  0.00    +0.200 A 
ATOM      4  N   LIG    1       25.792 -24.473   6.573  0.00  0.00    -0.243 NA
ATOM      5  C   LIG    1       26.401 -23.512   7.325  0.00  0.00    +0.145 A 
ENDROOT
BRANCH   1   6
ATOM      6  C   LIG    1       25.857 -21.243   8.314  0.00  0.00    +0.357 C 
ATOM      7  O   LIG    1       25.714 -21.140   9.519  0.00  0.00    -0.243 OA
BRANCH   6   8
ATOM      8  O   LIG    1       26.338 -20.251   7.500  0.00  0.00    -0.460 OA
BRANCH   8  10
ATOM      9  C   LIG    1       28.083 -19.935   5.855  0.00  0.00    +0.048 C 
ATOM     10  C   LIG    1       27.758 -20.229   7.307  0.00  0.00    +0.229 C 
ENDBRANCH   8  10
ENDBRANCH   6   8
ENDBRANCH   1   6
BRANCH   2  11
ATOM     11  C   LIG    1       23.244 -21.880   6.606  0.00  0.00    +0.116 C 
ATOM     12  C   LIG    1       21.993 -22.721   6.302  0.00  0.00    +0.036 C 
BRANCH  11  13
ATOM     13  C   LIG    1       23.448 -20.783   5.560  0.00  0.00    -0.025 A 
ATOM     14  C   LIG    1       24.512 -20.796   4.642  0.00  0.00    +0.006 A 
ATOM     15  C   LIG    1       24.632 -19.811   3.657  0.00  0.00    +0.000 A 
ATOM     16  C   LIG    1       23.691 -18.791   3.566  0.00  0.00    +0.000 A 
ATOM     17  C   LIG    1       22.631 -18.752   4.467  0.00  0.00    +0.000 A 
ATOM     18  C   LIG    1       22.508 -19.739   5.453  0.00  0.00    +0.006 A 
ENDBRANCH  11  13
ENDBRANCH   2  11
TORSDOF 5
ENDMDL
MODEL 2
REMARK VINA RESULT:      -7.2      2.050      3.689
REMARK  Name = *****
REMARK                            x       y       z     vdW  Elec       q    Type
REMARK                         _______ _______ _______ _____ _____    ______ ____
ROOT
ATOM      1  C   LIG    1       25.467 -22.436   7.585  0.00  0.00    +0.147 A 
ATOM      2  N   LIG    1       25.921 -21.244   7.050  0.00  0.00    -0.318 N 
ATOM      3  C   LIG    1       26.315 -20.454   8.105  0.00  0.00    +0.200 A 
ATOM      4  N   LIG    1       26.075 -21.015   9.265  0.00  0.00    -0.243 NA
ATOM      5  C   LIG    1       25.544 -22.232   8.957  0.00  0.00    +0.145 A 
ENDROOT
BRANCH   1   6
ATOM      6  C   LIG    1       25.023 -23.613   6.895  0.00  0.00    +0.357 C 
ATOM      7  O   LIG    1       23.874 -23.870   6.585  0.00  0.00    -0.243 OA
BRANCH   6   8
ATOM      8  O   LIG    1       26.103 -24.406   6.610  0.00  0.00    -0.460 OA
BRANCH   8  10
ATOM      9  C   LIG    1       25.838 -26.362   5.212  0.00  0.00    +0.048 C 
ATOM     10  C   LIG    1       25.868 -25.820   6.628  0.00  0.00    +0.229 C 
ENDBRANCH   8  10
ENDBRANCH   6   8
ENDBRANCH   1   6
BRANCH   2  11
ATOM     11  C   LIG    1       26.014 -20.861   5.633  0.00  0.00    +0.116 C 
ATOM     12  C   LIG    1       27.250 -19.992   5.342  0.00  0.00    +0.036 C 
BRANCH  11  13
ATOM     13  C   LIG    1       24.734 -20.206   5.112  0.00  0.00    -0.025 A 
ATOM     14  C   LIG    1       23.494 -20.338   5.760  0.00  0.00    +0.006 A 
ATOM     15  C   LIG    1       22.357 -19.673   5.291  0.00  0.00    +0.000 A 
ATOM     16  C   LIG    1       22.433 -18.858   4.166  0.00  0.00    +0.000 A 
ATOM     17  C   LIG    1       23.649 -18.716   3.503  0.00  0.00    +0.000 A 
ATOM     18  C   LIG    1       24.789 -19.380   3.971  0.00  0.00    +0.006 A 
ENDBRANCH  11  13
ENDBRANCH   2  11
TORSDOF 5
ENDMDL
MODEL 3
REMARK VINA RESULT:      -7.2      2.116      5.035
REMARK  Name = *****
REMARK                            x       y       z     vdW  Elec       q    Type
REMARK                         _______ _______ _______ _____ _____    ______ ____
ROOT
ATOM      1  C   LIG    1       25.598 -20.370   5.245  0.00  0.00    +0.147 A 
ATOM      2  N   LIG    1       26.005 -20.773   6.504  0.00  0.00    -0.318 N 
ATOM      3  C   LIG    1       27.304 -20.346   6.662  0.00  0.00    +0.200 A 
ATOM      4  N   LIG    1       27.776 -19.776   5.581  0.00  0.00    -0.243 NA
ATOM      5  C   LIG    1       26.737 -19.794   4.698  0.00  0.00    +0.145 A 
ENDROOT
BRANCH   1   6
ATOM      6  C   LIG    1       24.305 -20.506   4.638  0.00  0.00    +0.357 C 
ATOM      7  O   LIG    1       24.061 -21.087   3.596  0.00  0.00    -0.243 OA
BRANCH   6   8
ATOM      8  O   LIG    1       23.367 -19.897   5.429  0.00  0.00    -0.460 OA
BRANCH   8  10
ATOM      9  C   LIG    1       22.204 -18.008   4.466  0.00  0.00    +0.048 C 
ATOM     10  C   LIG    1       22.158 -19.492   4.774  0.00  0.00    +0.229 C 
ENDBRANCH   8  10
ENDBRANCH   6   8
ENDBRANCH   1   6
BRANCH   2  11
ATOM     11  C   LIG    1       25.228 -21.494   7.523  0.00  0.00    +0.116 C 
ATOM     12  C   LIG    1       25.861 -21.392   8.921  0.00  0.00    +0.036 C 
BRANCH  11  13
ATOM     13  C   LIG    1       24.951 -22.948   7.138  0.00  0.00    -0.025 A 
ATOM     14  C   LIG    1       23.664 -23.421   6.831  0.00  0.00    +0.006 A 
ATOM     15  C   LIG    1       23.456 -24.742   6.421  0.00  0.00    +0.000 A 
ATOM     16  C   LIG    1       24.530 -25.619   6.306  0.00  0.00    +0.000 A 
ATOM     17  C   LIG    1       25.814 -25.176   6.611  0.00  0.00    +0.000 A 
ATOM     18  C   LIG    1       26.024 -23.853   7.021  0.00  0.00    +0.006 A 
ENDBRANCH  11  13
ENDBRANCH   2  11
TORSDOF 5
ENDMDL
MODEL 4
REMARK VINA RESULT:      -7.1      2.027      4.885
REMARK  Name = *****
REMARK                            x       y       z     vdW  Elec       q    Type
REMARK                         _______ _______ _______ _____ _____    ______ ____
ROOT
ATOM      1  C   LIG    1       25.626 -21.039   6.644  0.00  0.00    +0.147 A 
ATOM      2  N   LIG    1       25.133 -22.269   7.038  0.00  0.00    -0.318 N 
ATOM      3  C   LIG    1       25.635 -22.520   8.294  0.00  0.00    +0.200 A 
ATOM      4  N   LIG    1       26.464 -21.588   8.694  0.00  0.00    -0.243 NA
ATOM      5  C   LIG    1       26.474 -20.675   7.682  0.00  0.00    +0.145 A 
ENDROOT
BRANCH   1   6
ATOM      6  C   LIG    1       25.334 -20.299   5.449  0.00  0.00    +0.357 C 
ATOM      7  O   LIG    1       26.141 -19.954   4.605  0.00  0.00    -0.243 OA
BRANCH   6   8
ATOM      8  O   LIG    1       23.987 -20.058   5.383  0.00  0.00    -0.460 OA
BRANCH   8  10
ATOM      9  C   LIG    1       22.262 -18.663   4.420  0.00  0.00    +0.048 C 
ATOM     10  C   LIG    1       23.509 -19.485   4.160  0.00  0.00    +0.229 C 
ENDBRANCH   8  10
ENDBRANCH   6   8
ENDBRANCH   1   6
BRANCH   2  11
ATOM     11  C   LIG    1       24.221 -23.160   6.304  0.00  0.00    +0.116 C 
ATOM     12  C   LIG    1       22.794 -23.137   6.877  0.00  0.00    +0.036 C 
BRANCH  11  13
ATOM     13  C   LIG    1       24.755 -24.589   6.189  0.00  0.00    -0.025 A 
ATOM     14  C   LIG    1       26.126 -24.893   6.230  0.00  0.00    +0.006 A 
ATOM     15  C   LIG    1       26.576 -26.217   6.187  0.00  0.00    +0.000 A 
ATOM     16  C   LIG    1       25.667 -27.266   6.104  0.00  0.00    +0.000 A 
ATOM     17  C   LIG    1       24.303 -26.990   6.055  0.00  0.00    +0.000 A 
ATOM     18  C   LIG    1       23.851 -25.665   6.100  0.00  0.00    +0.006 A 
ENDBRANCH  11  13
ENDBRANCH   2  11
TORSDOF 5
ENDMDL
MODEL 5
REMARK VINA RESULT:      -6.9      2.405      5.250
REMARK  Name = *****
REMARK                            x       y       z     vdW  Elec       q    Type
REMARK                         _______ _______ _______ _____ _____    ______ ____
ROOT
ATOM      1  C   LIG    1       25.228 -21.068   5.250  0.00  0.00    +0.147 A 
ATOM      2  N   LIG    1       25.169 -22.229   6.000  0.00  0.00    -0.318 N 
ATOM      3  C   LIG    1       26.123 -22.118   6.986  0.00  0.00    +0.200 A 
ATOM      4  N   LIG    1       26.831 -21.021   6.874  0.00  0.00    -0.243 NA
ATOM      5  C   LIG    1       26.295 -20.371   5.802  0.00  0.00    +0.145 A 
ENDROOT
BRANCH   1   6
ATOM      6  C   LIG    1       24.388 -20.666   4.158  0.00  0.00    +0.357 C 
ATOM      7  O   LIG    1       24.763 -20.353   3.043  0.00  0.00    -0.243 OA
BRANCH   6   8
ATOM      8  O   LIG    1       23.077 -20.712   4.554  0.00  0.00    -0.460 OA
BRANCH   8  10
ATOM      9  C   LIG    1       22.217 -18.453   4.486  0.00  0.00    +0.048 C 
ATOM     10  C   LIG    1       22.625 -19.620   5.364  0.00  0.00    +0.229 C 
ENDBRANCH   8  10
ENDBRANCH   6   8
ENDBRANCH   1   6
BRANCH   2  11
ATOM     11  C   LIG    1       24.261 -23.373   5.834  0.00  0.00    +0.116 C 
ATOM     12  C   LIG    1       23.124 -23.373   6.870  0.00  0.00    +0.036 C 
BRANCH  11  13
ATOM     13  C   LIG    1       24.996 -24.714   5.811  0.00  0.00    -0.025 A 
ATOM     14  C   LIG    1       25.497 -25.326   6.973  0.00  0.00    +0.006 A 
ATOM     15  C   LIG    1       26.108 -26.583   6.924  0.00  0.00    +0.000 A 
ATOM     16  C   LIG    1       26.230 -27.258   5.714  0.00  0.00    +0.000 A 
ATOM     17  C   LIG    1       25.748 -26.670   4.548  0.00  0.00    +0.000 A 
ATOM     18  C   LIG    1       25.135 -25.412   4.595  0.00  0.00    +0.006 A 
ENDBRANCH  11  13
ENDBRANCH   2  11
TORSDOF 5
ENDMDL
MODEL 6
REMARK VINA RESULT:      -6.9      2.376      4.428
REMARK  Name = *****
REMARK                            x       y       z     vdW  Elec       q    Type
REMARK                         _______ _______ _______ _____ _____    ______ ____
ROOT
ATOM      1  C   LIG    1       26.368 -20.682   6.973  0.00  0.00    +0.147 A 
ATOM      2  N   LIG    1       25.342 -21.583   7.190  0.00  0.00    -0.318 N 
ATOM      3  C   LIG    1       25.146 -21.648   8.551  0.00  0.00    +0.200 A 
ATOM      4  N   LIG    1       26.013 -20.924   9.214  0.00  0.00    -0.243 NA
ATOM      5  C   LIG    1       26.777 -20.331   8.253  0.00  0.00    +0.145 A 
ENDROOT
BRANCH   1   6
ATOM      6  C   LIG    1       26.893 -20.209   5.724  0.00  0.00    +0.357 C 
ATOM      7  O   LIG    1       26.239 -19.813   4.776  0.00  0.00    -0.243 OA
BRANCH   6   8
ATOM      8  O   LIG    1       28.262 -20.246   5.764  0.00  0.00    -0.460 OA
BRANCH   8  10
ATOM      9  C   LIG    1       30.213 -18.989   6.446  0.00  0.00    +0.048 C 
ATOM     10  C   LIG    1       28.930 -18.984   5.638  0.00  0.00    +0.229 C 
ENDBRANCH   8  10
ENDBRANCH   6   8
ENDBRANCH   1   6
BRANCH   2  11
ATOM     11  C   LIG    1       24.561 -22.328   6.192  0.00  0.00    +0.116 C 
ATOM     12  C   LIG    1       23.065 -21.974   6.237  0.00  0.00    +0.036 C 
BRANCH  11  13
ATOM     13  C   LIG    1       24.780 -23.839   6.277  0.00  0.00    -0.025 A 
ATOM     14  C   LIG    1       23.731 -24.767   6.168  0.00  0.00    +0.006 A 
ATOM     15  C   LIG    1       23.976 -26.144   6.185  0.00  0.00    +0.000 A 
ATOM     16  C   LIG    1       25.275 -26.625   6.310  0.00  0.00    +0.000 A 
ATOM     17  C   LIG    1       26.331 -25.726   6.426  0.00  0.00    +0.000 A 
ATOM     18  C   LIG    1       26.088 -24.347   6.407  0.00  0.00    +0.006 A 
ENDBRANCH  11  13
ENDBRANCH   2  11
TORSDOF 5
ENDMDL
MODEL 7
REMARK VINA RESULT:      -6.8      4.710      7.763
REMARK  Name = *****
REMARK                            x       y       z     vdW  Elec       q    Type
REMARK                         _______ _______ _______ _____ _____    ______ ____
ROOT
ATOM      1  C   LIG    1       29.869 -21.200   8.414  0.00  0.00    +0.147 A 
ATOM      2  N   LIG    1       30.549 -20.042   8.744  0.00  0.00    -0.318 N 
ATOM      3  C   LIG    1       31.761 -20.424   9.272  0.00  0.00    +0.200 A 
ATOM      4  N   LIG    1       31.872 -21.726   9.374  0.00  0.00    -0.243 NA
ATOM      5  C   LIG    1       30.708 -22.214   8.858  0.00  0.00    +0.145 A 
ENDROOT
BRANCH   1   6
ATOM      6  C   LIG    1       28.597 -21.334   7.763  0.00  0.00    +0.357 C 
ATOM      7  O   LIG    1       28.401 -21.300   6.562  0.00  0.00    -0.243 OA
BRANCH   6   8
ATOM      8  O   LIG    1       27.624 -21.537   8.706  0.00  0.00    -0.460 OA
BRANCH   8  10
ATOM      9  C   LIG    1       25.400 -20.748   8.179  0.00  0.00    +0.048 C 
ATOM     10  C   LIG    1       26.340 -21.937   8.211  0.00  0.00    +0.229 C 
ENDBRANCH   8  10
ENDBRANCH   6   8
ENDBRANCH   1   6
BRANCH   2  11
ATOM     11  C   LIG    1       30.116 -18.649   8.559  0.00  0.00    +0.116 C 
ATOM     12  C   LIG    1       30.166 -18.212   7.085  0.00  0.00    +0.036 C 
BRANCH  11  13
ATOM     13  C   LIG    1       30.870 -17.669   9.458  0.00  0.00    -0.025 A 
ATOM     14  C   LIG    1       30.490 -17.409  10.786  0.00  0.00    +0.006 A 
ATOM     15  C   LIG    1       31.241 -16.556  11.601  0.00  0.00    +0.000 A 
ATOM     16  C   LIG    1       32.390 -15.945  11.109  0.00  0.00    +0.000 A 
ATOM     17  C   LIG    1       32.784 -16.181   9.795  0.00  0.00    +0.000 A 
ATOM     18  C   LIG    1       32.034 -17.037   8.978  0.00  0.00    +0.006 A 
ENDBRANCH  11  13
ENDBRANCH   2  11
TORSDOF 5
ENDMDL
MODEL 8
REMARK VINA RESULT:      -6.7      2.297      4.418
REMARK  Name = *****
REMARK                            x       y       z     vdW  Elec       q    Type
REMARK                         _______ _______ _______ _____ _____    ______ ____
ROOT
ATOM      1  C   LIG    1       27.491 -20.286   6.558  0.00  0.00    +0.147 A 
ATOM      2  N   LIG    1       26.134 -20.539   6.465  0.00  0.00    -0.318 N 
ATOM      3  C   LIG    1       25.733 -20.119   5.217  0.00  0.00    +0.200 A 
ATOM      4  N   LIG    1       26.705 -19.554   4.545  0.00  0.00    -0.243 NA
ATOM      5  C   LIG    1       27.790 -19.642   5.365  0.00  0.00    +0.145 A 
ENDROOT
BRANCH   1   6
ATOM      6  C   LIG    1       28.389 -20.613   7.629  0.00  0.00    +0.357 C 
ATOM      7  O   LIG    1       28.845 -21.716   7.869  0.00  0.00    -0.243 OA
BRANCH   6   8
ATOM      8  O   LIG    1       28.682 -19.477   8.337  0.00  0.00    -0.460 OA
BRANCH   8  10
ATOM      9  C   LIG    1       30.212 -17.755   9.072  0.00  0.00    +0.048 C 
ATOM     10  C   LIG    1       30.054 -19.065   8.326  0.00  0.00    +0.229 C 
ENDBRANCH   8  10
ENDBRANCH   6   8
ENDBRANCH   1   6
BRANCH   2  11
ATOM     11  C   LIG    1       25.254 -21.160   7.465  0.00  0.00    +0.116 C 
ATOM     12  C   LIG    1       25.787 -20.993   8.898  0.00  0.00    +0.036 C 
BRANCH  11  13
ATOM     13  C   LIG    1       24.943 -22.625   7.152  0.00  0.00    -0.025 A 
ATOM     14  C   LIG    1       23.641 -23.088   6.898  0.00  0.00    +0.006 A 
ATOM     15  C   LIG    1       23.401 -24.422   6.552  0.00  0.00    +0.000 A 
ATOM     16  C   LIG    1       24.456 -25.322   6.448  0.00  0.00    +0.000 A 
ATOM     17  C   LIG    1       25.755 -24.889   6.700  0.00  0.00    +0.000 A 
ATOM     18  C   LIG    1       25.998 -23.554   7.046  0.00  0.00    +0.006 A 
ENDBRANCH  11  13
ENDBRANCH   2  11
TORSDOF 5
ENDMDL
MODEL 9
REMARK VINA RESULT:      -6.7      1.880      4.262
REMARK  Name = *****
REMARK                            x       y       z     vdW  Elec       q    Type
REMARK                         _______ _______ _______ _____ _____    ______ ____
ROOT
ATOM      1  C   LIG    1       25.626 -20.749   5.769  0.00  0.00    +0.147 A 
ATOM      2  N   LIG    1       24.599 -21.520   5.257  0.00  0.00    -0.318 N 
ATOM      3  C   LIG    1       24.361 -21.073   3.977  0.00  0.00    +0.200 A 
ATOM      4  N   LIG    1       25.098 -20.035   3.666  0.00  0.00    -0.243 NA
ATOM      5  C   LIG    1       25.875 -19.820   4.767  0.00  0.00    +0.145 A 
ENDROOT
BRANCH   1   6
ATOM      6  C   LIG    1       26.290 -20.872   7.035  0.00  0.00    +0.357 C 
ATOM      7  O   LIG    1       25.930 -20.371   8.085  0.00  0.00    -0.243 OA
BRANCH   6   8
ATOM      8  O   LIG    1       27.394 -21.671   6.893  0.00  0.00    -0.460 OA
BRANCH   8  10
ATOM      9  C   LIG    1       29.322 -20.234   6.636  0.00  0.00    +0.048 C 
ATOM     10  C   LIG    1       28.591 -21.213   7.534  0.00  0.00    +0.229 C 
ENDBRANCH   8  10
ENDBRANCH   6   8
ENDBRANCH   1   6
BRANCH   2  11
ATOM     11  C   LIG    1       23.888 -22.632   5.904  0.00  0.00    +0.116 C 
ATOM     12  C   LIG    1       23.400 -22.272   7.317  0.00  0.00    +0.036 C 
BRANCH  11  13
ATOM     13  C   LIG    1       24.696 -23.931   5.905  0.00  0.00    -0.025 A 
ATOM     14  C   LIG    1       25.335 -24.427   7.054  0.00  0.00    +0.006 A 
ATOM     15  C   LIG    1       26.012 -25.651   7.035  0.00  0.00    +0.000 A 
ATOM     16  C   LIG    1       26.064 -26.407   5.869  0.00  0.00    +0.000 A 
ATOM     17  C   LIG    1       25.445 -25.934   4.715  0.00  0.00    +0.000 A 
ATOM     18  C   LIG    1       24.765 -24.709   4.733  0.00  0.00    +0.006 A 
ENDBRANCH  11  13
ENDBRANCH   2  11
TORSDOF 5
ENDMDL
