REMARK  Name = *****
REMARK                            x       y       z     vdW  Elec       q    Type
REMARK                         _______ _______ _______ _____ _____    ______ ____
ROOT
ATOM      1  C   LIG    1        6.639  -3.984   3.411  0.00  0.00    +0.059 A 
ATOM      2  C   LIG    1        6.744  -5.305   3.853  0.00  0.00    +0.017 A 
ATOM      3  C   LIG    1        7.811  -5.686   4.672  0.00  0.00    +0.023 A 
ATOM      4  C   LIG    1        8.813  -4.773   5.011  0.00  0.00    +0.025 A 
ATOM      5  C   LIG    1        8.690  -3.448   4.583  0.00  0.00    +0.023 A 
ATOM      6  C   LIG    1        7.624  -3.056   3.768  0.00  0.00    +0.017 A 
ENDROOT
BRANCH   4   7
ATOM      7  N   LIG    1        9.786  -5.119   5.955  0.00  0.00    -0.358 N 
ATOM      8  H   LIG    1        9.998  -6.111   5.981  0.00  0.00    +0.142 HD
ATOM      9  H   LIG    1       10.623  -4.546   5.915  0.00  0.00    +0.142 HD
ENDBRANCH   4   7
BRANCH   1  10
ATOM     10  C   LIG    1        5.446  -3.607   2.608  0.00  0.00    +0.339 C 
ATOM     11  O   LIG    1        4.699  -4.412   2.083  0.00  0.00    -0.245 OA
BRANCH  10  12
ATOM     12  O   LIG    1        5.311  -2.258   2.598  0.00  0.00    -0.461 OA
BRANCH  12  13
ATOM     13  C   LIG    1        4.178  -1.744   1.886  0.00  0.00    +0.232 C 
BRANCH  13  14
ATOM     14  C   LIG    1        4.445  -1.720   0.382  0.00  0.00    +0.041 C 
BRANCH  14  16
ATOM     15  C   LIG    1        5.939  -0.814  -1.448  0.00  0.00    +0.004 C 
ATOM     16  C   LIG    1        5.656  -0.848   0.044  0.00  0.00    +0.000 C 
ENDBRANCH  14  16
ENDBRANCH  13  14
ENDBRANCH  12  13
ENDBRANCH  10  12
ENDBRANCH   1  10
TORSDOF 6
