REMARK  Name = *****
REMARK                            x       y       z     vdW  Elec       q    Type
REMARK                         _______ _______ _______ _____ _____    ______ ____
ROOT
ATOM      1  C   LIG    1        6.811   1.407   2.086  0.00  0.00    +0.284 C 
ENDROOT
BRANCH   1   3
ATOM      2  O   LIG    1        7.672   3.277   0.113  0.00  0.00    -0.257 OA
ATOM      3  P   LIG    1        8.035   2.544   1.357  0.00  0.00    +0.356 P 
BRANCH   3   4
ATOM      4  O   LIG    1        8.492   3.560   2.519  0.00  0.00    -0.323 OA
ATOM      5  H   LIG    1        9.007   4.312   2.179  0.00  0.00    +0.220 HD
ENDBRANCH   3   4
BRANCH   3   6
ATOM      6  O   LIG    1        9.400   1.713   1.188  0.00  0.00    -0.323 OA
ATOM      7  H   LIG    1       10.042   2.146   0.598  0.00  0.00    +0.220 HD
ENDBRANCH   3   6
ENDBRANCH   1   3
BRANCH   1   8
ATOM      8  P   LIG    1        6.392   0.009   1.024  0.00  0.00    +0.356 P 
ATOM      9  O   LIG    1        7.451  -0.620   0.190  0.00  0.00    -0.257 OA
BRANCH   8  10
ATOM     10  O   LIG    1        5.116   0.405   0.140  0.00  0.00    -0.323 OA
ATOM     11  H   LIG    1        4.920  -0.254  -0.560  0.00  0.00    +0.220 HD
ENDBRANCH   8  10
BRANCH   8  12
ATOM     12  O   LIG    1        5.737  -1.102   1.979  0.00  0.00    -0.323 OA
ATOM     13  H   LIG    1        5.719  -1.991   1.569  0.00  0.00    +0.220 HD
ENDBRANCH   8  12
ENDBRANCH   1   8
BRANCH   1  14
ATOM     14  N   LIG    1        5.606   2.260   2.381  0.00  0.00    -0.291 NA
ATOM     15  H   LIG    1        5.292   2.668   1.494  0.00  0.00    +0.124 HD
BRANCH  14  16
ATOM     16  C   LIG    1        4.468   1.571   3.010  0.00  0.00    +0.055 C 
ATOM     17  C   LIG    1        4.799   0.855   4.329  0.00  0.00    +0.019 C 
ATOM     18  C   LIG    1        5.113   1.820   5.467  0.00  0.00    +0.002 C 
ATOM     19  C   LIG    1        3.954   2.782   5.700  0.00  0.00    +0.000 C 
ATOM     20  C   LIG    1        3.584   3.534   4.425  0.00  0.00    +0.002 C 
ATOM     21  C   LIG    1        3.325   2.583   3.256  0.00  0.00    +0.019 C 
ENDBRANCH  14  16
ENDBRANCH   1  14
TORSDOF 8
