REMARK  Name = *****
REMARK                            x       y       z     vdW  Elec       q    Type
REMARK                         _______ _______ _______ _____ _____    ______ ____
ROOT
ATOM      1  O   LIG    1       -4.928  -7.155  -2.065  0.00  0.00    -0.340 OA
ENDROOT
BRANCH   1   7
ATOM      2  C   LIG    1       -4.987 -10.528   0.893  0.00  0.00    +0.039 C 
ATOM      3  C   LIG    1       -4.598  -9.590  -0.254  0.00  0.00    +0.138 C 
ATOM      4  C   LIG    1       -3.373  -8.729   0.181  0.00  0.00    +0.114 C 
ATOM      5  C   LIG    1       -3.864  -7.280   0.611  0.00  0.00    +0.167 C 
ATOM      6  C   LIG    1       -5.383  -7.074   0.409  0.00  0.00    +0.200 C 
ATOM      7  C   LIG    1       -5.758  -7.588  -0.975  0.00  0.00    +0.282 C 
ATOM      8  O   LIG    1       -5.762  -9.003  -0.840  0.00  0.00    -0.344 OA
BRANCH   6   9
ATOM      9  O   LIG    1       -5.800  -5.723   0.640  0.00  0.00    -0.384 OA
ATOM     10  H   LIG    1       -6.769  -5.754   0.770  0.00  0.00    +0.210 HD
ENDBRANCH   6   9
BRANCH   5  11
ATOM     11  O   LIG    1       -3.633  -7.088   2.029  0.00  0.00    -0.387 OA
ATOM     12  H   LIG    1       -4.106  -6.267   2.272  0.00  0.00    +0.210 HD
ENDBRANCH   5  11
BRANCH   4  13
ATOM     13  N   LIG    1       -2.168  -8.903  -0.731  0.00  0.00    -0.300 NA
ATOM     14  H   LIG    1       -2.230  -8.336  -1.571  0.00  0.00    +0.123 HD
BRANCH  13  15
ATOM     15  C   LIG    1       -1.694 -10.313  -0.989  0.00  0.00    +0.109 C 
ATOM     16  C   LIG    1       -0.212 -10.537  -1.471  0.00  0.00    +0.166 C 
ATOM     17  C   LIG    1        0.048 -10.620  -3.008  0.00  0.00    +0.177 C 
ATOM     18  C   LIG    1       -1.212 -10.828  -3.872  0.00  0.00    +0.173 C 
ATOM     19  C   LIG    1       -2.313 -11.516  -3.153  0.00  0.00    -0.016 C 
ATOM     20  C   LIG    1       -2.539 -11.220  -1.815  0.00  0.00    -0.002 C 
BRANCH  18  21
ATOM     21  O   LIG    1       -0.835 -11.594  -5.041  0.00  0.00    -0.385 OA
ATOM     22  H   LIG    1       -0.388 -10.968  -5.650  0.00  0.00    +0.210 HD
ENDBRANCH  18  21
BRANCH  17  23
ATOM     23  O   LIG    1        0.988 -11.705  -3.259  0.00  0.00    -0.386 OA
ATOM     24  H   LIG    1        0.788 -12.043  -4.155  0.00  0.00    +0.210 HD
ENDBRANCH  17  23
BRANCH  16  25
ATOM     25  O   LIG    1        0.697  -9.614  -0.883  0.00  0.00    -0.387 OA
ATOM     26  H   LIG    1        0.392  -9.481   0.034  0.00  0.00    +0.210 HD
ENDBRANCH  16  25
BRANCH  19  27
ATOM     27  C   LIG    1       -3.152 -12.539  -3.809  0.00  0.00    +0.189 C 
BRANCH  27  28
ATOM     28  O   LIG    1       -2.613 -13.829  -3.529  0.00  0.00    -0.391 OA
ATOM     29  H   LIG    1       -1.660 -13.767  -3.715  0.00  0.00    +0.210 HD
ENDBRANCH  27  28
ENDBRANCH  19  27
ENDBRANCH  13  15
ENDBRANCH   4  13
ENDBRANCH   1   7
BRANCH   1  30
ATOM     30  C   LIG    1       -4.896  -5.723  -2.358  0.00  0.00    +0.183 C 
ATOM     31  C   LIG    1       -6.266  -5.172  -2.810  0.00  0.00    +0.178 C 
ATOM     32  O   LIG    1       -6.608  -5.452  -4.189  0.00  0.00    -0.341 OA
ATOM     33  C   LIG    1       -5.587  -5.389  -5.223  0.00  0.00    +0.282 C 
ATOM     34  C   LIG    1       -4.301  -4.742  -4.688  0.00  0.00    +0.201 C 
ATOM     35  C   LIG    1       -3.817  -5.501  -3.446  0.00  0.00    +0.179 C 
BRANCH  35  36
ATOM     36  O   LIG    1       -2.696  -4.799  -2.880  0.00  0.00    -0.386 OA
ATOM     37  H   LIG    1       -2.140  -4.496  -3.626  0.00  0.00    +0.210 HD
ENDBRANCH  35  36
BRANCH  34  38
ATOM     38  O   LIG    1       -3.248  -4.619  -5.649  0.00  0.00    -0.384 OA
ATOM     39  H   LIG    1       -2.732  -5.441  -5.638  0.00  0.00    +0.210 HD
ENDBRANCH  34  38
BRANCH  31  40
ATOM     40  C   LIG    1       -6.502  -3.699  -2.357  0.00  0.00    +0.190 C 
BRANCH  40  41
ATOM     41  O   LIG    1       -5.761  -2.718  -3.055  0.00  0.00    -0.392 OA
ATOM     42  H   LIG    1       -6.194  -2.584  -3.917  0.00  0.00    +0.209 HD
ENDBRANCH  40  41
ENDBRANCH  31  40
BRANCH  33  43
ATOM     43  O   LIG    1       -5.378  -6.708  -5.814  0.00  0.00    -0.340 OA
BRANCH  43  44
ATOM     44  C   LIG    1       -4.643  -6.830  -7.083  0.00  0.00    +0.183 C 
ATOM     45  C   LIG    1       -5.310  -6.099  -8.277  0.00  0.00    +0.178 C 
ATOM     46  O   LIG    1       -6.576  -6.668  -8.666  0.00  0.00    -0.341 OA
ATOM     47  C   LIG    1       -6.887  -7.925  -8.077  0.00  0.00    +0.279 C 
ATOM     48  C   LIG    1       -5.719  -8.915  -8.155  0.00  0.00    +0.201 C 
ATOM     49  C   LIG    1       -4.485  -8.341  -7.443  0.00  0.00    +0.179 C 
BRANCH  49  50
ATOM     50  O   LIG    1       -3.333  -8.542  -8.290  0.00  0.00    -0.386 OA
ATOM     51  H   LIG    1       -3.291  -9.497  -8.491  0.00  0.00    +0.210 HD
ENDBRANCH  49  50
BRANCH  48  52
ATOM     52  O   LIG    1       -6.048 -10.181  -7.555  0.00  0.00    -0.384 OA
ATOM     53  H   LIG    1       -6.968 -10.375  -7.822  0.00  0.00    +0.210 HD
ENDBRANCH  48  52
BRANCH  47  54
ATOM     54  O   LIG    1       -7.983  -8.490  -8.791  0.00  0.00    -0.365 OA
ATOM     55  H   LIG    1       -8.738  -7.917  -8.570  0.00  0.00    +0.213 HD
ENDBRANCH  47  54
BRANCH  45  56
ATOM     56  C   LIG    1       -4.404  -5.990  -9.532  0.00  0.00    +0.190 C 
BRANCH  56  57
ATOM     57  O   LIG    1       -3.134  -5.435  -9.206  0.00  0.00    -0.392 OA
ATOM     58  H   LIG    1       -2.535  -5.624  -9.952  0.00  0.00    +0.209 HD
ENDBRANCH  56  57
ENDBRANCH  45  56
ENDBRANCH  43  44
ENDBRANCH  33  43
ENDBRANCH   1  30
TORSDOF 22
