REMARK  Name = *****
REMARK                            x       y       z     vdW  Elec       q    Type
REMARK                         _______ _______ _______ _____ _____    ______ ____
ROOT
ATOM      1  C   LIG    1        0.844   0.422  -0.912  0.00  0.00    +0.105 C 
ATOM      2  N   LIG    1        2.061   0.139  -0.149  0.00  0.00    -0.301 NA
ATOM      3  C   LIG    1        2.656  -1.154  -0.556  0.00  0.00    +0.116 C 
ATOM      4  C   LIG    1        3.524  -1.065  -1.770  0.00  0.00    -0.040 C 
ATOM      5  C   LIG    1        4.029  -2.271  -2.537  0.00  0.00    +0.077 C 
ATOM      6  C   LIG    1        4.859  -1.583  -3.603  0.00  0.00    -0.029 A 
ATOM      7  C   LIG    1        4.812  -0.190  -3.420  0.00  0.00    -0.018 A 
ATOM      8  C   LIG    1        5.500   0.661  -4.266  0.00  0.00    +0.008 A 
ATOM      9  C   LIG    1        6.245   0.100  -5.307  0.00  0.00    +0.001 A 
ATOM     10  C   LIG    1        6.294  -1.293  -5.487  0.00  0.00    +0.000 A 
ATOM     11  C   LIG    1        5.599  -2.148  -4.630  0.00  0.00    +0.005 A 
ATOM     12  C   LIG    1        3.974   0.100  -2.270  0.00  0.00    -0.037 C 
ATOM     13  C   LIG    1        3.670   1.422  -1.667  0.00  0.00    +0.051 C 
ATOM     14  C   LIG    1        3.044   1.238  -0.265  0.00  0.00    +0.089 C 
ENDROOT
BRANCH   5  15
ATOM     15  C   LIG    1        2.927  -3.161  -3.078  0.00  0.00    -0.036 A 
ATOM     16  C   LIG    1        2.844  -4.499  -2.658  0.00  0.00    +0.004 A 
ATOM     17  C   LIG    1        1.830  -5.333  -3.134  0.00  0.00    +0.000 A 
ATOM     18  C   LIG    1        0.886  -4.843  -4.034  0.00  0.00    +0.000 A 
ATOM     19  C   LIG    1        0.953  -3.518  -4.458  0.00  0.00    +0.000 A 
ATOM     20  C   LIG    1        1.965  -2.682  -3.983  0.00  0.00    +0.004 A 
ENDBRANCH   5  15
TORSDOF 1
