REMARK  Name = *****
REMARK                            x       y       z     vdW  Elec       q    Type
REMARK                         _______ _______ _______ _____ _____    ______ ____
ROOT
ATOM      1  C   LIG    1        4.927   0.881  -0.951  0.00  0.00    +0.037 A 
ATOM      2  C   LIG    1        5.522  -0.241  -1.547  0.00  0.00    +0.033 A 
ATOM      3  C   LIG    1        6.839  -0.191  -2.023  0.00  0.00    +0.002 A 
ATOM      4  C   LIG    1        7.558   1.005  -1.909  0.00  0.00    +0.010 A 
ATOM      5  C   LIG    1        6.968   2.130  -1.327  0.00  0.00    +0.002 A 
ATOM      6  C   LIG    1        5.656   2.070  -0.853  0.00  0.00    +0.023 A 
ENDROOT
BRANCH   3   7
ATOM      7  C   LIG    1        7.472  -1.392  -2.596  0.00  0.00    +0.076 A 
ATOM      8  N   LIG    1        7.377  -1.704  -3.966  0.00  0.00    -0.213 N 
ATOM      9  C   LIG    1        8.004  -2.855  -4.479  0.00  0.00    +0.174 A 
ATOM     10  C   LIG    1        7.728  -2.867  -5.829  0.00  0.00    +0.116 A 
ATOM     11  C   LIG    1        6.946  -1.729  -6.058  0.00  0.00    +0.156 A 
ATOM     12  N   LIG    1        8.719  -3.710  -3.685  0.00  0.00    -0.235 NA
ATOM     13  C   LIG    1        8.783  -3.399  -2.427  0.00  0.00    +0.115 A 
ATOM     14  N   LIG    1        6.726  -1.020  -4.950  0.00  0.00    -0.172 NA
ATOM     15  C   LIG    1        8.161  -2.213  -1.782  0.00  0.00    +0.048 A 
BRANCH  10  16
ATOM     16  C   LIG    1        8.153  -3.835  -6.775  0.00  0.00    +0.104 C 
ATOM     17  N   LIG    1        8.482  -4.607  -7.585  0.00  0.00    -0.191 NA
ENDBRANCH  10  16
ENDBRANCH   3   7
BRANCH   1  18
ATOM     18  N   LIG    1        3.587   0.797  -0.487  0.00  0.00    -0.272 N 
ATOM     19  C   LIG    1        3.183   1.083   0.818  0.00  0.00    +0.217 C 
ATOM     20  O   LIG    1        2.007   1.000   1.182  0.00  0.00    -0.276 OA
ATOM     21  C   LIG    1        4.242   1.444   1.833  0.00  0.00    +0.110 C 
BRANCH  18  23
ATOM     22  C   LIG    1        1.982  -0.996  -1.153  0.00  0.00    +0.025 C 
ATOM     23  C   LIG    1        2.566   0.377  -1.456  0.00  0.00    +0.110 C 
ENDBRANCH  18  23
ENDBRANCH   1  18
TORSDOF 4
