REMARK  Name = *****
REMARK                            x       y       z     vdW  Elec       q    Type
REMARK                         _______ _______ _______ _____ _____    ______ ____
ROOT
ATOM      1  S   LIG    1        4.421  -1.949  -1.569  0.00  0.00    +0.062 S 
ATOM      2  O   LIG    1        5.774  -1.786  -2.073  0.00  0.00    -0.153 OA
ATOM      3  O   LIG    1        3.316  -1.828  -2.487  0.00  0.00    -0.153 OA
ENDROOT
BRANCH   1   4
ATOM      4  C   LIG    1        4.387  -3.586  -0.806  0.00  0.00    +0.116 A 
ATOM      5  C   LIG    1        3.226  -4.421  -0.767  0.00  0.00    +0.047 A 
ATOM      6  C   LIG    1        3.429  -5.789  -0.427  0.00  0.00    +0.005 A 
ATOM      7  C   LIG    1        2.337  -6.666  -0.432  0.00  0.00    +0.119 A 
ATOM      8  N   LIG    1        1.067  -6.314  -0.713  0.00  0.00    -0.260 NA
ATOM      9  C   LIG    1        0.870  -5.010  -0.986  0.00  0.00    +0.149 A 
ATOM     10  C   LIG    1        4.700  -6.275  -0.088  0.00  0.00    +0.010 A 
ATOM     11  C   LIG    1        5.803  -5.433  -0.079  0.00  0.00    +0.003 A 
ATOM     12  C   LIG    1        1.881  -4.056  -1.010  0.00  0.00    +0.151 A 
ATOM     13  F   LIG    1        1.514  -2.781  -1.176  0.00  0.00    -0.203 F 
ATOM     14  C   LIG    1        5.651  -4.103  -0.449  0.00  0.00    +0.029 A 
ENDBRANCH   1   4
BRANCH   1  17
ATOM     15  C   LIG    1        2.411  -0.004   1.194  0.00  0.00    +0.027 C 
ATOM     16  C   LIG    1        3.019  -0.003  -0.212  0.00  0.00    +0.090 C 
ATOM     17  N   LIG    1        4.226  -0.884  -0.248  0.00  0.00    -0.172 NA
ATOM     18  C   LIG    1        5.457  -0.376   0.409  0.00  0.00    +0.111 C 
ATOM     19  C   LIG    1        6.101   0.753  -0.394  0.00  0.00    +0.032 C 
ATOM     20  C   LIG    1        5.565   2.146  -0.070  0.00  0.00    +0.082 C 
ATOM     21  N   LIG    1        4.128   2.296   0.111  0.00  0.00    -0.314 NA
ATOM     22  H   LIG    1        3.882   2.175   1.091  0.00  0.00    +0.122 HD
ATOM     23  C   LIG    1        3.300   1.432  -0.741  0.00  0.00    +0.101 C 
ENDBRANCH   1  17
TORSDOF 2
