REMARK  Name = *****
REMARK                            x       y       z     vdW  Elec       q    Type
REMARK                         _______ _______ _______ _____ _____    ______ ____
ROOT
ATOM      1  C   LIG    1        5.165   1.685  -0.102  0.00  0.00    +0.169 C 
ATOM      2  O   LIG    1        6.211   1.036  -0.042  0.00  0.00    -0.292 OA
ENDROOT
BRANCH   1  10
ATOM      3  C   LIG    1        0.241   0.878  -0.485  0.00  0.00    +0.149 C 
ATOM      4  N   LIG    1        1.665   0.635  -0.401  0.00  0.00    -0.349 NA
ATOM      5  C   LIG    1        2.249  -0.611  -0.382  0.00  0.00    +0.050 C 
ATOM      6  C   LIG    1        3.628  -0.409  -0.272  0.00  0.00    +0.010 C 
ATOM      7  C   LIG    1        4.467  -1.545  -0.224  0.00  0.00    +0.010 C 
ATOM      8  C   LIG    1        3.913  -2.828  -0.290  0.00  0.00    +0.001 C 
ATOM      9  C   LIG    1        2.538  -2.997  -0.401  0.00  0.00    +0.002 C 
ATOM     10  C   LIG    1        3.866   1.009  -0.228  0.00  0.00    +0.043 C 
ATOM     11  C   LIG    1        1.682  -1.895  -0.448  0.00  0.00    +0.026 C 
ATOM     12  C   LIG    1        2.622   1.612  -0.322  0.00  0.00    +0.098 C 
ENDBRANCH   1  10
BRANCH   1  13
ATOM     13  C   LIG    1        5.212   3.210  -0.063  0.00  0.00    +0.066 C 
ATOM     14  C   LIG    1        6.375   3.684   0.848  0.00  0.00    +0.066 C 
ATOM     15  C   LIG    1        6.532   5.147   0.678  0.00  0.00    +0.039 C 
ATOM     16  C   LIG    1        6.083   5.892  -0.387  0.00  0.00    +0.062 C 
ATOM     17  N   LIG    1        6.379   7.214  -0.213  0.00  0.00    -0.241 NA
ATOM     18  C   LIG    1        7.019   7.270   0.936  0.00  0.00    +0.197 C 
ATOM     19  C   LIG    1        5.321   5.328  -1.529  0.00  0.00    +0.058 C 
ATOM     20  N   LIG    1        7.145   6.033   1.514  0.00  0.00    -0.348 NA
ATOM     21  H   LIG    1        7.598   5.830   2.394  0.00  0.00    +0.167 HD
ATOM     22  C   LIG    1        5.350   3.782  -1.499  0.00  0.00    +0.018 C 
ENDBRANCH   1  13
TORSDOF 2
