REMARK  Name = *****
REMARK                            x       y       z     vdW  Elec       q    Type
REMARK                         _______ _______ _______ _____ _____    ______ ____
ROOT
ATOM      1  C   LIG    1        6.185   3.249  -2.567  0.00  0.00    +0.162 A 
ATOM      2  C   LIG    1        5.388   2.151  -2.297  0.00  0.00    +0.167 A 
ATOM      3  O   LIG    1        4.747   1.343  -3.201  0.00  0.00    -0.481 OA
ATOM      4  C   LIG    1        3.931   0.406  -2.429  0.00  0.00    +0.217 C 
ATOM      5  C   LIG    1        4.170   0.653  -0.927  0.00  0.00    +0.048 C 
ATOM      6  C   LIG    1        2.973   1.181  -0.121  0.00  0.00    +0.043 C 
ATOM      7  C   LIG    1        3.476   1.324   1.349  0.00  0.00    +0.069 C 
ATOM      8  N   LIG    1        3.950   0.065   1.964  0.00  0.00    -0.301 NA
ATOM      9  C   LIG    1        3.086  -0.378   3.056  0.00  0.00    +0.105 C 
ATOM     10  C   LIG    1        4.181  -1.022   1.014  0.00  0.00    +0.085 C 
ATOM     11  C   LIG    1        4.671   2.373   1.413  0.00  0.00    +0.055 C 
ATOM     12  C   LIG    1        5.372   2.637   0.094  0.00  0.00    -0.038 A 
ATOM     13  C   LIG    1        6.205   3.726  -0.148  0.00  0.00    +0.008 A 
ATOM     14  C   LIG    1        1.740   0.384  -0.450  0.00  0.00    -0.023 C 
ATOM     15  C   LIG    1        1.492   0.097  -1.743  0.00  0.00    +0.004 C 
ATOM     16  C   LIG    1        4.885  -0.549  -0.256  0.00  0.00    +0.031 C 
ATOM     17  C   LIG    1        2.442   0.516  -2.837  0.00  0.00    +0.178 C 
ATOM     18  C   LIG    1        5.068   1.831  -0.995  0.00  0.00    +0.012 A 
ATOM     19  C   LIG    1        6.619   4.015  -1.467  0.00  0.00    +0.050 A 
ENDROOT
BRANCH  17  20
ATOM     20  O   LIG    1        2.207  -0.341  -3.956  0.00  0.00    -0.384 OA
ATOM     21  H   LIG    1        1.481   0.054  -4.466  0.00  0.00    +0.210 HD
ENDBRANCH  17  20
BRANCH   1  22
ATOM     22  O   LIG    1        6.582   3.710  -3.792  0.00  0.00    -0.489 OA
BRANCH  22  24
ATOM     23  C   LIG    1        6.626   3.650  -6.189  0.00  0.00    +0.048 C 
ATOM     24  C   LIG    1        6.103   2.987  -4.928  0.00  0.00    +0.226 C 
ENDBRANCH  22  24
ENDBRANCH   1  22
TORSDOF 3
