REMARK  Name = *****
REMARK                            x       y       z     vdW  Elec       q    Type
REMARK                         _______ _______ _______ _____ _____    ______ ____
ROOT
ATOM      1  C   LIG    1       -3.334  -0.703  -1.179  0.00  0.00    +0.061 C 
ATOM      2  C   LIG    1       -4.753  -0.755  -0.545  0.00  0.00    -0.019 C 
ATOM      3  C   LIG    1       -4.727  -1.500   0.802  0.00  0.00    +0.012 C 
ATOM      4  C   LIG    1       -5.586  -1.468  -1.640  0.00  0.00    -0.001 C 
ATOM      5  C   LIG    1       -7.120  -1.262  -1.597  0.00  0.00    +0.000 C 
ATOM      6  C   LIG    1       -7.539   0.212  -1.353  0.00  0.00    +0.003 C 
ATOM      7  C   LIG    1       -6.793   0.769  -0.124  0.00  0.00    +0.005 C 
ATOM      8  C   LIG    1       -9.118   0.378  -1.347  0.00  0.00    -0.008 C 
ATOM      9  C   LIG    1       -9.586   0.393  -2.829  0.00  0.00    +0.016 C 
ATOM     10  C   LIG    1       -9.837  -0.777  -0.648  0.00  0.00    -0.065 C 
ATOM     11  C   LIG    1      -11.325  -0.613  -0.384  0.00  0.00    +0.062 C 
ATOM     12  C   LIG    1      -11.675   0.737   0.250  0.00  0.00    +0.119 C 
ATOM     13  C   LIG    1      -11.046   1.904  -0.508  0.00  0.00    +0.032 C 
ATOM     14  C   LIG    1       -9.214  -1.916  -0.303  0.00  0.00    -0.027 C 
ATOM     15  C   LIG    1       -9.534   1.719  -0.677  0.00  0.00    +0.013 C 
ATOM     16  C   LIG    1       -7.778  -2.220  -0.587  0.00  0.00    +0.031 C 
ATOM     17  C   LIG    1       -4.985  -0.963  -2.969  0.00  0.00    +0.005 C 
ATOM     18  C   LIG    1       -5.274   0.681  -0.304  0.00  0.00    +0.008 C 
ATOM     19  C   LIG    1       -3.570  -0.470  -2.672  0.00  0.00    +0.012 C 
ENDROOT
BRANCH   1  21
ATOM     20  C   LIG    1       -1.249  -1.844  -0.159  0.00  0.00    +0.086 C 
ATOM     21  C   LIG    1       -2.501  -1.974  -0.989  0.00  0.00    +0.134 C 
ATOM     22  O   LIG    1       -2.816  -3.052  -1.492  0.00  0.00    -0.297 OA
ENDBRANCH   1  21
BRANCH  12  23
ATOM     23  O   LIG    1      -11.259   0.766   1.617  0.00  0.00    -0.392 OA
ATOM     24  H   LIG    1      -10.358   0.400   1.659  0.00  0.00    +0.210 HD
ENDBRANCH  12  23
TORSDOF 2
