REMARK  Name = *****
REMARK                            x       y       z     vdW  Elec       q    Type
REMARK                         _______ _______ _______ _____ _____    ______ ____
ROOT
ATOM      1  C   LIG    1        3.600   0.402  -0.054  0.00  0.00    +0.055 A 
ATOM      2  C   LIG    1        4.675   1.303  -0.016  0.00  0.00    +0.043 A 
ATOM      3  C   LIG    1        5.974   0.840   0.218  0.00  0.00    +0.055 A 
ATOM      4  C   LIG    1        6.189  -0.547   0.356  0.00  0.00    +0.083 A 
ATOM      5 CL   LIG    1        7.820  -1.149   0.440  0.00  0.00    -0.080 Cl
ATOM      6  C   LIG    1        5.116  -1.466   0.293  0.00  0.00    +0.055 A 
ATOM      7  C   LIG    1        3.821  -0.975   0.106  0.00  0.00    +0.043 A 
ENDROOT
BRANCH   3   8
ATOM      8  N   LIG    1        7.033   1.758   0.415  0.00  0.00    -0.275 N 
ATOM      9  H   LIG    1        7.776   1.500   1.065  0.00  0.00    +0.155 HD
ATOM     10  C   LIG    1        7.301   2.840  -0.405  0.00  0.00    +0.325 C 
ATOM     11  O   LIG    1        6.716   3.171  -1.429  0.00  0.00    -0.263 OA
BRANCH  10  12
ATOM     12  C   LIG    1        8.545   3.658   0.012  0.00  0.00    +0.393 C 
ATOM     13  O   LIG    1        9.181   3.409   1.019  0.00  0.00    -0.240 OA
BRANCH  12  14
ATOM     14  O   LIG    1        8.814   4.643  -0.864  0.00  0.00    -0.474 OA
ATOM     15  H   LIG    1        8.215   4.573  -1.643  0.00  0.00    +0.296 HD
ENDBRANCH  12  14
ENDBRANCH  10  12
ENDBRANCH   3   8
BRANCH   6  16
ATOM     16  N   LIG    1        5.385  -2.847   0.442  0.00  0.00    -0.275 N 
ATOM     17  H   LIG    1        6.334  -3.104   0.718  0.00  0.00    +0.155 HD
ATOM     18  C   LIG    1        4.559  -3.909   0.141  0.00  0.00    +0.325 C 
ATOM     19  O   LIG    1        3.429  -3.910  -0.328  0.00  0.00    -0.263 OA
BRANCH  18  20
ATOM     20  C   LIG    1        5.224  -5.277   0.397  0.00  0.00    +0.393 C 
ATOM     21  O   LIG    1        6.335  -5.374   0.883  0.00  0.00    -0.240 OA
BRANCH  20  22
ATOM     22  O   LIG    1        4.436  -6.292   0.005  0.00  0.00    -0.474 OA
ATOM     23  H   LIG    1        3.597  -5.931  -0.367  0.00  0.00    +0.296 HD
ENDBRANCH  20  22
ENDBRANCH  18  20
ENDBRANCH   6  16
BRANCH   1  25
ATOM     24  N   LIG    1        1.165   1.266  -0.337  0.00  0.00    -0.191 NA
ATOM     25  C   LIG    1        2.264   0.883  -0.217  0.00  0.00    +0.099 C 
ENDBRANCH   1  25
TORSDOF 7
