REMARK  Name = *****
REMARK                            x       y       z     vdW  Elec       q    Type
REMARK                         _______ _______ _______ _____ _____    ______ ____
ROOT
ATOM      1  C   LIG    1        2.757   1.469  -4.453  0.00  0.00    +0.317 C 
ATOM      2  O   LIG    1        1.665   2.009  -4.608  0.00  0.00    -0.250 OA
ENDROOT
BRANCH   1   3
ATOM      3  O   LIG    1        3.042   0.557  -3.473  0.00  0.00    -0.461 OA
BRANCH   3   8
ATOM      4  C   LIG    1        1.111  -0.235   0.789  0.00  0.00    +0.105 C 
ATOM      5  N   LIG    1        2.492  -0.091   0.361  0.00  0.00    -0.299 NA
ATOM      6  C   LIG    1        2.828   1.188  -0.271  0.00  0.00    +0.060 C 
ATOM      7  C   LIG    1        1.950   1.462  -1.502  0.00  0.00    +0.063 C 
ATOM      8  C   LIG    1        1.973   0.318  -2.532  0.00  0.00    +0.179 C 
ATOM      9  C   LIG    1        2.164  -1.079  -1.915  0.00  0.00    +0.063 C 
ATOM     10  C   LIG    1        4.296   0.941  -0.646  0.00  0.00    +0.020 C 
ATOM     11  C   LIG    1        4.400  -0.576  -0.826  0.00  0.00    +0.020 C 
ATOM     12  C   LIG    1        2.973  -1.084  -0.606  0.00  0.00    +0.060 C 
ENDBRANCH   3   8
ENDBRANCH   1   3
BRANCH   1  13
ATOM     13  C   LIG    1        3.989   1.735  -5.299  0.00  0.00    +0.153 C 
BRANCH  13  14
ATOM     14  C   LIG    1        4.453   3.181  -5.187  0.00  0.00    -0.032 A 
ATOM     15  C   LIG    1        3.616   4.252  -5.546  0.00  0.00    +0.004 A 
ATOM     16  C   LIG    1        4.043   5.574  -5.405  0.00  0.00    +0.000 A 
ATOM     17  C   LIG    1        5.316   5.848  -4.912  0.00  0.00    +0.000 A 
ATOM     18  C   LIG    1        6.163   4.799  -4.563  0.00  0.00    +0.000 A 
ATOM     19  C   LIG    1        5.736   3.475  -4.699  0.00  0.00    +0.004 A 
ENDBRANCH  13  14
BRANCH  13  20
ATOM     20  C   LIG    1        3.682   1.318  -6.740  0.00  0.00    +0.175 C 
BRANCH  20  21
ATOM     21  O   LIG    1        3.368  -0.073  -6.829  0.00  0.00    -0.394 OA
ATOM     22  H   LIG    1        4.116  -0.584  -6.476  0.00  0.00    +0.209 HD
ENDBRANCH  20  21
ENDBRANCH  13  20
ENDBRANCH   1  13
TORSDOF 6
