REMARK  Name = *****
REMARK                            x       y       z     vdW  Elec       q    Type
REMARK                         _______ _______ _______ _____ _____    ______ ____
ROOT
ATOM      1  N   LIG    1        2.652   0.571  -0.901  0.00  0.00    -0.303 NA
ENDROOT
BRANCH   1   3
ATOM      2  C   LIG    1        3.945  -0.844   0.764  0.00  0.00    +0.020 C 
ATOM      3  C   LIG    1        2.747   0.058   0.482  0.00  0.00    +0.081 C 
ENDBRANCH   1   3
BRANCH   1   4
ATOM      4  C   LIG    1        3.866   1.272  -1.359  0.00  0.00    +0.085 C 
BRANCH   4   5
ATOM      5  C   LIG    1        4.338   2.474  -0.521  0.00  0.00    +0.020 C 
BRANCH   5   6
ATOM      6  C   LIG    1        5.707   2.969  -0.977  0.00  0.00    +0.036 C 
BRANCH   6   7
ATOM      7  C   LIG    1        5.774   3.508  -2.382  0.00  0.00    -0.047 A 
ATOM      8  C   LIG    1        6.616   2.921  -3.334  0.00  0.00    +0.003 A 
ATOM      9  C   LIG    1        6.691   3.446  -4.627  0.00  0.00    +0.000 A 
ATOM     10  C   LIG    1        5.926   4.561  -4.978  0.00  0.00    +0.000 A 
ATOM     11  C   LIG    1        5.086   5.147  -4.040  0.00  0.00    +0.000 A 
ATOM     12  C   LIG    1        5.013   4.628  -2.747  0.00  0.00    +0.003 A 
ENDBRANCH   6   7
ENDBRANCH   5   6
ENDBRANCH   4   5
ENDBRANCH   1   4
BRANCH   1  13
ATOM     13  C   LIG    1        1.421   1.380  -1.019  0.00  0.00    +0.085 C 
BRANCH  13  14
ATOM     14  C   LIG    1        1.148   2.009  -2.397  0.00  0.00    +0.020 C 
BRANCH  14  15
ATOM     15  C   LIG    1       -0.187   2.764  -2.456  0.00  0.00    +0.036 C 
BRANCH  15  16
ATOM     16  C   LIG    1       -0.262   3.938  -1.505  0.00  0.00    -0.047 A 
ATOM     17  C   LIG    1       -0.748   3.758  -0.202  0.00  0.00    +0.003 A 
ATOM     18  C   LIG    1       -0.795   4.834   0.690  0.00  0.00    +0.000 A 
ATOM     19  C   LIG    1       -0.369   6.091   0.283  0.00  0.00    +0.000 A 
ATOM     20  C   LIG    1        0.120   6.282  -1.010  0.00  0.00    +0.000 A 
ATOM     21  C   LIG    1        0.181   5.204  -1.898  0.00  0.00    +0.003 A 
ENDBRANCH  15  16
ENDBRANCH  14  15
ENDBRANCH  13  14
ENDBRANCH   1  13
TORSDOF 9
