REMARK  Name = *****
REMARK                            x       y       z     vdW  Elec       q    Type
REMARK                         _______ _______ _______ _____ _____    ______ ____
ROOT
ATOM      1  C   LIG    1        7.508  -2.383  -3.782  0.00  0.00    +0.054 A 
ATOM      2  C   LIG    1        7.005  -2.736  -2.517  0.00  0.00    +0.043 A 
ATOM      3  C   LIG    1        7.427  -2.108  -1.320  0.00  0.00    +0.049 A 
ATOM      4  N   LIG    1        6.890  -2.453  -0.041  0.00  0.00    -0.298 N 
ATOM      5  C   LIG    1        7.329  -1.922   1.212  0.00  0.00    +0.048 A 
ATOM      6  C   LIG    1        8.293  -0.895   1.288  0.00  0.00    +0.034 A 
ATOM      7  S   LIG    1        9.099  -0.183  -0.122  0.00  0.00    -0.086 S 
ATOM      8  C   LIG    1        8.686  -0.350   2.529  0.00  0.00    +0.017 A 
ATOM      9  C   LIG    1        8.148  -0.814   3.721  0.00  0.00    +0.001 A 
ATOM     10  C   LIG    1        7.222  -1.841   3.682  0.00  0.00    +0.002 A 
ATOM     11  C   LIG    1        6.830  -2.387   2.452  0.00  0.00    +0.024 A 
ATOM     12  C   LIG    1        8.420  -1.116  -1.467  0.00  0.00    +0.034 A 
ATOM     13  C   LIG    1        8.935  -0.775  -2.736  0.00  0.00    +0.018 A 
ATOM     14  C   LIG    1        8.479  -1.399  -3.890  0.00  0.00    +0.020 A 
ENDROOT
BRANCH   1  16
ATOM     15  N   LIG    1        6.591  -3.561  -5.905  0.00  0.00    -0.191 NA
ATOM     16  C   LIG    1        7.009  -3.032  -4.957  0.00  0.00    +0.099 C 
ENDBRANCH   1  16
BRANCH   4  17
ATOM     17  C   LIG    1        5.742  -3.395  -0.005  0.00  0.00    +0.112 C 
BRANCH  17  18
ATOM     18  C   LIG    1        6.224  -4.849   0.085  0.00  0.00    +0.035 C 
BRANCH  18  19
ATOM     19  C   LIG    1        5.049  -5.841   0.108  0.00  0.00    +0.086 C 
BRANCH  19  20
ATOM     20  N   LIG    1        5.472  -7.254   0.204  0.00  0.00    -0.302 NA
ATOM     21  C   LIG    1        6.321  -7.660  -0.927  0.00  0.00    +0.087 C 
ATOM     22  C   LIG    1        6.830  -9.089  -0.760  0.00  0.00    +0.046 C 
ATOM     23  C   LIG    1        5.698 -10.085  -0.554  0.00  0.00    +0.117 C 
ATOM     24  C   LIG    1        4.707  -9.603   0.500  0.00  0.00    +0.046 C 
ATOM     25  C   LIG    1        4.297  -8.141   0.299  0.00  0.00    +0.087 C 
BRANCH  23  26
ATOM     26  O   LIG    1        5.029 -10.341  -1.789  0.00  0.00    -0.392 OA
ATOM     27  H   LIG    1        4.653  -9.510  -2.121  0.00  0.00    +0.210 HD
ENDBRANCH  23  26
ENDBRANCH  19  20
ENDBRANCH  18  19
ENDBRANCH  17  18
ENDBRANCH   4  17
TORSDOF 6
