REMARK  Name = *****
REMARK                            x       y       z     vdW  Elec       q    Type
REMARK                         _______ _______ _______ _____ _____    ______ ____
ROOT
ATOM      1  C   LIG    1       10.299   6.551  -1.879  0.00  0.00    +0.119 C 
ENDROOT
BRANCH   1   5
ATOM      2  C   LIG    1        8.890   2.525  -0.864  0.00  0.00    -0.010 A 
ATOM      3  C   LIG    1       10.227   2.760  -1.209  0.00  0.00    +0.007 A 
ATOM      4  C   LIG    1       10.672   4.048  -1.540  0.00  0.00    +0.005 A 
ATOM      5  C   LIG    1        9.789   5.140  -1.540  0.00  0.00    -0.034 A 
ATOM      6  C   LIG    1        8.445   4.883  -1.214  0.00  0.00    +0.005 A 
ATOM      7  C   LIG    1        7.998   3.596  -0.896  0.00  0.00    +0.007 A 
BRANCH   2   8
ATOM      8  C   LIG    1        8.406   1.133  -0.549  0.00  0.00    +0.268 C 
BRANCH   8   9
ATOM      9  O   LIG    1        8.071   0.510  -1.787  0.00  0.00    -0.456 OA
BRANCH   9  10
ATOM     10  C   LIG    1        9.111  -0.123  -2.401  0.00  0.00    +0.340 C 
ATOM     11  O   LIG    1       10.162  -0.441  -1.902  0.00  0.00    -0.245 OA
BRANCH  10  17
ATOM     12  C   LIG    1        7.025  -1.223  -7.667  0.00  0.00    +0.044 C 
ATOM     13  C   LIG    1        7.662  -0.876  -6.355  0.00  0.00    -0.050 A 
ATOM     14  C   LIG    1        8.570  -1.767  -5.761  0.00  0.00    +0.007 A 
ATOM     15  C   LIG    1        9.127  -1.508  -4.498  0.00  0.00    -0.036 A 
ATOM     16  C   LIG    1       10.100  -2.490  -3.906  0.00  0.00    +0.044 C 
ATOM     17  C   LIG    1        8.712  -0.354  -3.817  0.00  0.00    +0.062 A 
ATOM     18  C   LIG    1        7.871   0.580  -4.445  0.00  0.00    +0.015 A 
ATOM     19  C   LIG    1        7.338   0.313  -5.702  0.00  0.00    +0.004 A 
ENDBRANCH  10  17
ENDBRANCH   9  10
ENDBRANCH   8   9
ENDBRANCH   2   8
ENDBRANCH   1   5
BRANCH   1  20
ATOM     20  C   LIG    1       10.954   7.233  -0.659  0.00  0.00    +0.226 C 
ATOM     21  N   LIG    1       12.279   7.612  -0.885  0.00  0.00    -0.285 N 
ATOM     22  H   LIG    1       12.640   7.461  -1.819  0.00  0.00    +0.155 HD
ATOM     23  O   LIG    1       10.321   7.439   0.374  0.00  0.00    -0.275 OA
BRANCH  21  24
ATOM     24  C   LIG    1       13.188   8.199   0.030  0.00  0.00    +0.034 A 
ATOM     25  C   LIG    1       14.506   8.426  -0.409  0.00  0.00    +0.031 A 
ATOM     26  C   LIG    1       15.483   8.994   0.441  0.00  0.00    -0.013 A 
ATOM     27  C   LIG    1       15.124   9.334   1.757  0.00  0.00    +0.000 A 
ATOM     28  C   LIG    1       16.107   9.897   2.576  0.00  0.00    +0.119 A 
ATOM     29  N   LIG    1       17.380  10.142   2.190  0.00  0.00    -0.263 NA
ATOM     30  C   LIG    1       17.696   9.808   0.923  0.00  0.00    +0.111 A 
ATOM     31  C   LIG    1       13.811   9.107   2.195  0.00  0.00    +0.012 A 
ATOM     32  C   LIG    1       16.803   9.237   0.027  0.00  0.00    +0.028 A 
ATOM     33  C   LIG    1       12.855   8.548   1.338  0.00  0.00    +0.024 A 
ENDBRANCH  21  24
ENDBRANCH   1  20
BRANCH   1  34
ATOM     34  C   LIG    1        9.201   7.475  -2.472  0.00  0.00    +0.095 C 
BRANCH  34  35
ATOM     35  N   LIG    1        9.623   8.848  -2.780  0.00  0.00    -0.329 NA
ATOM     36  H   LIG    1        8.791   9.377  -3.055  0.00  0.00    +0.118 HD
ATOM     37  H   LIG    1        9.926   9.305  -1.915  0.00  0.00    +0.118 HD
ENDBRANCH  34  35
ENDBRANCH   1  34
TORSDOF 9
