REMARK  Name = *****
REMARK                            x       y       z     vdW  Elec       q    Type
REMARK                         _______ _______ _______ _____ _____    ______ ____
ROOT
ATOM      1  O   LIG    1        1.647  -0.398   1.011  0.00  0.00    -0.252 OA
ATOM      2  C   LIG    1        2.725  -0.164   0.478  0.00  0.00    +0.312 C 
ATOM      3  N   LIG    1        3.241   1.042   0.157  0.00  0.00    -0.199 N 
ATOM      4  C   LIG    1        4.395   0.889  -0.565  0.00  0.00    +0.258 C 
ATOM      5  O   LIG    1        5.023   1.805  -1.087  0.00  0.00    -0.272 OA
ATOM      6  C   LIG    1        4.783  -0.626  -0.581  0.00  0.00    +0.164 C 
ATOM      7  N   LIG    1        3.585  -1.144   0.057  0.00  0.00    -0.278 N 
ATOM      8  H   LIG    1        3.386  -2.123   0.206  0.00  0.00    +0.152 HD
ENDROOT
BRANCH   6   9
ATOM      9  C   LIG    1        4.909  -1.147  -2.025  0.00  0.00    -0.011 A 
ATOM     10  C   LIG    1        3.764  -1.417  -2.805  0.00  0.00    +0.006 A 
ATOM     11  C   LIG    1        3.872  -1.864  -4.126  0.00  0.00    +0.000 A 
ATOM     12  C   LIG    1        5.125  -2.050  -4.700  0.00  0.00    +0.000 A 
ATOM     13  C   LIG    1        6.270  -1.788  -3.954  0.00  0.00    +0.000 A 
ATOM     14  C   LIG    1        6.164  -1.333  -2.635  0.00  0.00    +0.006 A 
ENDBRANCH   6   9
BRANCH   6  15
ATOM     15  C   LIG    1        5.975  -0.947   0.340  0.00  0.00    -0.011 A 
ATOM     16  C   LIG    1        6.796   0.055   0.890  0.00  0.00    +0.006 A 
ATOM     17  C   LIG    1        7.840  -0.263   1.762  0.00  0.00    +0.000 A 
ATOM     18  C   LIG    1        8.093  -1.589   2.096  0.00  0.00    +0.000 A 
ATOM     19  C   LIG    1        7.311  -2.601   1.548  0.00  0.00    +0.000 A 
ATOM     20  C   LIG    1        6.266  -2.286   0.676  0.00  0.00    +0.006 A 
ENDBRANCH   6  15
BRANCH   3  21
ATOM     21  C   LIG    1        2.611   2.304   0.438  0.00  0.00    +0.292 C 
BRANCH  21  22
ATOM     22  O   LIG    1        3.154   2.824   1.635  0.00  0.00    -0.267 OA
BRANCH  22  23
ATOM     23  P   LIG    1        2.550   4.206   2.156  0.00  0.00    +0.474 P 
ATOM     24  O   LIG    1        3.084   4.732   3.442  0.00  0.00    -0.228 OA
BRANCH  23  25
ATOM     25  O   LIG    1        0.965   4.032   2.163  0.00  0.00    -0.303 OA
ATOM     26  H   LIG    1        0.539   4.730   2.694  0.00  0.00    +0.222 HD
ENDBRANCH  23  25
BRANCH  23  27
ATOM     27  O   LIG    1        2.764   5.235   0.956  0.00  0.00    -0.303 OA
ATOM     28  H   LIG    1        3.593   5.737   1.076  0.00  0.00    +0.222 HD
ENDBRANCH  23  27
ENDBRANCH  22  23
ENDBRANCH  21  22
ENDBRANCH   3  21
TORSDOF 7
