REMARK  Name = *****
REMARK                            x       y       z     vdW  Elec       q    Type
REMARK                         _______ _______ _______ _____ _____    ______ ____
ROOT
ATOM      1  C   UNK A  0       -6.175  -0.754   3.021  0.00  0.00    +0.112 C 
ATOM      2  C   UNK A  0       -7.693  -0.713   3.281  0.00  0.00    +0.101 C 
ATOM      3  N   UNK A  0       -8.196  -1.442   4.482  0.00  0.00    -0.297 NA
ATOM      4  C   UNK A  0       -9.354  -0.708   5.010  0.00  0.00    +0.105 C 
ATOM      5  C   UNK A  0       -7.141  -1.695   5.522  0.00  0.00    +0.091 C 
ATOM      6  C   UNK A  0       -5.970  -0.676   5.487  0.00  0.00    -0.025 C 
ATOM      7  C   UNK A  0       -5.396  -0.172   6.749  0.00  0.00    -0.011 C 
ATOM      8  C   UNK A  0       -5.954  -0.716   7.913  0.00  0.00    +0.010 C 
ATOM      9  C   UNK A  0       -5.531  -0.320   9.174  0.00  0.00    +0.047 C 
ATOM     10  N   UNK A  0       -6.273  -1.045  10.081  0.00  0.00    -0.360 NA
ATOM     11  H   UNK A  0       -6.186  -0.970  11.084  0.00  0.00    +0.165 HD
ATOM     12  C   UNK A  0       -7.153  -1.871   9.422  0.00  0.00    +0.087 C 
ATOM     13  C   UNK A  0       -4.538   0.644   9.350  0.00  0.00    +0.026 C 
ATOM     14  C   UNK A  0       -3.980   1.196   8.190  0.00  0.00    +0.003 C 
ATOM     15  C   UNK A  0       -6.976  -1.674   8.071  0.00  0.00    -0.020 C 
ATOM     16  C   UNK A  0       -4.397   0.798   6.913  0.00  0.00    +0.009 C 
ATOM     17  C   UNK A  0       -7.660  -2.268   6.900  0.00  0.00    +0.060 C 
ATOM     18  C   UNK A  0       -5.460  -0.344   4.282  0.00  0.00    -0.007 C 
ENDROOT
BRANCH   1  21
ATOM     19  N   ALA A  1       -6.392  -3.192   2.680  0.00  0.00    -0.310 N 
ATOM     20  H   ALA A  1       -7.250  -3.075   3.216  0.00  0.00    +0.149 HD
ATOM     21  C   UNK A  0       -5.637  -2.072   2.443  0.00  0.00    +0.221 C 
ATOM     22  O   UNK A  0       -4.556  -2.131   1.842  0.00  0.00    -0.275 OA
BRANCH  19  24
ATOM     23  CB  ALA A  1       -6.904  -5.545   3.034  0.00  0.00    +0.030 C 
ATOM     24  CA  ALA A  1       -6.005  -4.548   2.302  0.00  0.00    +0.095 C 
BRANCH  24  25
ATOM     25  C   ALA A  1       -6.109  -4.780   0.780  0.00  0.00    +0.177 C 
BRANCH  25  26
ATOM     26  O   ALA A  1       -5.154  -4.049   0.018  0.00  0.00    -0.393 OA
ATOM     27  H   ALA A  1       -4.609  -3.512   0.633  0.00  0.00    +0.209 HD
ENDBRANCH  25  26
ENDBRANCH  24  25
ENDBRANCH  19  24
ENDBRANCH   1  21
TORSDOF 4
