REMARK  Name = *****
REMARK                            x       y       z     vdW  Elec       q    Type
REMARK                         _______ _______ _______ _____ _____    ______ ____
ROOT
ATOM      1  C   LIG    1        4.636   0.519   1.136  0.00  0.00    -0.016 A 
ATOM      2  C   LIG    1        4.918  -0.841   0.907  0.00  0.00    +0.035 A 
ATOM      3  C   LIG    1        6.179  -1.183   0.388  0.00  0.00    +0.023 A 
ATOM      4  C   LIG    1        7.119  -0.216   0.036  0.00  0.00    +0.002 A 
ATOM      5  C   LIG    1        6.829   1.126   0.228  0.00  0.00    +0.000 A 
ATOM      6  C   LIG    1        5.606   1.490   0.785  0.00  0.00    +0.006 A 
ENDROOT
BRANCH   2   7
ATOM      7  N   LIG    1        4.125  -1.925   1.333  0.00  0.00    -0.312 N 
ATOM      8  H   LIG    1        4.459  -2.285   2.228  0.00  0.00    +0.152 HD
BRANCH   7   9
ATOM      9  C   LIG    1        2.767  -2.267   1.110  0.00  0.00    +0.068 A 
ATOM     10  C   LIG    1        2.057  -1.996  -0.074  0.00  0.00    +0.064 A 
ATOM     11 CL   LIG    1        2.812  -1.330  -1.482  0.00  0.00    -0.082 Cl
ATOM     12  C   LIG    1        0.701  -2.342  -0.198  0.00  0.00    +0.022 A 
ATOM     13  C   LIG    1        0.036  -2.998   0.837  0.00  0.00    +0.003 A 
ATOM     14  C   LIG    1        0.730  -3.336   1.992  0.00  0.00    +0.022 A 
ATOM     15  C   LIG    1        2.076  -2.978   2.121  0.00  0.00    +0.064 A 
ATOM     16 CL   LIG    1        2.890  -3.437   3.583  0.00  0.00    -0.082 Cl
ENDBRANCH   7   9
ENDBRANCH   2   7
BRANCH   1  17
ATOM     17  C   LIG    1        3.336   1.035   1.714  0.00  0.00    +0.157 C 
BRANCH  17  19
ATOM     18  O   LIG    1        1.330   2.199   1.096  0.00  0.00    -0.251 OA
ATOM     19  C   LIG    1        2.401   1.736   0.742  0.00  0.00    +0.309 C 
BRANCH  19  20
ATOM     20  O   LIG    1        2.831   1.863  -0.537  0.00  0.00    -0.480 OA
ATOM     21  H   LIG    1        3.663   1.404  -0.742  0.00  0.00    +0.295 HD
ENDBRANCH  19  20
ENDBRANCH  17  19
ENDBRANCH   1  17
TORSDOF 5
