REMARK  Name = *****
REMARK                            x       y       z     vdW  Elec       q    Type
REMARK                         _______ _______ _______ _____ _____    ______ ____
ROOT
ATOM      1  C   LIG    1        6.030   1.276   3.725  0.00  0.00    +0.177 C 
ENDROOT
BRANCH   1   2
ATOM      2  O   LIG    1        4.958   2.117   4.202  0.00  0.00    -0.387 OA
ATOM      3  H   LIG    1        5.220   3.050   4.135  0.00  0.00    +0.210 HD
ENDBRANCH   1   2
BRANCH   1   4
ATOM      4  C   LIG    1        5.754  -0.164   4.259  0.00  0.00    +0.185 C 
BRANCH   4   5
ATOM      5  O   LIG    1        4.541  -0.719   3.700  0.00  0.00    -0.386 OA
ATOM      6  H   LIG    1        4.342  -0.232   2.869  0.00  0.00    +0.210 HD
ENDBRANCH   4   5
BRANCH   4   7
ATOM      7  C   LIG    1        6.843  -1.233   4.042  0.00  0.00    +0.254 C 
BRANCH   7   9
ATOM      8  O   LIG    1        8.435  -0.051   5.464  0.00  0.00    -0.248 OA
ATOM      9  C   LIG    1        8.219  -0.859   4.598  0.00  0.00    +0.336 C 
BRANCH   9  10
ATOM     10  O   LIG    1        9.214  -1.579   3.993  0.00  0.00    -0.479 OA
ATOM     11  H   LIG    1        8.831  -2.139   3.281  0.00  0.00    +0.295 HD
ENDBRANCH   9  10
ENDBRANCH   7   9
BRANCH   7  12
ATOM     12  O   LIG    1        6.997  -1.607   2.662  0.00  0.00    -0.378 OA
ATOM     13  H   LIG    1        6.182  -1.312   2.205  0.00  0.00    +0.211 HD
ENDBRANCH   7  12
ENDBRANCH   4   7
ENDBRANCH   1   4
BRANCH   1  14
ATOM     14  C   LIG    1        6.115   1.386   2.188  0.00  0.00    +0.176 C 
BRANCH  14  15
ATOM     15  O   LIG    1        4.901   0.857   1.607  0.00  0.00    -0.387 OA
ATOM     16  H   LIG    1        4.850   1.255   0.710  0.00  0.00    +0.210 HD
ENDBRANCH  14  15
BRANCH  14  17
ATOM     17  C   LIG    1        6.340   2.816   1.659  0.00  0.00    +0.171 C 
BRANCH  17  18
ATOM     18  O   LIG    1        6.302   2.724   0.217  0.00  0.00    -0.387 OA
ATOM     19  H   LIG    1        6.765   3.518  -0.117  0.00  0.00    +0.210 HD
ENDBRANCH  17  18
BRANCH  17  20
ATOM     20  C   LIG    1        7.678   3.440   2.082  0.00  0.00    +0.190 C 
BRANCH  20  21
ATOM     21  O   LIG    1        7.663   4.817   1.699  0.00  0.00    -0.392 OA
ATOM     22  H   LIG    1        8.524   5.201   1.951  0.00  0.00    +0.209 HD
ENDBRANCH  20  21
ENDBRANCH  17  20
ENDBRANCH  14  17
ENDBRANCH   1  14
TORSDOF 13
