REMARK  Name = *****
REMARK                            x       y       z     vdW  Elec       q    Type
REMARK                         _______ _______ _______ _____ _____    ______ ____
ROOT
ATOM      1  C   LIG    1       -3.748  -0.723   0.233  0.00  0.00    +0.131 A 
ATOM      2  N   LIG    1       -2.595  -1.406   0.064  0.00  0.00    -0.252 NA
ATOM      3  C   LIG    1       -1.474  -0.666  -0.046  0.00  0.00    +0.089 A 
ATOM      4  C   LIG    1       -1.514   0.760   0.037  0.00  0.00    +0.089 A 
ATOM      5  C   LIG    1       -0.339   1.497  -0.092  0.00  0.00    +0.034 A 
ATOM      6  C   LIG    1        0.848   0.832  -0.340  0.00  0.00    -0.037 A 
ATOM      7  C   LIG    1        2.232   1.379  -0.607  0.00  0.00    +0.034 C 
ATOM      8  C   LIG    1        3.101   1.331   0.676  0.00  0.00    +0.089 C 
ATOM      9  N   LIG    1        3.896   0.098   0.811  0.00  0.00    -0.315 NA
ATOM     10  H   LIG    1        4.301   0.028   1.743  0.00  0.00    +0.122 HD
ATOM     11  C   LIG    1        3.151  -1.127   0.473  0.00  0.00    +0.089 C 
ATOM     12  C   LIG    1        2.284  -0.992  -0.801  0.00  0.00    +0.034 C 
ATOM     13  C   LIG    1        2.705   0.276  -1.582  0.00  0.00    +0.019 C 
ATOM     14  C   LIG    1        0.882  -0.558  -0.443  0.00  0.00    -0.037 A 
ATOM     15  N   LIG    1       -2.677   1.417   0.216  0.00  0.00    -0.252 NA
ATOM     16  C   LIG    1       -0.264  -1.314  -0.274  0.00  0.00    +0.034 A 
ATOM     17  C   LIG    1       -3.788   0.653   0.302  0.00  0.00    +0.131 A 
ENDROOT
TORSDOF 0
