REMARK  Name = *****
REMARK                            x       y       z     vdW  Elec       q    Type
REMARK                         _______ _______ _______ _____ _____    ______ ____
ROOT
ATOM      1  C   LIG    1        0.502  -2.349   2.481  0.00  0.00    +0.148 C 
ENDROOT
BRANCH   1   2
ATOM      2  C   LIG    1        0.566  -3.735   1.843  0.00  0.00    -0.020 A 
ATOM      3  C   LIG    1        0.393  -4.909   2.588  0.00  0.00    +0.006 A 
ATOM      4  C   LIG    1        0.463  -6.168   1.977  0.00  0.00    +0.009 A 
ATOM      5  C   LIG    1        0.705  -6.314   0.600  0.00  0.00    -0.018 A 
ATOM      6  C   LIG    1        0.843  -5.130  -0.145  0.00  0.00    +0.009 A 
ATOM      7  C   LIG    1        0.767  -3.865   0.460  0.00  0.00    +0.006 A 
BRANCH   5   8
ATOM      8  C   LIG    1        0.803  -7.655  -0.028  0.00  0.00    -0.018 A 
ATOM      9  C   LIG    1        0.333  -7.898  -1.331  0.00  0.00    +0.008 A 
ATOM     10  C   LIG    1        0.414  -9.168  -1.916  0.00  0.00    +0.001 A 
ATOM     11  C   LIG    1        0.962 -10.231  -1.206  0.00  0.00    +0.000 A 
ATOM     12  C   LIG    1        1.438 -10.022   0.084  0.00  0.00    +0.001 A 
ATOM     13  C   LIG    1        1.365  -8.749   0.660  0.00  0.00    +0.008 A 
ENDBRANCH   5   8
ENDBRANCH   1   2
BRANCH   1  14
ATOM     14  C   LIG    1        1.146  -2.229   3.867  0.00  0.00    -0.020 A 
ATOM     15  C   LIG    1        0.395  -2.266   5.055  0.00  0.00    +0.006 A 
ATOM     16  C   LIG    1        1.008  -2.119   6.302  0.00  0.00    +0.000 A 
ATOM     17  C   LIG    1        2.386  -1.954   6.389  0.00  0.00    +0.000 A 
ATOM     18  C   LIG    1        3.155  -1.949   5.228  0.00  0.00    +0.000 A 
ATOM     19  C   LIG    1        2.543  -2.087   3.978  0.00  0.00    +0.006 A 
ENDBRANCH   1  14
BRANCH   1  23
ATOM     20  C   LIG    1       -3.018  -1.465   2.511  0.00  0.00    +0.130 A 
ATOM     21  N   LIG    1       -2.451  -0.251   2.226  0.00  0.00    -0.244 NA
ATOM     22  C   LIG    1       -1.159  -0.472   2.196  0.00  0.00    +0.200 A 
ATOM     23  N   LIG    1       -0.860  -1.788   2.440  0.00  0.00    -0.325 N 
ATOM     24  C   LIG    1       -2.054  -2.432   2.652  0.00  0.00    +0.108 A 
ENDBRANCH   1  23
TORSDOF 4
