REMARK  Name = *****
REMARK                            x       y       z     vdW  Elec       q    Type
REMARK                         _______ _______ _______ _____ _____    ______ ____
ROOT
ATOM      1  O   LIG    1        4.146   0.716  -0.720  0.00  0.00    -0.244 OA
ATOM      2  C   LIG    1        3.840   0.640   0.458  0.00  0.00    +0.348 C 
ENDROOT
BRANCH   2   3
ATOM      3  C   LIG    1        4.623   1.287   1.536  0.00  0.00    +0.101 A 
ATOM      4  C   LIG    1        4.721   0.769   2.832  0.00  0.00    +0.131 A 
ATOM      5  C   LIG    1        5.428   1.464   3.814  0.00  0.00    +0.046 A 
ATOM      6  C   LIG    1        6.056   2.670   3.498  0.00  0.00    +0.004 A 
ATOM      7  C   LIG    1        5.989   3.179   2.201  0.00  0.00    +0.001 A 
ATOM      8  C   LIG    1        5.278   2.488   1.220  0.00  0.00    +0.019 A 
BRANCH   4   9
ATOM      9  O   LIG    1        4.151  -0.432   3.147  0.00  0.00    -0.506 OA
ATOM     10  H   LIG    1        4.214  -0.585   4.104  0.00  0.00    +0.292 HD
ENDBRANCH   4   9
ENDBRANCH   2   3
BRANCH   2  11
ATOM     11  O   LIG    1        2.680   0.112   1.006  0.00  0.00    -0.422 OA
BRANCH  11  12
ATOM     12  C   LIG    1        1.689  -0.505   0.218  0.00  0.00    +0.132 A 
ATOM     13  C   LIG    1        1.967  -1.200  -0.955  0.00  0.00    +0.046 A 
ATOM     14  C   LIG    1        0.922  -1.794  -1.662  0.00  0.00    +0.004 A 
ATOM     15  C   LIG    1       -0.385  -1.714  -1.181  0.00  0.00    +0.000 A 
ATOM     16  C   LIG    1       -0.654  -1.038   0.011  0.00  0.00    +0.004 A 
ATOM     17  C   LIG    1        0.386  -0.435   0.716  0.00  0.00    +0.046 A 
ENDBRANCH  11  12
ENDBRANCH   2  11
TORSDOF 4
