REMARK  Name = *****
REMARK                            x       y       z     vdW  Elec       q    Type
REMARK                         _______ _______ _______ _____ _____    ______ ____
ROOT
ATOM      1  C   LIG    1        5.576 -12.046  -1.913  0.00  0.00    +0.155 C 
ATOM      2  N   LIG    1        5.405 -10.961  -2.861  0.00  0.00    -0.280 N 
ATOM      3  C   LIG    1        4.921 -11.229  -4.143  0.00  0.00    +0.333 C 
ATOM      4  O   LIG    1        4.674 -12.379  -4.520  0.00  0.00    -0.246 OA
ATOM      5  N   LIG    1        4.738 -10.130  -5.002  0.00  0.00    -0.262 N 
ATOM      6  C   LIG    1        4.265 -10.405  -6.345  0.00  0.00    +0.157 C 
ATOM      7  C   LIG    1        5.118  -8.825  -4.718  0.00  0.00    +0.282 C 
ATOM      8  O   LIG    1        5.144  -7.931  -5.570  0.00  0.00    -0.265 OA
ATOM      9  C   LIG    1        5.531  -8.628  -3.375  0.00  0.00    +0.151 A 
ATOM     10  N   LIG    1        5.881  -7.510  -2.667  0.00  0.00    -0.322 N 
ATOM     11  C   LIG    1        6.210  -7.930  -1.401  0.00  0.00    +0.202 A 
ATOM     12  N   LIG    1        6.096  -9.237  -1.276  0.00  0.00    -0.218 NA
ATOM     13  C   LIG    1        5.664  -9.662  -2.494  0.00  0.00    +0.168 A 
ENDROOT
BRANCH  10  14
ATOM     14  C   LIG    1        5.803  -6.131  -3.096  0.00  0.00    +0.157 C 
BRANCH  14  15
ATOM     15  C   LIG    1        7.110  -5.538  -3.636  0.00  0.00    +0.160 C 
BRANCH  15  16
ATOM     16  O   LIG    1        6.875  -4.144  -3.897  0.00  0.00    -0.388 OA
ATOM     17  H   LIG    1        6.457  -4.119  -4.785  0.00  0.00    +0.210 HD
ENDBRANCH  15  16
BRANCH  15  18
ATOM     18  C   LIG    1        7.632  -6.177  -4.929  0.00  0.00    +0.188 C 
BRANCH  18  19
ATOM     19  O   LIG    1        6.727  -5.905  -5.997  0.00  0.00    -0.392 OA
ATOM     20  H   LIG    1        6.465  -6.771  -6.378  0.00  0.00    +0.209 HD
ENDBRANCH  18  19
ENDBRANCH  15  18
ENDBRANCH  14  15
ENDBRANCH  10  14
TORSDOF 5
