REMARK  Name = *****
REMARK                            x       y       z     vdW  Elec       q    Type
REMARK                         _______ _______ _______ _____ _____    ______ ____
ROOT
ATOM      1  N   LIG    1        3.159   0.918   0.023  0.00  0.00    -0.279 NA
ATOM      2  C   LIG    1        4.363   1.152   0.417  0.00  0.00    +0.082 C 
ATOM      3  C   LIG    1        4.729   2.551   0.831  0.00  0.00    +0.059 C 
ATOM      4  C   LIG    1        6.015   2.867   0.920  0.00  0.00    +0.055 C 
ATOM      5  C   LIG    1        7.101   1.913   0.641  0.00  0.00    +0.090 C 
ATOM      6  C   LIG    1        6.765   0.473   0.342  0.00  0.00    +0.075 C 
ATOM      7  N   LIG    1        7.866  -0.397   0.020  0.00  0.00    -0.306 N 
ATOM      8  C   LIG    1        9.203   0.187   0.041  0.00  0.00    +0.072 C 
ATOM      9  C   LIG    1        9.376   1.531   0.449  0.00  0.00    +0.088 C 
ATOM     10  C   LIG    1       10.647   2.104   0.527  0.00  0.00    +0.030 C 
ATOM     11  C   LIG    1       11.788   1.376   0.205  0.00  0.00    +0.002 C 
ATOM     12  C   LIG    1       11.641   0.077  -0.255  0.00  0.00    +0.002 C 
ATOM     13  C   LIG    1       10.368  -0.499  -0.365  0.00  0.00    +0.028 C 
ATOM     14  N   LIG    1        8.298   2.388   0.724  0.00  0.00    -0.244 NA
ATOM     15  C   LIG    1        5.473   0.161   0.457  0.00  0.00    +0.057 C 
ENDROOT
BRANCH   7  16
ATOM     16  C   LIG    1        7.602  -1.747  -0.455  0.00  0.00    +0.047 A 
ATOM     17  C   LIG    1        6.537  -2.028  -1.337  0.00  0.00    +0.027 A 
ATOM     18  C   LIG    1        6.241  -3.329  -1.766  0.00  0.00    +0.022 A 
ATOM     19  C   LIG    1        7.075  -4.378  -1.402  0.00  0.00    +0.041 A 
ATOM     20 CL   LIG    1        6.758  -5.966  -1.979  0.00  0.00    -0.084 Cl
ATOM     21  C   LIG    1        8.166  -4.139  -0.576  0.00  0.00    +0.022 A 
ATOM     22  C   LIG    1        8.395  -2.849  -0.068  0.00  0.00    +0.027 A 
ENDBRANCH   7  16
BRANCH   1  24
ATOM     23  C   LIG    1        2.176  -1.254   0.586  0.00  0.00    +0.032 C 
ATOM     24  C   LIG    1        2.794  -0.405  -0.517  0.00  0.00    +0.100 C 
ATOM     25  C   LIG    1        1.810  -0.203  -1.664  0.00  0.00    +0.032 C 
ENDBRANCH   1  24
BRANCH   3  26
ATOM     26  N   LIG    1        3.665   3.454   0.991  0.00  0.00    -0.313 N 
ATOM     27  H   LIG    1        2.895   3.144   0.414  0.00  0.00    +0.152 HD
BRANCH  26  28
ATOM     28  C   LIG    1        3.167   3.819   2.274  0.00  0.00    +0.031 A 
ATOM     29  C   LIG    1        1.830   4.249   2.373  0.00  0.00    +0.024 A 
ATOM     30  C   LIG    1        1.271   4.583   3.613  0.00  0.00    +0.022 A 
ATOM     31  C   LIG    1        2.057   4.537   4.760  0.00  0.00    +0.041 A 
ATOM     32 CL   LIG    1        1.366   4.906   6.292  0.00  0.00    -0.084 Cl
ATOM     33  C   LIG    1        3.402   4.193   4.672  0.00  0.00    +0.022 A 
ATOM     34  C   LIG    1        3.955   3.856   3.432  0.00  0.00    +0.024 A 
ENDBRANCH  26  28
ENDBRANCH   3  26
TORSDOF 4
