REMARK  Name = *****
REMARK                            x       y       z     vdW  Elec       q    Type
REMARK                         _______ _______ _______ _____ _____    ______ ____
ROOT
ATOM      1  N   LIG    1        3.889   0.469   2.823  0.00  0.00    -0.303 N 
ATOM      2  H   LIG    1        3.880  -0.120   2.002  0.00  0.00    +0.149 HD
ATOM      3  C   LIG    1        2.934   0.238   3.780  0.00  0.00    +0.220 C 
ATOM      4  O   LIG    1        2.638   1.093   4.634  0.00  0.00    -0.275 OA
ENDROOT
BRANCH   1   5
ATOM      5  C   LIG    1        4.607   1.757   2.682  0.00  0.00    +0.164 C 
BRANCH   5   9
ATOM      6  C   LIG    1        2.642   3.567  -0.100  0.00  0.00    +0.128 C 
ATOM      7  N   LIG    1        3.152   3.098   1.170  0.00  0.00    -0.317 N 
ATOM      8  H   LIG    1        2.683   3.385   2.020  0.00  0.00    +0.148 HD
ATOM      9  C   LIG    1        4.268   2.293   1.251  0.00  0.00    +0.234 C 
ATOM     10  O   LIG    1        4.852   1.922   0.237  0.00  0.00    -0.274 OA
ENDBRANCH   5   9
BRANCH   5  11
ATOM     11  C   LIG    1        6.151   1.599   2.939  0.00  0.00    -0.011 C 
ATOM     12  C   LIG    1        6.846   2.972   2.808  0.00  0.00    +0.013 C 
ATOM     13  C   LIG    1        6.803   0.602   1.963  0.00  0.00    +0.013 C 
ATOM     14  C   LIG    1        6.451   1.086   4.370  0.00  0.00    +0.013 C 
ENDBRANCH   5  11
ENDBRANCH   1   5
BRANCH   3  15
ATOM     15  C   LIG    1        2.304  -1.161   3.812  0.00  0.00    +0.113 C 
BRANCH  15  16
ATOM     16  C   LIG    1        0.828  -1.002   4.250  0.00  0.00    +0.214 C 
BRANCH  16  17
ATOM     17  C   LIG    1        0.019  -0.089   3.317  0.00  0.00    +0.265 C 
ATOM     18  N   LIG    1       -1.246   0.190   3.807  0.00  0.00    -0.195 N 
ATOM     19  H   LIG    1       -1.522   0.111   4.769  0.00  0.00    +0.182 HD
ATOM     20  O   LIG    1        0.396   0.289   2.224  0.00  0.00    -0.271 OA
BRANCH  18  21
ATOM     21  O   LIG    1       -2.107   0.941   2.949  0.00  0.00    -0.295 OA
ATOM     22  H   LIG    1       -1.572   1.020   2.128  0.00  0.00    +0.241 HD
ENDBRANCH  18  21
ENDBRANCH  16  17
BRANCH  16  23
ATOM     23  O   LIG    1        0.150  -2.267   4.239  0.00  0.00    -0.382 OA
ATOM     24  H   LIG    1        0.079  -2.552   3.309  0.00  0.00    +0.210 HD
ENDBRANCH  16  23
ENDBRANCH  15  16
BRANCH  15  25
ATOM     25  C   LIG    1        3.179  -2.062   4.745  0.00  0.00    +0.018 C 
BRANCH  25  26
ATOM     26  C   LIG    1        2.781  -3.550   4.954  0.00  0.00    -0.016 C 
ATOM     27  C   LIG    1        3.736  -4.266   5.933  0.00  0.00    +0.007 C 
ATOM     28  C   LIG    1        2.774  -4.333   3.643  0.00  0.00    +0.007 C 
ENDBRANCH  25  26
ENDBRANCH  15  25
ENDBRANCH   3  15
TORSDOF 10
