REMARK  Name = *****
REMARK                            x       y       z     vdW  Elec       q    Type
REMARK                         _______ _______ _______ _____ _____    ______ ____
ROOT
ATOM      1  C   UNK A  1        8.086  -3.966  -1.016  0.00  0.00    +0.141 C 
ENDROOT
BRANCH   1   2
ATOM      2  C   UNK A  1        8.305  -5.319  -1.860  0.00  0.00    +0.233 C 
ATOM      3  N   PRO A  2        8.226  -6.596  -1.322  0.00  0.00    -0.287 N 
ATOM      4  CA  PRO A  2        7.901  -6.967   0.062  0.00  0.00    +0.184 C 
ATOM      5  CB  PRO A  2        7.158  -8.280  -0.081  0.00  0.00    +0.035 C 
ATOM      6  CG  PRO A  2        7.874  -8.964  -1.233  0.00  0.00    +0.021 C 
ATOM      7  CD  PRO A  2        8.351  -7.819  -2.138  0.00  0.00    +0.109 C 
ATOM      8  O   UNK A  1        8.611  -5.212  -3.072  0.00  0.00    -0.274 OA
BRANCH   4   9
ATOM      9  C   PRO A  2        9.180  -7.137   0.875  0.00  0.00    +0.326 C 
ATOM     10  O   PRO A  2        9.204  -7.100   2.140  0.00  0.00    -0.249 OA
BRANCH   9  11
ATOM     11  OXT PRO A  2       10.303  -7.398   0.192  0.00  0.00    -0.479 OA
ATOM     12  HXT PRO A  2       10.132  -7.320  -0.769  0.00  0.00    +0.295 HD
ENDBRANCH   9  11
ENDBRANCH   4   9
ENDBRANCH   1   2
BRANCH   1  13
ATOM     13  N   UNK A  1        7.896  -4.253   0.415  0.00  0.00    -0.293 NA
ATOM     14  H   UNK A  1        8.776  -4.568   0.798  0.00  0.00    +0.123 HD
BRANCH  13  15
ATOM     15  C   UNK A  1        7.194  -3.446   1.446  0.00  0.00    +0.164 C 
BRANCH  15  16
ATOM     16  C   UNK A  1        5.682  -3.209   1.313  0.00  0.00    +0.322 C 
ATOM     17  O   UNK A  1        4.951  -2.988   2.205  0.00  0.00    -0.249 OA
BRANCH  16  18
ATOM     18  O   UNK A  1        5.259  -3.154   0.028  0.00  0.00    -0.479 OA
ATOM     19  H   UNK A  1        4.346  -2.823   0.123  0.00  0.00    +0.295 HD
ENDBRANCH  16  18
ENDBRANCH  15  16
BRANCH  15  20
ATOM     20  C   UNK A  1        7.826  -2.202   2.083  0.00  0.00    +0.035 C 
BRANCH  20  21
ATOM     21  C   UNK A  1        7.771  -0.828   1.408  0.00  0.00    +0.037 C 
BRANCH  21  22
ATOM     22  C   UNK A  1        6.731  -0.190   0.557  0.00  0.00    -0.047 A 
ATOM     23  C   UNK A  1        6.913   0.382  -0.755  0.00  0.00    +0.003 A 
ATOM     24  C   UNK A  1        5.862   1.026  -1.383  0.00  0.00    +0.000 A 
ATOM     25  C   UNK A  1        4.657   1.094  -0.698  0.00  0.00    +0.000 A 
ATOM     26  C   UNK A  1        4.499   0.521   0.571  0.00  0.00    +0.000 A 
ATOM     27  C   UNK A  1        5.539  -0.099   1.203  0.00  0.00    +0.003 A 
ENDBRANCH  21  22
ENDBRANCH  20  21
ENDBRANCH  15  20
ENDBRANCH  13  15
ENDBRANCH   1  13
BRANCH   1  28
ATOM     28  C   UNK A  1        9.415  -3.115  -1.309  0.00  0.00    +0.028 C 
BRANCH  28  29
ATOM     29  C   UNK A  1        9.475  -1.855  -0.503  0.00  0.00    +0.003 C 
BRANCH  29  30
ATOM     30  C   UNK A  1       10.460  -0.618  -0.278  0.00  0.00    +0.015 C 
BRANCH  30  31
ATOM     31  C   UNK A  1       10.173   0.589   0.791  0.00  0.00    +0.077 C 
BRANCH  31  32
ATOM     32  N   UNK A  1       11.074   1.747   0.763  0.00  0.00    -0.330 NA
ATOM     33  H   UNK A  1       10.793   2.374   1.530  0.00  0.00    +0.118 HD
ATOM     34  H   UNK A  1       10.873   2.295  -0.074  0.00  0.00    +0.118 HD
ENDBRANCH  31  32
ENDBRANCH  30  31
ENDBRANCH  29  30
ENDBRANCH  28  29
ENDBRANCH   1  28
TORSDOF 15
