REMARK  Name = *****
REMARK                            x       y       z     vdW  Elec       q    Type
REMARK                         _______ _______ _______ _____ _____    ______ ____
ROOT
ATOM      1  C   LIG    1       -0.259  -4.748   8.208  0.00  0.00    +0.190 C 
ATOM      2  N   LIG    1       -1.042  -3.814   8.686  0.00  0.00    -0.077 NA
ENDROOT
BRANCH   1   3
ATOM      3  C   LIG    1       -0.692  -5.295   6.916  0.00  0.00    +0.107 A 
ATOM      4  N   LIG    1        0.198  -5.848   6.001  0.00  0.00    -0.223 NA
ATOM      5  C   LIG    1       -0.437  -6.293   4.946  0.00  0.00    +0.156 A 
ATOM      6  S   LIG    1       -2.135  -6.058   4.956  0.00  0.00    -0.060 S 
ATOM      7  C   LIG    1       -2.011  -5.310   6.489  0.00  0.00    +0.078 A 
BRANCH   5   8
ATOM      8  N   LIG    1        0.179  -6.873   3.907  0.00  0.00    -0.338 N 
ATOM      9  H   LIG    1        1.183  -6.743   3.853  0.00  0.00    +0.144 HD
ATOM     10  H   LIG    1       -0.298  -6.901   3.015  0.00  0.00    +0.144 HD
ENDBRANCH   5   8
ENDBRANCH   1   3
BRANCH   1  13
ATOM     11  N   LIG    1        1.353  -4.732  10.102  0.00  0.00    -0.297 N 
ATOM     12  H   LIG    1        0.801  -3.929  10.393  0.00  0.00    +0.150 HD
ATOM     13  C   LIG    1        0.993  -5.319   8.909  0.00  0.00    +0.268 C 
ATOM     14  O   LIG    1        1.630  -6.253   8.443  0.00  0.00    -0.268 OA
BRANCH  11  20
ATOM     15  C   LIG    1        4.904  -5.349   9.966  0.00  0.00    +0.032 C 
ATOM     16  C   LIG    1        3.825  -4.489  10.578  0.00  0.00    +0.129 C 
ATOM     17  N   LIG    1        4.016  -4.260  12.032  0.00  0.00    -0.146 N 
ATOM     18  C   LIG    1        2.678  -4.583  12.332  0.00  0.00    +0.259 C 
ATOM     19  O   LIG    1        2.010  -4.354  13.303  0.00  0.00    -0.272 OA
ATOM     20  C   LIG    1        2.494  -5.218  10.899  0.00  0.00    +0.183 C 
BRANCH  17  21
ATOM     21  S   LIG    1        4.789  -3.006  12.775  0.00  0.00    +0.169 S 
ATOM     22  O   LIG    1        3.918  -1.862  12.806  0.00  0.00    -0.126 OA
ATOM     23  O   LIG    1        6.120  -2.924  12.206  0.00  0.00    -0.126 OA
BRANCH  21  24
ATOM     24  O   LIG    1        5.015  -3.536  14.273  0.00  0.00    -0.238 OA
ATOM     25  H   LIG    1        5.945  -3.830  14.344  0.00  0.00    +0.246 HD
ENDBRANCH  21  24
ENDBRANCH  17  21
ENDBRANCH  11  20
ENDBRANCH   1  13
BRANCH   2  26
ATOM     26  O   LIG    1       -0.727  -3.326   9.961  0.00  0.00    -0.376 OA
BRANCH  26  27
ATOM     27  C   LIG    1       -1.908  -2.783  10.584  0.00  0.00    +0.228 C 
ATOM     28  C   LIG    1       -2.441  -1.598   9.772  0.00  0.00    +0.070 C 
ATOM     29  C   LIG    1       -1.488  -2.310  11.980  0.00  0.00    +0.070 C 
BRANCH  27  30
ATOM     30  C   LIG    1       -2.993  -3.860  10.762  0.00  0.00    +0.351 C 
ATOM     31  O   LIG    1       -2.815  -5.056  10.940  0.00  0.00    -0.246 OA
BRANCH  30  32
ATOM     32  O   LIG    1       -4.252  -3.366  10.750  0.00  0.00    -0.478 OA
ATOM     33  H   LIG    1       -4.834  -4.146  10.865  0.00  0.00    +0.295 HD
ENDBRANCH  30  32
ENDBRANCH  27  30
ENDBRANCH  26  27
ENDBRANCH   2  26
TORSDOF 10
