REMARK  Name = *****
REMARK                            x       y       z     vdW  Elec       q    Type
REMARK                         _______ _______ _______ _____ _____    ______ ____
ROOT
ATOM      1  C   LIG    1        2.982  -1.798   2.030  0.00  0.00    -0.000 C 
ATOM      2  C   LIG    1        3.223  -2.788   2.922  0.00  0.00    -0.066 C 
ATOM      3  C   LIG    1        3.543  -4.240   2.592  0.00  0.00    +0.021 C 
ATOM      4  C   LIG    1        2.676  -4.856   1.494  0.00  0.00    +0.009 C 
ATOM      5  C   LIG    1        3.047  -6.321   1.546  0.00  0.00    +0.005 C 
ATOM      6  C   LIG    1        3.098  -6.685   3.043  0.00  0.00    -0.002 C 
ATOM      7  C   LIG    1        3.387  -5.285   3.764  0.00  0.00    -0.022 C 
ATOM      8  C   LIG    1        4.724  -5.425   4.528  0.00  0.00    +0.012 C 
ATOM      9  C   LIG    1        2.291  -4.812   4.738  0.00  0.00    +0.008 C 
ATOM     10  C   LIG    1        2.427  -3.381   5.261  0.00  0.00    +0.005 C 
ATOM     11  C   LIG    1        3.235  -2.434   4.389  0.00  0.00    +0.031 C 
ENDROOT
BRANCH   1  15
ATOM     12  C   LIG    1        0.170  -0.637   0.463  0.00  0.00    +0.012 C 
ATOM     13  C   LIG    1        1.358  -0.212  -0.008  0.00  0.00    -0.051 C 
ATOM     14  C   LIG    1        2.451  -1.126  -0.304  0.00  0.00    -0.042 C 
ATOM     15  C   LIG    1        3.122  -1.877   0.600  0.00  0.00    +0.004 C 
ATOM     16  C   LIG    1        2.829  -1.123  -1.763  0.00  0.00    +0.066 C 
ATOM     17  C   LIG    1        3.140   0.309  -2.233  0.00  0.00    +0.119 C 
ATOM     18  C   LIG    1        2.017   1.293  -1.881  0.00  0.00    +0.036 C 
ATOM     19  C   LIG    1        1.631   1.215  -0.403  0.00  0.00    +0.037 C 
BRANCH  17  20
ATOM     20  O   LIG    1        3.357   0.325  -3.643  0.00  0.00    -0.392 OA
ATOM     21  H   LIG    1        2.521   0.073  -4.074  0.00  0.00    +0.210 HD
ENDBRANCH  17  20
ENDBRANCH   1  15
BRANCH   6  22
ATOM     22  C   LIG    1        1.875  -7.573   3.461  0.00  0.00    -0.010 C 
ATOM     23  C   LIG    1        1.848  -7.976   4.943  0.00  0.00    +0.008 C 
BRANCH  22  24
ATOM     24  C   LIG    1        1.754  -8.898   2.632  0.00  0.00    +0.004 C 
BRANCH  24  25
ATOM     25  C   LIG    1        2.891  -9.923   2.845  0.00  0.00    +0.003 C 
BRANCH  25  26
ATOM     26  C   LIG    1        2.688 -11.179   1.984  0.00  0.00    +0.034 C 
BRANCH  26  27
ATOM     27  C   LIG    1        3.745 -12.303   2.125  0.00  0.00    +0.060 C 
ATOM     28  C   LIG    1        3.743 -12.989   3.493  0.00  0.00    +0.041 C 
ATOM     29  C   LIG    1        5.159 -11.825   1.785  0.00  0.00    +0.041 C 
BRANCH  27  30
ATOM     30  O   LIG    1        3.395 -13.326   1.179  0.00  0.00    -0.389 OA
ATOM     31  H   LIG    1        3.442 -12.940   0.287  0.00  0.00    +0.210 HD
ENDBRANCH  27  30
ENDBRANCH  26  27
ENDBRANCH  25  26
ENDBRANCH  24  25
ENDBRANCH  22  24
ENDBRANCH   6  22
TORSDOF 8
