REMARK  Name = *****
REMARK                            x       y       z     vdW  Elec       q    Type
REMARK                         _______ _______ _______ _____ _____    ______ ____
ROOT
ATOM      1  C   LIG    1        1.101  -1.219   0.158  0.00  0.00    +0.158 C 
ATOM      2  N   LIG    1        2.508  -0.846  -0.146  0.00  0.00    -0.197 N 
ATOM      3  S   LIG    1        3.585  -2.087   0.291  0.00  0.00    +0.076 S 
ATOM      4  O   LIG    1        3.407  -3.202  -0.610  0.00  0.00    -0.150 OA
ATOM      5  O   LIG    1        3.563  -2.229   1.728  0.00  0.00    -0.150 OA
ATOM      6  C   LIG    1        5.174  -1.549  -0.021  0.00  0.00    +0.128 A 
ATOM      7  C   LIG    1        5.440  -0.207  -0.062  0.00  0.00    +0.089 A 
ATOM      8  S   LIG    1        7.110   0.078  -0.302  0.00  0.00    -0.071 S 
ATOM      9  C   LIG    1        7.435  -1.587  -0.353  0.00  0.00    +0.081 A 
ATOM     10 CL   LIG    1        9.046  -2.133  -0.580  0.00  0.00    -0.076 Cl
ATOM     11  C   LIG    1        4.488   0.869   0.088  0.00  0.00    +0.222 C 
ATOM     12  O   LIG    1        4.832   2.040   0.266  0.00  0.00    -0.284 OA
ATOM     13  C   LIG    1        6.322  -2.370  -0.189  0.00  0.00    +0.057 A 
ATOM     14  C   LIG    1        2.999   0.534  -0.021  0.00  0.00    +0.156 C 
ATOM     15  C   LIG    1        2.122   1.576  -0.108  0.00  0.00    +0.210 C 
ENDROOT
BRANCH  15  16
ATOM     16  N   LIG    1        0.762   1.516  -0.332  0.00  0.00    -0.269 N 
ATOM     17  H   LIG    1        0.291   2.291   0.141  0.00  0.00    +0.157 HD
BRANCH  16  18
ATOM     18  C   LIG    1        0.194   1.582  -1.624  0.00  0.00    +0.125 A 
ATOM     19  N   LIG    1       -0.972   2.259  -1.709  0.00  0.00    -0.240 NA
ATOM     20  C   LIG    1       -1.605   2.280  -2.902  0.00  0.00    +0.113 A 
ATOM     21  C   LIG    1       -1.136   1.642  -4.037  0.00  0.00    +0.020 A 
ATOM     22  C   LIG    1        0.060   0.947  -3.941  0.00  0.00    +0.005 A 
ATOM     23  C   LIG    1        0.734   0.915  -2.721  0.00  0.00    +0.044 A 
ENDBRANCH  16  18
ENDBRANCH  15  16
BRANCH  15  24
ATOM     24  O   LIG    1        2.503   2.894   0.086  0.00  0.00    -0.494 OA
ATOM     25  H   LIG    1        3.473   2.950   0.231  0.00  0.00    +0.293 HD
ENDBRANCH  15  24
TORSDOF 3
