REMARK  Name = *****
REMARK                            x       y       z     vdW  Elec       q    Type
REMARK                         _______ _______ _______ _____ _____    ______ ____
ROOT
ATOM      1  C   LIG    1        1.795   2.047  -0.907  0.00  0.00    +0.105 C 
ATOM      2  N   LIG    1        2.671   2.551   0.159  0.00  0.00    -0.302 NA
ATOM      3  C   LIG    1        3.668   1.508   0.492  0.00  0.00    +0.111 C 
ATOM      4  C   LIG    1        4.824   1.214  -0.575  0.00  0.00    +0.118 C 
ATOM      5  N   LIG    1        4.963   2.381  -1.534  0.00  0.00    -0.320 N 
ATOM      6  C   LIG    1        4.454   2.343  -2.835  0.00  0.00    +0.034 A 
ATOM      7  C   LIG    1        4.826   1.325  -3.721  0.00  0.00    -0.022 A 
ATOM      8  C   LIG    1        5.913   0.363  -3.327  0.00  0.00    +0.072 C 
ATOM      9  C   LIG    1        5.483  -0.635  -2.290  0.00  0.00    -0.038 A 
ATOM     10  C   LIG    1        5.727  -2.000  -2.561  0.00  0.00    +0.004 A 
ATOM     11  C   LIG    1        5.423  -2.990  -1.634  0.00  0.00    +0.000 A 
ATOM     12  C   LIG    1        4.860  -2.631  -0.421  0.00  0.00    +0.000 A 
ATOM     13  C   LIG    1        4.629  -1.283  -0.138  0.00  0.00    +0.006 A 
ATOM     14  C   LIG    1        4.267   1.240  -5.018  0.00  0.00    +0.006 A 
ATOM     15  C   LIG    1        3.362   2.197  -5.471  0.00  0.00    +0.000 A 
ATOM     16  C   LIG    1        3.047   3.267  -4.648  0.00  0.00    +0.002 A 
ATOM     17  C   LIG    1        3.612   3.342  -3.373  0.00  0.00    +0.023 A 
ATOM     18  C   LIG    1        4.805   3.651  -0.792  0.00  0.00    +0.121 C 
ATOM     19  C   LIG    1        4.926  -0.244  -1.058  0.00  0.00    -0.022 A 
ATOM     20  C   LIG    1        3.381   3.800  -0.188  0.00  0.00    +0.103 C 
ENDROOT
TORSDOF 0
