REMARK  Name = *****
REMARK                            x       y       z     vdW  Elec       q    Type
REMARK                         _______ _______ _______ _____ _____    ______ ____
ROOT
ATOM      1  O   LIG    1       10.293  -3.209  -7.352  0.00  0.00    -0.362 OA
ENDROOT
BRANCH   1   5
ATOM      2  N   LIG    1       11.675  -5.849  -7.562  0.00  0.00    -0.302 NA
ATOM      3  C   LIG    1       10.422  -6.125  -8.265  0.00  0.00    +0.087 C 
ATOM      4  C   LIG    1        9.214  -5.321  -7.744  0.00  0.00    +0.047 C 
ATOM      5  C   LIG    1        9.601  -4.272  -6.688  0.00  0.00    +0.122 C 
ATOM      6  C   LIG    1       10.331  -5.055  -5.597  0.00  0.00    +0.047 C 
ATOM      7  C   LIG    1       11.530  -5.849  -6.117  0.00  0.00    +0.087 C 
BRANCH   2   8
ATOM      8  C   LIG    1       12.829  -6.560  -8.123  0.00  0.00    +0.085 C 
BRANCH   8   9
ATOM      9  C   LIG    1       12.966  -8.096  -7.968  0.00  0.00    +0.026 C 
BRANCH   9  10
ATOM     10  C   LIG    1       13.087  -8.627  -6.536  0.00  0.00    +0.121 C 
BRANCH  10  12
ATOM     11  O   LIG    1       12.307 -10.915  -6.859  0.00  0.00    -0.251 OA
ATOM     12  C   LIG    1       13.155 -10.121  -6.393  0.00  0.00    +0.305 C 
BRANCH  12  13
ATOM     13  O   LIG    1       14.162 -10.533  -5.556  0.00  0.00    -0.481 OA
ATOM     14  H   LIG    1       14.669  -9.804  -5.164  0.00  0.00    +0.295 HD
ENDBRANCH  12  13
ENDBRANCH  10  12
ENDBRANCH   9  10
ENDBRANCH   8   9
ENDBRANCH   2   8
ENDBRANCH   1   5
BRANCH   1  15
ATOM     15  C   LIG    1       10.922  -2.176  -6.572  0.00  0.00    +0.197 C 
BRANCH  15  16
ATOM     16  C   LIG    1        9.998  -1.476  -5.574  0.00  0.00    -0.013 A 
ATOM     17  C   LIG    1        8.661  -1.147  -5.852  0.00  0.00    +0.008 A 
ATOM     18  C   LIG    1        7.826  -0.659  -4.837  0.00  0.00    +0.020 A 
ATOM     19  C   LIG    1        8.318  -0.527  -3.539  0.00  0.00    +0.041 A 
ATOM     20 CL   LIG    1        7.280  -0.019  -2.264  0.00  0.00    -0.084 Cl
ATOM     21  C   LIG    1        9.657  -0.784  -3.267  0.00  0.00    +0.020 A 
ATOM     22  C   LIG    1       10.506  -1.187  -4.297  0.00  0.00    +0.008 A 
ENDBRANCH  15  16
BRANCH  15  23
ATOM     23  C   LIG    1       11.648  -1.186  -7.504  0.00  0.00    +0.074 A 
ATOM     24  N   LIG    1       10.918  -0.494  -8.422  0.00  0.00    -0.257 NA
ATOM     25  C   LIG    1       11.578   0.343  -9.255  0.00  0.00    +0.111 A 
ATOM     26  C   LIG    1       12.945   0.558  -9.220  0.00  0.00    +0.020 A 
ATOM     27  C   LIG    1       13.685  -0.127  -8.268  0.00  0.00    +0.003 A 
ATOM     28  C   LIG    1       13.035  -1.011  -7.403  0.00  0.00    +0.026 A 
ENDBRANCH  15  23
ENDBRANCH   1  15
TORSDOF 9
