REMARK  Name = *****
REMARK                            x       y       z     vdW  Elec       q    Type
REMARK                         _______ _______ _______ _____ _____    ______ ____
ROOT
ATOM      1  C   LIG    1       -0.287   1.327   6.723  0.00  0.00    +0.178 C 
ATOM      2  C   LIG    1        0.679   2.100   5.821  0.00  0.00    +0.151 C 
ATOM      3  C   LIG    1        0.729   1.401   4.474  0.00  0.00    +0.095 C 
ATOM      4  C   LIG    1       -0.684   1.123   3.952  0.00  0.00    +0.253 C 
ATOM      5  O   LIG    1       -1.642   1.898   4.693  0.00  0.00    -0.346 OA
ATOM      6  C   LIG    1       -1.697   1.567   6.109  0.00  0.00    +0.150 C 
ATOM      7  C   LIG    1       -2.345   2.773   6.798  0.00  0.00    +0.040 C 
ENDROOT
BRANCH   2   8
ATOM      8  O   LIG    1        1.978   2.213   6.392  0.00  0.00    -0.389 OA
ATOM      9  H   LIG    1        2.547   2.626   5.719  0.00  0.00    +0.210 HD
ENDBRANCH   2   8
BRANCH   1  10
ATOM     10  O   LIG    1       -0.016  -0.095   6.728  0.00  0.00    -0.343 OA
BRANCH  10  14
ATOM     11  C   LIG    1        3.250  -1.767   8.790  0.00  0.00    +0.178 C 
ATOM     12  C   LIG    1        2.042  -1.226   9.578  0.00  0.00    +0.151 C 
ATOM     13  C   LIG    1        1.343  -0.128   8.785  0.00  0.00    +0.095 C 
ATOM     14  C   LIG    1        1.239  -0.498   7.302  0.00  0.00    +0.254 C 
ATOM     15  O   LIG    1        1.366  -1.921   7.152  0.00  0.00    -0.346 OA
ATOM     16  C   LIG    1        2.678  -2.415   7.500  0.00  0.00    +0.150 C 
ATOM     17  C   LIG    1        2.551  -3.924   7.687  0.00  0.00    +0.040 C 
BRANCH  12  18
ATOM     18  O   LIG    1        2.400  -0.750  10.873  0.00  0.00    -0.389 OA
ATOM     19  H   LIG    1        3.221  -0.236  10.773  0.00  0.00    +0.210 HD
ENDBRANCH  12  18
BRANCH  11  20
ATOM     20  O   LIG    1        4.169  -0.675   8.521  0.00  0.00    -0.343 OA
BRANCH  20  26
ATOM     21  C   LIG    1        7.687  -0.198   8.122  0.00  0.00    +0.212 C 
ATOM     22  C   LIG    1        8.211  -1.539   7.570  0.00  0.00    +0.184 C 
ATOM     23  C   LIG    1        7.097  -2.605   7.572  0.00  0.00    +0.150 C 
ATOM     24  C   LIG    1        7.575  -3.950   8.099  0.00  0.00    +0.040 C 
ATOM     25  O   LIG    1        5.989  -2.181   8.376  0.00  0.00    -0.346 OA
ATOM     26  C   LIG    1        5.331  -1.070   7.775  0.00  0.00    +0.255 C 
ATOM     27  C   LIG    1        6.283   0.112   7.600  0.00  0.00    +0.108 C 
BRANCH  22  28
ATOM     28  O   LIG    1        8.673  -1.393   6.218  0.00  0.00    -0.386 OA
ATOM     29  H   LIG    1        9.339  -0.681   6.229  0.00  0.00    +0.210 HD
ENDBRANCH  22  28
BRANCH  21  30
ATOM     30  O   LIG    1        8.555   0.882   7.709  0.00  0.00    -0.459 OA
BRANCH  30  32
ATOM     31  C   LIG    1        8.825   3.222   7.742  0.00  0.00    +0.136 C 
ATOM     32  C   LIG    1        8.512   1.979   8.518  0.00  0.00    +0.304 C 
ATOM     33  O   LIG    1        8.194   1.973   9.699  0.00  0.00    -0.251 OA
ENDBRANCH  30  32
ENDBRANCH  21  30
ENDBRANCH  20  26
ENDBRANCH  11  20
ENDBRANCH  10  14
ENDBRANCH   1  10
BRANCH   4  34
ATOM     34  O   LIG    1       -0.753   1.466   2.555  0.00  0.00    -0.348 OA
BRANCH  34  35
ATOM     35  C   LIG    1        0.120   0.727   1.677  0.00  0.00    +0.122 C 
ATOM     36  C   LIG    1       -0.065   1.227   0.228  0.00  0.00    +0.035 C 
ATOM     37  C   LIG    1       -1.481   0.943  -0.288  0.00  0.00    -0.002 C 
ATOM     38  C   LIG    1       -1.715   1.377  -1.762  0.00  0.00    +0.004 C 
ATOM     39  C   LIG    1       -3.120   0.969  -2.299  0.00  0.00    +0.007 C 
ATOM     40  C   LIG    1       -4.061   0.715  -1.121  0.00  0.00    +0.025 C 
ATOM     41  C   LIG    1       -5.590   0.646  -1.289  0.00  0.00    +0.075 C 
ATOM     42  C   LIG    1       -6.174  -0.749  -1.626  0.00  0.00    +0.004 C 
ATOM     43  C   LIG    1       -5.781  -1.241  -3.053  0.00  0.00    +0.014 C 
ATOM     44  C   LIG    1       -7.726  -0.453  -1.636  0.00  0.00    +0.027 C 
ATOM     45  C   LIG    1       -7.765   0.963  -2.313  0.00  0.00    +0.011 C 
ATOM     46  C   LIG    1       -5.660  -1.812  -0.648  0.00  0.00    +0.010 C 
ATOM     47  C   LIG    1       -4.142  -1.852  -0.564  0.00  0.00    +0.005 C 
ATOM     48  C   LIG    1       -6.332   1.566  -2.255  0.00  0.00    +0.036 C 
ATOM     49  C   LIG    1       -3.541  -0.473  -0.221  0.00  0.00    +0.001 C 
ATOM     50  C   LIG    1       -1.973  -0.518  -0.079  0.00  0.00    -0.026 C 
ATOM     51  C   LIG    1       -1.299  -1.486  -1.090  0.00  0.00    +0.012 C 
ATOM     52  C   LIG    1       -1.612  -1.045   1.339  0.00  0.00    +0.009 C 
ATOM     53  C   LIG    1       -0.157  -0.774   1.715  0.00  0.00    +0.032 C 
BRANCH  44  54
ATOM     54  C   LIG    1       -8.543  -0.522  -0.345  0.00  0.00    -0.022 C 
ATOM     55  C   LIG    1      -10.016  -0.292  -0.313  0.00  0.00    +0.264 C 
ATOM     56  O   LIG    1      -10.424  -0.526   1.035  0.00  0.00    -0.457 OA
ATOM     57  C   LIG    1       -9.311  -0.800   1.786  0.00  0.00    +0.332 C 
ATOM     58  O   LIG    1       -9.281  -1.041   2.978  0.00  0.00    -0.246 OA
ATOM     59  C   LIG    1       -8.176  -0.778   0.921  0.00  0.00    +0.094 C 
ENDBRANCH  44  54
BRANCH  41  60
ATOM     60  O   LIG    1       -6.078   1.042   0.021  0.00  0.00    -0.388 OA
ATOM     61  H   LIG    1       -5.797   1.961   0.182  0.00  0.00    +0.210 HD
ENDBRANCH  41  60
ENDBRANCH  34  35
ENDBRANCH   4  34
TORSDOF 13
