REMARK  Name = *****
REMARK                            x       y       z     vdW  Elec       q    Type
REMARK                         _______ _______ _______ _____ _____    ______ ____
ROOT
ATOM      1  C   LIG    1        9.044   2.711  -2.561  0.00  0.00    +0.120 C 
ATOM      2  C   LIG    1        9.590   4.083  -2.207  0.00  0.00    -0.006 A 
ATOM      3  C   LIG    1        9.921   4.122  -0.858  0.00  0.00    -0.014 A 
ATOM      4  C   LIG    1       10.454   5.258  -0.254  0.00  0.00    +0.025 A 
ATOM      5  C   LIG    1       10.655   6.396  -1.041  0.00  0.00    +0.052 A 
ATOM      6  C   LIG    1       10.326   6.368  -2.407  0.00  0.00    +0.019 A 
ATOM      7  C   LIG    1        9.647   2.802  -0.245  0.00  0.00    +0.197 C 
ATOM      8  C   LIG    1        9.787   5.210  -2.995  0.00  0.00    +0.008 A 
ATOM      9  O   LIG    1        8.894   2.085  -1.245  0.00  0.00    -0.359 OA
ENDROOT
BRANCH   1  10
ATOM     10  C   LIG    1       10.022   1.891  -3.424  0.00  0.00    -0.011 A 
ATOM     11  C   LIG    1       10.270   2.236  -4.769  0.00  0.00    +0.009 A 
ATOM     12  C   LIG    1       11.146   1.484  -5.561  0.00  0.00    +0.039 A 
ATOM     13  C   LIG    1       11.787   0.380  -5.018  0.00  0.00    +0.123 A 
ATOM     14  F   LIG    1       12.622  -0.342  -5.777  0.00  0.00    -0.205 F 
ATOM     15  C   LIG    1       11.568   0.011  -3.700  0.00  0.00    +0.039 A 
ATOM     16  C   LIG    1       10.690   0.760  -2.909  0.00  0.00    +0.009 A 
ENDBRANCH   1  10
BRANCH   5  17
ATOM     17  C   LIG    1       11.202   7.592  -0.453  0.00  0.00    +0.099 C 
ATOM     18  N   LIG    1       11.635   8.555   0.020  0.00  0.00    -0.191 NA
ENDBRANCH   5  17
BRANCH   1  19
ATOM     19  C   LIG    1        7.614   2.780  -3.181  0.00  0.00    +0.046 C 
BRANCH  19  20
ATOM     20  C   LIG    1        6.908   1.413  -3.309  0.00  0.00    +0.019 C 
BRANCH  20  21
ATOM     21  C   LIG    1        5.526   1.469  -3.999  0.00  0.00    +0.084 C 
BRANCH  21  23
ATOM     22  C   LIG    1        4.143   1.979  -5.914  0.00  0.00    +0.104 C 
ATOM     23  N   LIG    1        5.511   1.991  -5.380  0.00  0.00    -0.308 NA
ATOM     24  C   LIG    1        6.402   1.234  -6.261  0.00  0.00    +0.104 C 
ENDBRANCH  21  23
ENDBRANCH  20  21
ENDBRANCH  19  20
ENDBRANCH   1  19
TORSDOF 6
