REMARK  Name = *****
REMARK                            x       y       z     vdW  Elec       q    Type
REMARK                         _______ _______ _______ _____ _____    ______ ____
ROOT
ATOM      1  C   LIG    1        6.362  -1.134  -3.319  0.00  0.00    +0.118 C 
ENDROOT
BRANCH   1   2
ATOM      2  C   LIG    1        7.836  -0.675  -3.349  0.00  0.00    +0.007 A 
ATOM      3  C   LIG    1        8.489  -0.135  -4.476  0.00  0.00    +0.047 A 
ATOM      4 CL   LIG    1        7.678   0.359  -5.923  0.00  0.00    -0.083 Cl
ATOM      5  C   LIG    1        9.877   0.082  -4.472  0.00  0.00    +0.020 A 
ATOM      6  C   LIG    1       10.628  -0.140  -3.322  0.00  0.00    +0.001 A 
ATOM      7  C   LIG    1        9.990  -0.546  -2.161  0.00  0.00    +0.001 A 
ATOM      8  C   LIG    1        8.618  -0.818  -2.176  0.00  0.00    +0.008 A 
ENDBRANCH   1   2
BRANCH   1   9
ATOM      9  C   LIG    1        5.902  -1.821  -4.633  0.00  0.00    -0.012 A 
ATOM     10  C   LIG    1        4.766  -1.380  -5.349  0.00  0.00    +0.007 A 
ATOM     11  C   LIG    1        4.389  -1.983  -6.552  0.00  0.00    +0.000 A 
ATOM     12  C   LIG    1        5.125  -3.031  -7.071  0.00  0.00    +0.000 A 
ATOM     13  C   LIG    1        6.253  -3.494  -6.386  0.00  0.00    +0.000 A 
ATOM     14  C   LIG    1        6.627  -2.900  -5.173  0.00  0.00    +0.007 A 
ENDBRANCH   1   9
BRANCH   1  15
ATOM     15  O   LIG    1        6.232  -2.168  -2.314  0.00  0.00    -0.379 OA
ATOM     16  H   LIG    1        5.499  -2.744  -2.591  0.00  0.00    +0.211 HD
ENDBRANCH   1  15
BRANCH   1  17
ATOM     17  C   LIG    1        5.410   0.013  -2.864  0.00  0.00    +0.060 C 
BRANCH  17  18
ATOM     18  C   LIG    1        5.696   0.664  -1.495  0.00  0.00    +0.087 C 
BRANCH  18  20
ATOM     19  C   LIG    1        5.061   2.290   0.182  0.00  0.00    +0.104 C 
ATOM     20  N   LIG    1        4.722   1.723  -1.130  0.00  0.00    -0.308 NA
ATOM     21  C   LIG    1        4.663   2.809  -2.111  0.00  0.00    +0.104 C 
ENDBRANCH  18  20
ENDBRANCH  17  18
ENDBRANCH   1  17
TORSDOF 6
