REMARK  Name = *****
REMARK                            x       y       z     vdW  Elec       q    Type
REMARK                         _______ _______ _______ _____ _____    ______ ____
ROOT
ATOM      1  C   LIG    1       -5.401  -2.684  -1.021  0.00  0.00    +0.081 C 
ATOM      2  C   LIG    1       -6.859  -3.153  -0.724  0.00  0.00    -0.018 C 
ATOM      3  C   LIG    1       -6.877  -4.339   0.275  0.00  0.00    +0.012 C 
ATOM      4  C   LIG    1       -7.357  -3.646  -2.115  0.00  0.00    -0.001 C 
ATOM      5  C   LIG    1       -7.854  -2.526  -3.067  0.00  0.00    -0.003 C 
ATOM      6  C   LIG    1       -8.828  -1.512  -2.414  0.00  0.00    +0.004 C 
ATOM      7  C   LIG    1       -8.211  -0.976  -1.108  0.00  0.00    +0.005 C 
ATOM      8  C   LIG    1      -10.350  -1.934  -2.352  0.00  0.00    +0.008 C 
ATOM      9  C   LIG    1      -10.698  -2.932  -1.229  0.00  0.00    +0.018 C 
ATOM     10  C   LIG    1      -10.818  -2.560  -3.708  0.00  0.00    +0.083 C 
ATOM     11  N   LIG    1      -11.070  -1.550  -4.729  0.00  0.00    -0.308 N 
ATOM     12  H   LIG    1      -11.144  -1.835  -5.698  0.00  0.00    +0.149 HD
ATOM     13  C   LIG    1      -11.773  -0.410  -4.463  0.00  0.00    +0.237 C 
ATOM     14  O   LIG    1      -12.290   0.261  -5.342  0.00  0.00    -0.271 OA
ATOM     15  C   LIG    1      -11.856  -0.017  -3.040  0.00  0.00    +0.063 C 
ATOM     16  C   LIG    1       -9.851  -3.620  -4.233  0.00  0.00    +0.023 C 
ATOM     17  C   LIG    1      -11.195  -0.685  -2.083  0.00  0.00    -0.013 C 
ATOM     18  C   LIG    1       -8.439  -3.071  -4.384  0.00  0.00    +0.006 C 
ATOM     19  C   LIG    1       -6.116  -4.364  -2.676  0.00  0.00    +0.005 C 
ATOM     20  C   LIG    1       -7.740  -2.042  -0.126  0.00  0.00    +0.008 C 
ATOM     21  C   LIG    1       -4.906  -3.589  -2.163  0.00  0.00    +0.014 C 
ENDROOT
BRANCH   1  24
ATOM     22  N   LIG    1       -4.454  -1.579   0.946  0.00  0.00    -0.310 N 
ATOM     23  H   LIG    1       -4.886  -0.760   0.538  0.00  0.00    +0.149 HD
ATOM     24  C   LIG    1       -4.451  -2.730   0.183  0.00  0.00    +0.217 C 
ATOM     25  O   LIG    1       -3.782  -3.720   0.459  0.00  0.00    -0.276 OA
BRANCH  22  27
ATOM     26  C   LIG    1       -3.946   0.011   2.728  0.00  0.00    +0.031 C 
ATOM     27  C   LIG    1       -3.596  -1.363   2.127  0.00  0.00    +0.026 C 
ATOM     28  C   LIG    1       -3.847  -2.429   3.206  0.00  0.00    +0.031 C 
ATOM     29  C   LIG    1       -2.111  -1.355   1.731  0.00  0.00    +0.031 C 
ENDBRANCH  22  27
ENDBRANCH   1  24
TORSDOF 2
