REMARK  Name = *****
REMARK                            x       y       z     vdW  Elec       q    Type
REMARK                         _______ _______ _______ _____ _____    ______ ____
ROOT
ATOM      1  C   LIG    1       -3.336   0.163   1.747  0.00  0.00    +0.129 C 
ATOM      2  C   LIG    1       -4.722  -0.190   1.114  0.00  0.00    +0.007 C 
ATOM      3  C   LIG    1       -4.643  -0.348  -0.418  0.00  0.00    +0.014 C 
ATOM      4  C   LIG    1       -5.597   1.014   1.532  0.00  0.00    +0.005 C 
ATOM      5  C   LIG    1       -7.115   0.795   1.368  0.00  0.00    +0.019 C 
ATOM      6  C   LIG    1       -7.681  -0.558   1.858  0.00  0.00    +0.006 C 
ATOM      7  C   LIG    1       -6.777  -1.731   1.441  0.00  0.00    +0.005 C 
ATOM      8  C   LIG    1       -8.280  -0.598   3.329  0.00  0.00    -0.003 C 
ATOM      9  C   LIG    1       -9.648  -1.341   3.216  0.00  0.00    +0.016 C 
ATOM     10  C   LIG    1       -8.570   0.791   3.911  0.00  0.00    -0.038 C 
ATOM     11  C   LIG    1       -8.714   1.008   5.231  0.00  0.00    +0.050 C 
ATOM     12  C   LIG    1       -8.532  -0.076   6.221  0.00  0.00    +0.156 C 
ATOM     13  O   LIG    1       -8.824   0.132   7.397  0.00  0.00    -0.293 OA
ATOM     14  C   LIG    1       -8.005  -1.413   5.759  0.00  0.00    +0.080 C 
ATOM     15  C   LIG    1       -8.611   1.930   3.020  0.00  0.00    +0.000 C 
ATOM     16  C   LIG    1       -7.402  -1.362   4.354  0.00  0.00    +0.019 C 
ATOM     17  C   LIG    1       -7.928   1.954   1.871  0.00  0.00    -0.023 C 
ATOM     18  C   LIG    1       -5.097   1.394   2.937  0.00  0.00    +0.008 C 
ATOM     19  C   LIG    1       -5.291  -1.510   1.713  0.00  0.00    +0.010 C 
ATOM     20  C   LIG    1       -3.710   0.767   3.109  0.00  0.00    +0.043 C 
ENDROOT
BRANCH   1  22
ATOM     21  C   LIG    1       -0.975   1.093   1.114  0.00  0.00    +0.089 C 
ATOM     22  C   LIG    1       -2.475   1.217   0.991  0.00  0.00    +0.162 C 
ATOM     23  O   LIG    1       -2.962   2.155   0.358  0.00  0.00    -0.295 OA
ENDBRANCH   1  22
BRANCH   1  24
ATOM     24  O   LIG    1       -2.565  -1.019   1.958  0.00  0.00    -0.381 OA
ATOM     25  H   LIG    1       -2.494  -1.486   1.107  0.00  0.00    +0.211 HD
ENDBRANCH   1  24
TORSDOF 2
