REMARK  Name = *****
REMARK                            x       y       z     vdW  Elec       q    Type
REMARK                         _______ _______ _______ _____ _____    ______ ____
ROOT
ATOM      1  C   LIG    1       -3.032  -0.488   1.739  0.00  0.00    +0.032 C 
ATOM      2  C   LIG    1       -2.214  -1.790   1.762  0.00  0.00    +0.019 C 
ATOM      3  C   LIG    1       -4.460  -0.626   1.089  0.00  0.00    -0.017 C 
ATOM      4  C   LIG    1       -4.424  -0.526  -0.449  0.00  0.00    +0.012 C 
ATOM      5  C   LIG    1       -5.221   0.576   1.706  0.00  0.00    +0.003 C 
ATOM      6  C   LIG    1       -6.752   0.528   1.530  0.00  0.00    +0.019 C 
ATOM      7  C   LIG    1       -7.447  -0.818   1.822  0.00  0.00    +0.006 C 
ATOM      8  C   LIG    1       -6.662  -1.992   1.211  0.00  0.00    +0.005 C 
ATOM      9  C   LIG    1       -8.032  -1.010   3.287  0.00  0.00    -0.003 C 
ATOM     10  C   LIG    1       -9.485  -1.547   3.110  0.00  0.00    +0.016 C 
ATOM     11  C   LIG    1       -8.137   0.300   4.089  0.00  0.00    -0.035 C 
ATOM     12  C   LIG    1       -8.164   0.305   5.437  0.00  0.00    +0.050 C 
ATOM     13  C   LIG    1       -8.071  -0.934   6.240  0.00  0.00    +0.156 C 
ATOM     14  O   LIG    1       -8.238  -0.874   7.457  0.00  0.00    -0.293 OA
ATOM     15  C   LIG    1       -7.802  -2.241   5.543  0.00  0.00    +0.080 C 
ATOM     16  C   LIG    1       -8.138   1.564   3.353  0.00  0.00    -0.050 C 
ATOM     17  C   LIG    1       -8.864   2.757   3.920  0.00  0.00    +0.044 C 
ATOM     18  C   LIG    1       -7.240  -2.039   4.138  0.00  0.00    +0.019 C 
ATOM     19  C   LIG    1       -7.468   1.667   2.193  0.00  0.00    -0.019 C 
ATOM     20  C   LIG    1       -4.693   0.687   3.144  0.00  0.00    +0.006 C 
ATOM     21  C   LIG    1       -5.157  -1.960   1.483  0.00  0.00    +0.008 C 
ATOM     22  C   LIG    1       -3.360  -0.067   3.193  0.00  0.00    +0.015 C 
ENDROOT
BRANCH   1  24
ATOM     23  C   LIG    1       -1.157   0.293   0.042  0.00  0.00    +0.086 C 
ATOM     24  C   LIG    1       -2.186   0.649   1.091  0.00  0.00    +0.137 C 
ATOM     25  O   LIG    1       -2.346   1.834   1.395  0.00  0.00    -0.297 OA
ENDBRANCH   1  24
TORSDOF 1
