REMARK  Name = *****
REMARK                            x       y       z     vdW  Elec       q    Type
REMARK                         _______ _______ _______ _____ _____    ______ ____
ROOT
ATOM      1  C   LIG    1        3.711   0.344  -0.410  0.00  0.00    +0.121 A 
ATOM      2  C   LIG    1        4.412   0.830  -1.507  0.00  0.00    +0.060 A 
ATOM      3  C   LIG    1        4.553   2.214  -1.717  0.00  0.00    +0.062 A 
ATOM      4  C   LIG    1        3.943   3.146  -0.842  0.00  0.00    +0.046 A 
ATOM      5  C   LIG    1        3.320   2.637   0.308  0.00  0.00    +0.027 A 
ATOM      6  C   LIG    1        3.200   1.252   0.513  0.00  0.00    +0.047 A 
ENDROOT
BRANCH   3   7
ATOM      7  C   LIG    1        5.442   2.690  -2.832  0.00  0.00    +0.251 C 
ATOM      8  N   LIG    1        5.451   1.885  -3.966  0.00  0.00    -0.266 N 
ATOM      9  H   LIG    1        4.800   1.124  -4.025  0.00  0.00    +0.157 HD
ATOM     10  O   LIG    1        6.049   3.723  -2.666  0.00  0.00    -0.270 OA
BRANCH   8  11
ATOM     11  C   LIG    1        6.199   2.150  -5.121  0.00  0.00    +0.125 A 
ATOM     12  N   LIG    1        6.988   3.233  -5.195  0.00  0.00    -0.239 NA
ATOM     13  C   LIG    1        7.566   3.522  -6.385  0.00  0.00    +0.133 A 
ATOM     14  C   LIG    1        7.414   2.745  -7.519  0.00  0.00    +0.059 A 
ATOM     15 CL   LIG    1        8.108   3.216  -9.014  0.00  0.00    -0.082 Cl
ATOM     16  C   LIG    1        6.650   1.591  -7.421  0.00  0.00    +0.025 A 
ATOM     17  C   LIG    1        6.033   1.285  -6.205  0.00  0.00    +0.045 A 
ENDBRANCH   8  11
ENDBRANCH   3   7
BRANCH   4  18
ATOM     18  N   LIG    1        3.937   4.532  -1.180  0.00  0.00    -0.281 N 
ATOM     19  H   LIG    1        4.373   4.749  -2.073  0.00  0.00    +0.155 HD
ATOM     20  C   LIG    1        3.387   5.589  -0.471  0.00  0.00    +0.248 C 
ATOM     21  O   LIG    1        2.782   5.494   0.589  0.00  0.00    -0.270 OA
BRANCH  20  22
ATOM     22  C   LIG    1        3.518   6.958  -1.088  0.00  0.00    +0.037 A 
ATOM     23  C   LIG    1        4.579   7.359  -1.911  0.00  0.00    +0.014 A 
ATOM     24  C   LIG    1        4.647   8.687  -2.391  0.00  0.00    +0.016 A 
ATOM     25  C   LIG    1        3.655   9.628  -2.063  0.00  0.00    +0.065 A 
ATOM     26  C   LIG    1        2.595   9.219  -1.249  0.00  0.00    +0.016 A 
ATOM     27  C   LIG    1        2.532   7.905  -0.764  0.00  0.00    +0.014 A 
BRANCH  25  28
ATOM     28  C   LIG    1        3.659  11.039  -2.615  0.00  0.00    +0.312 C 
ATOM     29  N   LIG    1        4.229  11.295  -3.756  0.00  0.00    -0.099 NA
ATOM     30  H   LIG    1        4.627  10.460  -4.186  0.00  0.00    +0.363 HD
BRANCH  28  31
ATOM     31  N   LIG    1        2.987  12.067  -1.950  0.00  0.00    -0.226 N 
ATOM     32  C   LIG    1        3.428  12.465  -0.612  0.00  0.00    +0.276 C 
ATOM     33  C   LIG    1        2.506  13.193  -2.759  0.00  0.00    +0.276 C 
ENDBRANCH  28  31
ENDBRANCH  25  28
ENDBRANCH  20  22
ENDBRANCH   4  18
BRANCH   1  35
ATOM     34  C   LIG    1        4.345  -1.928  -0.710  0.00  0.00    +0.277 C 
ATOM     35  O   LIG    1        3.436  -0.973  -0.173  0.00  0.00    -0.495 OA
ENDBRANCH   1  35
TORSDOF 7
