REMARK  Name = *****
REMARK                            x       y       z     vdW  Elec       q    Type
REMARK                         _______ _______ _______ _____ _____    ______ ____
ROOT
ATOM      1  CA  LIG    1       -4.907  -2.229  -2.836  0.00  0.00    +0.191 C 
ATOM      2  C   LIG    1       -3.501  -2.679  -3.365  0.00  0.00    +0.169 C 
ATOM      3  N   LIG    1       -4.072  -2.755  -4.713  0.00  0.00    -0.249 N 
ATOM      4  CA  LIG    1       -3.726  -3.714  -5.634  0.00  0.00    +0.123 C 
ATOM      5  C   LIG    1       -3.493  -4.998  -5.282  0.00  0.00    -0.021 C 
ATOM      6  C   LIG    1       -3.539  -5.408  -3.835  0.00  0.00    +0.104 C 
ATOM      7  S   LIG    1       -2.798  -4.210  -2.712  0.00  0.00    -0.131 S 
ATOM      8  C   LIG    1       -5.384  -2.717  -4.245  0.00  0.00    +0.244 C 
ATOM      9  O   LIG    1       -6.391  -3.072  -4.786  0.00  0.00    -0.273 OA
ENDROOT
BRANCH   1  11
ATOM     10  C   LIG    1       -6.852  -2.882  -1.394  0.00  0.00    +0.268 C 
ATOM     11  N   LIG    1       -5.480  -2.894  -1.622  0.00  0.00    -0.296 N 
ATOM     12  H   LIG    1       -4.932  -2.930  -0.748  0.00  0.00    +0.150 HD
ATOM     13  O   LIG    1       -7.660  -2.414  -2.180  0.00  0.00    -0.268 OA
BRANCH  10  15
ATOM     14  N   LIG    1       -6.732  -3.258   1.076  0.00  0.00    -0.078 NA
ATOM     15  C   LIG    1       -7.334  -3.484  -0.061  0.00  0.00    +0.190 C 
BRANCH  15  16
ATOM     16  C   LIG    1       -8.543  -4.324  -0.002  0.00  0.00    +0.107 A 
ATOM     17  N   LIG    1       -8.800  -5.167   1.091  0.00  0.00    -0.223 NA
ATOM     18  C   LIG    1       -9.970  -5.744   0.974  0.00  0.00    +0.156 A 
ATOM     19  S   LIG    1      -10.841  -5.354  -0.448  0.00  0.00    -0.060 S 
ATOM     20  C   LIG    1       -9.563  -4.325  -0.939  0.00  0.00    +0.078 A 
BRANCH  18  21
ATOM     21  N   LIG    1      -10.493  -6.558   1.906  0.00  0.00    -0.338 N 
ATOM     22  H   LIG    1      -10.059  -6.502   2.820  0.00  0.00    +0.144 HD
ATOM     23  H   LIG    1      -11.502  -6.646   1.936  0.00  0.00    +0.144 HD
ENDBRANCH  18  21
ENDBRANCH  15  16
BRANCH  14  25
ATOM     24  C   LIG    1       -5.184  -2.103   2.297  0.00  0.00    +0.313 C 
ATOM     25  O   LIG    1       -5.662  -2.361   0.979  0.00  0.00    -0.396 OA
ENDBRANCH  14  25
ENDBRANCH  10  15
ENDBRANCH   1  11
BRANCH   4  26
ATOM     26  C   LIG    1       -3.760  -3.256  -7.069  0.00  0.00    +0.351 C 
ATOM     27  O   LIG    1       -3.879  -3.930  -8.072  0.00  0.00    -0.244 OA
BRANCH  26  28
ATOM     28  OXT LIG    1       -3.576  -1.919  -7.155  0.00  0.00    -0.476 OA
ATOM     29  HXT LIG    1       -3.626  -1.731  -8.115  0.00  0.00    +0.295 HD
ENDBRANCH  26  28
ENDBRANCH   4  26
BRANCH   5  30
ATOM     30  C   LIG    1       -3.420  -6.170  -6.242  0.00  0.00    +0.111 C 
BRANCH  30  31
ATOM     31  S   LIG    1       -1.743  -6.459  -6.872  0.00  0.00    -0.080 S 
BRANCH  31  32
ATOM     32  C   LIG    1       -2.058  -7.851  -7.857  0.00  0.00    +0.209 A 
ATOM     33  N   LIG    1       -1.338  -8.204  -8.960  0.00  0.00    -0.223 N 
ATOM     34  C   LIG    1       -0.205  -7.569  -9.569  0.00  0.00    +0.177 C 
ATOM     35  N   LIG    1       -1.853  -9.329  -9.491  0.00  0.00    -0.043 NA
ATOM     36  N   LIG    1       -2.875  -9.646  -8.706  0.00  0.00    -0.022 NA
ATOM     37  N   LIG    1       -3.013  -8.736  -7.684  0.00  0.00    -0.102 NA
ENDBRANCH  31  32
ENDBRANCH  30  31
ENDBRANCH   5  30
TORSDOF 10
