REMARK  Name = *****
REMARK                            x       y       z     vdW  Elec       q    Type
REMARK                         _______ _______ _______ _____ _____    ______ ____
ROOT
ATOM      1  C   LIG    1       -2.215   4.296  -1.872  0.00  0.00    -0.000 C 
ENDROOT
BRANCH   1   2
ATOM      2  C   LIG    1       -1.203   4.361  -0.677  0.00  0.00    +0.000 C 
BRANCH   2   3
ATOM      3  C   LIG    1        0.137   5.102  -0.992  0.00  0.00    +0.002 C 
BRANCH   3   4
ATOM      4  C   LIG    1        1.257   5.113   0.149  0.00  0.00    +0.021 C 
BRANCH   4   5
ATOM      5  C   LIG    1        2.268   3.961   0.374  0.00  0.00    +0.122 C 
BRANCH   5   8
ATOM      6  C   LIG    1        3.720   5.856   3.511  0.00  0.00    +0.063 C 
ATOM      7  C   LIG    1        3.233   4.511   2.909  0.00  0.00    +0.018 C 
ATOM      8  N   LIG    1        3.403   4.120   1.515  0.00  0.00    -0.344 NA
ATOM      9  C   LIG    1        4.058   2.797   1.394  0.00  0.00    +0.051 C 
ATOM     10  C   LIG    1        3.955   1.823   2.416  0.00  0.00    +0.023 C 
ATOM     11  C   LIG    1        4.444   0.528   2.187  0.00  0.00    +0.012 C 
ATOM     12  C   LIG    1        5.051   0.209   0.961  0.00  0.00    +0.001 C 
ATOM     13  C   LIG    1        5.203   1.179  -0.027  0.00  0.00    +0.002 C 
ATOM     14  C   LIG    1        3.328   2.196   3.712  0.00  0.00    +0.066 C 
ATOM     15  N   LIG    1        3.048   1.353   4.659  0.00  0.00    -0.299 NA
ATOM     16  H   LIG    1        2.656   1.859   5.469  0.00  0.00    +0.187 HD
ATOM     17  C   LIG    1        4.721   2.466   0.195  0.00  0.00    +0.026 C 
ATOM     18  C   LIG    1        3.130   3.633   3.928  0.00  0.00    +0.048 C 
ENDBRANCH   5   8
ENDBRANCH   4   5
ENDBRANCH   3   4
ENDBRANCH   2   3
ENDBRANCH   1   2
BRANCH   1  19
ATOM     19  C   LIG    1       -3.507   3.517  -1.538  0.00  0.00    -0.000 C 
BRANCH  19  20
ATOM     20  C   LIG    1       -4.565   3.288  -2.654  0.00  0.00    +0.000 C 
BRANCH  20  21
ATOM     21  C   LIG    1       -4.227   2.447  -3.922  0.00  0.00    +0.002 C 
BRANCH  21  22
ATOM     22  C   LIG    1       -3.386   3.090  -5.046  0.00  0.00    +0.021 C 
BRANCH  22  23
ATOM     23  C   LIG    1       -3.121   2.269  -6.334  0.00  0.00    +0.122 C 
BRANCH  23  24
ATOM     24  N   LIG    1       -4.339   1.828  -7.071  0.00  0.00    -0.344 NA
ATOM     25  C   LIG    1       -5.025   2.664  -8.013  0.00  0.00    +0.051 C 
ATOM     26  C   LIG    1       -5.693   2.075  -9.153  0.00  0.00    +0.023 C 
ATOM     27  C   LIG    1       -6.573   2.886  -9.918  0.00  0.00    +0.012 C 
ATOM     28  C   LIG    1       -6.613   4.287  -9.722  0.00  0.00    +0.001 C 
ATOM     29  C   LIG    1       -5.856   4.876  -8.719  0.00  0.00    +0.002 C 
ATOM     30  C   LIG    1       -5.276   0.631  -9.507  0.00  0.00    +0.066 C 
ATOM     31  N   LIG    1       -5.380  -0.161 -10.520  0.00  0.00    -0.299 NA
ATOM     32  H   LIG    1       -5.911   0.087 -11.346  0.00  0.00    +0.187 HD
ATOM     33  C   LIG    1       -4.771  -0.143  -8.357  0.00  0.00    +0.048 C 
ATOM     34  C   LIG    1       -5.132   4.067  -7.835  0.00  0.00    +0.026 C 
ATOM     35  C   LIG    1       -4.521   0.433  -7.253  0.00  0.00    +0.018 C 
ATOM     36  C   LIG    1       -4.785  -0.432  -6.049  0.00  0.00    +0.063 C 
ENDBRANCH  23  24
ENDBRANCH  22  23
ENDBRANCH  21  22
ENDBRANCH  20  21
ENDBRANCH  19  20
ENDBRANCH   1  19
TORSDOF 11
