REMARK  Name = *****
REMARK                            x       y       z     vdW  Elec       q    Type
REMARK                         _______ _______ _______ _____ _____    ______ ____
ROOT
ATOM      1  O   LIG    1        1.519  -5.971   1.473  0.00  0.00    -0.489 OA
ENDROOT
BRANCH   1   4
ATOM      2  C   LIG    1        1.466  -5.268   4.253  0.00  0.00    +0.048 C 
ATOM      3  C   LIG    1        1.883  -6.619   3.748  0.00  0.00    -0.009 A 
ATOM      4  C   LIG    1        1.913  -6.942   2.375  0.00  0.00    +0.123 A 
ATOM      5  C   LIG    1        2.328  -8.226   1.995  0.00  0.00    +0.046 A 
ATOM      6  C   LIG    1        2.680  -9.190   2.938  0.00  0.00    +0.004 A 
ATOM      7  C   LIG    1        2.655  -8.870   4.293  0.00  0.00    +0.001 A 
ATOM      8  C   LIG    1        2.272  -7.593   4.687  0.00  0.00    +0.007 A 
ENDBRANCH   1   4
BRANCH   1   9
ATOM      9  C   LIG    1        1.144  -6.486   0.187  0.00  0.00    +0.262 C 
BRANCH   9  10
ATOM     10  C   LIG    1        0.369  -5.481  -0.674  0.00  0.00    +0.177 C 
BRANCH  10  11
ATOM     11  O   LIG    1       -0.095  -6.172  -1.849  0.00  0.00    -0.386 OA
ATOM     12  H   LIG    1        0.710  -6.424  -2.344  0.00  0.00    +0.210 HD
ENDBRANCH  10  11
BRANCH  10  13
ATOM     13  C   LIG    1        1.180  -4.258  -1.115  0.00  0.00    +0.190 C 
BRANCH  13  14
ATOM     14  O   LIG    1        2.282  -4.654  -1.934  0.00  0.00    -0.392 OA
ATOM     15  H   LIG    1        2.718  -3.829  -2.220  0.00  0.00    +0.209 HD
ENDBRANCH  13  14
ENDBRANCH  10  13
ENDBRANCH   9  10
ENDBRANCH   1   9
TORSDOF 6
