REMARK  Name = *****
REMARK                            x       y       z     vdW  Elec       q    Type
REMARK                         _______ _______ _______ _____ _____    ______ ____
ROOT
ATOM      1  C   LIG    1        4.534  -3.018  -0.909  0.00  0.00    +0.249 C 
ATOM      2  N   LIG    1        3.610  -4.053  -0.629  0.00  0.00    -0.293 N 
ATOM      3  C   LIG    1        2.800  -4.050   0.617  0.00  0.00    +0.075 C 
ATOM      4  C   LIG    1        2.538  -2.699   1.296  0.00  0.00    +0.028 C 
ATOM      5  C   LIG    1        3.393  -5.030   1.655  0.00  0.00    +0.041 C 
ATOM      6  C   LIG    1        3.042  -6.497   1.385  0.00  0.00    +0.111 C 
ATOM      7  N   LIG    1        3.822  -7.153   0.340  0.00  0.00    -0.283 N 
ATOM      8  C   LIG    1        4.473  -6.402  -0.731  0.00  0.00    +0.128 C 
ATOM      9  C   LIG    1        3.559  -5.338  -1.335  0.00  0.00    +0.127 C 
ATOM     10  O   LIG    1        4.483  -1.917  -0.370  0.00  0.00    -0.270 OA
ENDROOT
BRANCH   7  11
ATOM     11  C   LIG    1        3.774  -8.503   0.224  0.00  0.00    +0.291 A 
ATOM     12  O   LIG    1        3.206  -9.203   1.259  0.00  0.00    -0.424 OA
ATOM     13  C   LIG    1        3.365 -10.509   0.911  0.00  0.00    +0.157 A 
ATOM     14  C   LIG    1        3.982 -10.544  -0.327  0.00  0.00    +0.113 A 
ATOM     15  C   LIG    1        4.257 -11.784  -0.918  0.00  0.00    +0.051 A 
ATOM     16  C   LIG    1        3.904 -12.935  -0.201  0.00  0.00    +0.043 A 
ATOM     17  C   LIG    1        3.292 -12.861   1.057  0.00  0.00    +0.023 A 
ATOM     18 CL   LIG    1        4.240 -14.482  -0.881  0.00  0.00    -0.084 Cl
ATOM     19  C   LIG    1        2.997 -11.627   1.648  0.00  0.00    +0.050 A 
ATOM     20  N   LIG    1        4.230  -9.265  -0.751  0.00  0.00    -0.195 NA
ENDBRANCH   7  11
BRANCH   1  24
ATOM     21  C   LIG    1        9.483  -2.696  -0.834  0.00  0.00    +0.044 C 
ATOM     22  C   LIG    1        8.245  -3.136  -1.559  0.00  0.00    -0.050 A 
ATOM     23  C   LIG    1        6.970  -2.924  -1.011  0.00  0.00    +0.018 A 
ATOM     24  C   LIG    1        5.782  -3.253  -1.711  0.00  0.00    +0.064 A 
ATOM     25  C   LIG    1        5.915  -3.746  -3.014  0.00  0.00    +0.098 A 
ATOM     26  C   LIG    1        7.193  -4.095  -3.505  0.00  0.00    +0.030 A 
ATOM     27  C   LIG    1        8.345  -3.791  -2.783  0.00  0.00    +0.005 A 
BRANCH  25  28
ATOM     28  N   LIG    1        4.844  -3.818  -3.932  0.00  0.00    -0.150 N 
ATOM     29  N   LIG    1        4.894  -4.662  -5.005  0.00  0.00    -0.156 NA
ATOM     30  C   LIG    1        3.730  -4.424  -5.610  0.00  0.00    +0.156 A 
ATOM     31  C   LIG    1        3.038  -3.427  -4.922  0.00  0.00    +0.156 A 
ATOM     32  N   LIG    1        3.720  -3.066  -3.832  0.00  0.00    -0.156 NA
ENDBRANCH  25  28
ENDBRANCH   1  24
TORSDOF 3
