REMARK  Name = *****
REMARK                            x       y       z     vdW  Elec       q    Type
REMARK                         _______ _______ _______ _____ _____    ______ ____
ROOT
ATOM      1  O   LIG    1        3.251   1.290   1.137  0.00  0.00    -0.254 OA
ATOM      2  P   LIG    1        2.607  -0.050   1.292  0.00  0.00    +0.346 P 
ATOM      3  O   LIG    1        2.591  -0.513   2.834  0.00  0.00    -0.305 OA
ATOM      4  C   LIG    1        3.848  -0.710   3.462  0.00  0.00    +0.171 C 
ATOM      5  C   LIG    1        4.911  -1.273   2.517  0.00  0.00    +0.044 C 
ATOM      6  C   LIG    1        4.291  -2.072   1.377  0.00  0.00    +0.093 C 
ATOM      7  N   LIG    1        3.465  -1.213   0.532  0.00  0.00    -0.233 NA
ATOM      8  H   LIG    1        4.059  -0.760  -0.155  0.00  0.00    +0.133 HD
ENDROOT
BRANCH   2   9
ATOM      9  N   LIG    1        1.049  -0.164   0.786  0.00  0.00    -0.217 NA
BRANCH   9  10
ATOM     10  C   LIG    1        0.467  -1.502   0.557  0.00  0.00    +0.110 C 
BRANCH  10  11
ATOM     11  C   LIG    1       -0.050  -2.242   1.798  0.00  0.00    +0.124 C 
ATOM     12 CL   LIG    1       -0.666  -3.857   1.353  0.00  0.00    -0.124 Cl
ENDBRANCH  10  11
ENDBRANCH   9  10
BRANCH   9  13
ATOM     13  C   LIG    1        0.055   0.763   1.365  0.00  0.00    +0.110 C 
BRANCH  13  14
ATOM     14  C   LIG    1        0.545   2.203   1.588  0.00  0.00    +0.124 C 
ATOM     15 CL   LIG    1       -0.764   3.213   2.262  0.00  0.00    -0.124 Cl
ENDBRANCH  13  14
ENDBRANCH   9  13
ENDBRANCH   2   9
TORSDOF 5
