REMARK  Name = *****
REMARK                            x       y       z     vdW  Elec       q    Type
REMARK                         _______ _______ _______ _____ _____    ______ ____
ROOT
ATOM      1  C   LIG    1        2.590  -0.793   0.021  0.00  0.00    +0.151 A 
ATOM      2  C   LIG    1        2.474  -2.184  -0.084  0.00  0.00    +0.159 A 
ATOM      3  C   LIG    1        3.475  -3.034   0.429  0.00  0.00    +0.048 A 
ATOM      4  C   LIG    1        4.609  -2.501   1.066  0.00  0.00    +0.066 A 
ATOM      5  C   LIG    1        4.699  -1.113   1.198  0.00  0.00    +0.131 A 
ATOM      6  C   LIG    1        3.718  -0.271   0.661  0.00  0.00    +0.093 A 
ENDROOT
BRANCH   2   7
ATOM      7  S   LIG    1        1.057  -2.920  -0.859  0.00  0.00    +0.113 S 
ATOM      8  O   LIG    1        1.040  -4.327  -0.544  0.00  0.00    -0.142 OA
ATOM      9  O   LIG    1        1.013  -2.460  -2.238  0.00  0.00    -0.142 OA
BRANCH   7  10
ATOM     10  O   LIG    1       -0.226  -2.261  -0.133  0.00  0.00    -0.250 OA
ATOM     11  H   LIG    1       -0.725  -1.766  -0.814  0.00  0.00    +0.245 HD
ENDBRANCH   7  10
ENDBRANCH   2   7
BRANCH   1  13
ATOM     12  C   LIG    1        1.736   1.399  -0.385  0.00  0.00    +0.277 C 
ATOM     13  O   LIG    1        1.586  -0.015  -0.496  0.00  0.00    -0.493 OA
ENDBRANCH   1  13
BRANCH   4  14
ATOM     14  C   LIG    1        5.628  -3.459   1.598  0.00  0.00    +0.197 C 
ATOM     15  O   LIG    1        5.245  -4.570   1.962  0.00  0.00    -0.286 OA
BRANCH  14  16
ATOM     16  C   LIG    1        7.088  -3.154   1.670  0.00  0.00    +0.022 A 
ATOM     17  C   LIG    1        7.875  -3.798   2.636  0.00  0.00    +0.012 A 
ATOM     18  C   LIG    1        9.251  -3.550   2.711  0.00  0.00    +0.001 A 
ATOM     19  C   LIG    1        9.845  -2.643   1.833  0.00  0.00    +0.000 A 
ATOM     20  C   LIG    1        9.073  -2.008   0.863  0.00  0.00    +0.001 A 
ATOM     21  C   LIG    1        7.707  -2.286   0.761  0.00  0.00    +0.012 A 
ENDBRANCH  14  16
ENDBRANCH   4  14
BRANCH   5  22
ATOM     22  O   LIG    1        5.730  -0.539   1.887  0.00  0.00    -0.506 OA
ATOM     23  H   LIG    1        5.776   0.412   1.692  0.00  0.00    +0.292 HD
ENDBRANCH   5  22
TORSDOF 6
