REMARK  Name = *****
REMARK                            x       y       z     vdW  Elec       q    Type
REMARK                         _______ _______ _______ _____ _____    ______ ____
ROOT
ATOM      1  N   LIG    1        2.600   0.724  -0.990  0.00  0.00    -0.296 NA
ATOM      2  C   LIG    1        1.506   1.119  -1.901  0.00  0.00    +0.100 C 
ATOM      3  C   LIG    1        0.524   2.167  -1.329  0.00  0.00    +0.100 C 
ATOM      4  N   LIG    1        1.163   3.414  -0.823  0.00  0.00    -0.289 NA
ATOM      5  C   LIG    1        2.198   2.983   0.144  0.00  0.00    +0.100 C 
ATOM      6  C   LIG    1        3.208   1.939  -0.403  0.00  0.00    +0.100 C 
ENDROOT
BRANCH   1   7
ATOM      7  C   LIG    1        2.170  -0.188   0.081  0.00  0.00    +0.112 C 
BRANCH   7   8
ATOM      8  C   LIG    1        1.582  -1.458  -0.447  0.00  0.00    -0.011 C 
ATOM      9  C   LIG    1        0.323  -1.876  -0.186  0.00  0.00    +0.005 C 
BRANCH   9  10
ATOM     10  C   LIG    1       -0.244  -3.107  -0.744  0.00  0.00    -0.025 A 
ATOM     11  C   LIG    1       -1.243  -3.793  -0.030  0.00  0.00    +0.008 A 
ATOM     12  C   LIG    1       -1.807  -4.959  -0.555  0.00  0.00    +0.001 A 
ATOM     13  C   LIG    1       -1.393  -5.447  -1.795  0.00  0.00    +0.000 A 
ATOM     14  C   LIG    1       -0.415  -4.761  -2.515  0.00  0.00    +0.001 A 
ATOM     15  C   LIG    1        0.144  -3.598  -1.998  0.00  0.00    +0.008 A 
ENDBRANCH   9  10
ENDBRANCH   7   8
ENDBRANCH   1   7
BRANCH   4  16
ATOM     16  C   LIG    1        1.691   4.271  -1.937  0.00  0.00    +0.117 C 
BRANCH  16  17
ATOM     17  C   LIG    1        2.540   5.472  -1.456  0.00  0.00    -0.026 A 
ATOM     18  C   LIG    1        1.982   6.706  -1.086  0.00  0.00    +0.005 A 
ATOM     19  C   LIG    1        2.791   7.754  -0.623  0.00  0.00    +0.000 A 
ATOM     20  C   LIG    1        4.167   7.581  -0.491  0.00  0.00    +0.000 A 
ATOM     21  C   LIG    1        4.742   6.368  -0.847  0.00  0.00    +0.000 A 
ATOM     22  C   LIG    1        3.941   5.337  -1.344  0.00  0.00    +0.005 A 
ENDBRANCH  16  17
BRANCH  16  23
ATOM     23  C   LIG    1        0.581   4.705  -2.921  0.00  0.00    -0.026 A 
ATOM     24  C   LIG    1        0.874   4.852  -4.288  0.00  0.00    +0.005 A 
ATOM     25  C   LIG    1       -0.122   5.215  -5.200  0.00  0.00    +0.000 A 
ATOM     26  C   LIG    1       -1.425   5.445  -4.763  0.00  0.00    +0.000 A 
ATOM     27  C   LIG    1       -1.737   5.306  -3.413  0.00  0.00    +0.000 A 
ATOM     28  C   LIG    1       -0.742   4.947  -2.500  0.00  0.00    +0.005 A 
ENDBRANCH  16  23
ENDBRANCH   4  16
TORSDOF 6
