REMARK  Name = *****
REMARK                            x       y       z     vdW  Elec       q    Type
REMARK                         _______ _______ _______ _____ _____    ______ ____
ROOT
ATOM      1  C   LIG    1       -1.160  -4.662  -1.472  0.00  0.00    +0.045 C 
ATOM      2  C   LIG    1       -1.629  -4.970   0.054  0.00  0.00    +0.083 C 
ATOM      3  N   LIG    1       -2.545  -6.094   0.146  0.00  0.00    -0.294 NA
ATOM      4  C   LIG    1       -3.897  -5.594  -0.103  0.00  0.00    +0.086 C 
ATOM      5  C   LIG    1       -3.791  -4.048   0.029  0.00  0.00    +0.030 C 
ATOM      6  C   LIG    1       -2.075  -7.308  -0.499  0.00  0.00    +0.112 C 
ATOM      7  C   LIG    1       -0.845  -7.130  -1.375  0.00  0.00    -0.015 C 
ATOM      8  C   LIG    1       -2.428  -3.875   0.727  0.00  0.00    +0.037 C 
ATOM      9  C   LIG    1       -1.523  -2.616   0.747  0.00  0.00    +0.132 C 
ATOM     10  C   LIG    1       -0.840  -2.174  -0.572  0.00  0.00    +0.220 C 
ATOM     11  N   LIG    1       -2.380  -1.565   1.385  0.00  0.00    -0.325 N 
ATOM     12  C   LIG    1       -1.744  -0.365   1.944  0.00  0.00    +0.130 C 
ATOM     13  C   LIG    1       -2.979  -2.376   2.412  0.00  0.00    +0.037 A 
ATOM     14  C   LIG    1       -3.666  -1.894   3.497  0.00  0.00    +0.069 A 
ATOM     15  C   LIG    1       -4.217  -2.768   4.436  0.00  0.00    +0.127 A 
ATOM     16  C   LIG    1       -4.189  -4.186   4.227  0.00  0.00    +0.017 A 
ATOM     17  C   LIG    1       -3.459  -4.665   3.093  0.00  0.00    +0.014 A 
ATOM     18  C   LIG    1       -2.888  -3.756   2.186  0.00  0.00    -0.016 A 
ATOM     19  C   LIG    1       -0.280  -3.354  -1.458  0.00  0.00    +0.232 C 
ATOM     20  C   LIG    1       -0.386  -5.938  -1.811  0.00  0.00    -0.018 C 
ENDROOT
BRANCH  16  21
ATOM     21  C   LIG    1       -4.912  -5.201   5.204  0.00  0.00    +0.136 C 
ATOM     22  C   LIG    1       -5.456  -6.550   4.501  0.00  0.00    +0.042 C 
ATOM     23  C   LIG    1       -6.256  -6.844   3.367  0.00  0.00    -0.017 C 
ATOM     24  C   LIG    1       -6.584  -8.254   3.413  0.00  0.00    +0.003 C 
ATOM     25  C   LIG    1       -6.027  -8.777   4.569  0.00  0.00    +0.047 C 
ATOM     26  C   LIG    1       -6.215 -10.110   4.963  0.00  0.00    +0.026 C 
ATOM     27  C   LIG    1       -6.992 -10.937   4.143  0.00  0.00    +0.002 C 
ATOM     28  C   LIG    1       -7.555 -10.450   2.970  0.00  0.00    +0.001 C 
ATOM     29  C   LIG    1       -7.362  -9.114   2.596  0.00  0.00    +0.010 C 
ATOM     30  C   LIG    1       -6.845  -5.966   2.276  0.00  0.00    +0.053 C 
ATOM     31  C   LIG    1       -8.298  -5.464   2.558  0.00  0.00    +0.089 C 
ATOM     32  N   LIG    1       -8.392  -4.057   3.001  0.00  0.00    -0.299 NA
ATOM     33  C   LIG    1       -9.695  -3.654   3.542  0.00  0.00    +0.119 C 
ATOM     34  C   LIG    1       -9.966  -3.868   5.087  0.00  0.00    +0.079 C 
ATOM     35  C   LIG    1       -8.690  -3.895   5.985  0.00  0.00    +0.040 C 
ATOM     36  C   LIG    1       -7.501  -4.510   5.236  0.00  0.00    +0.007 C 
ATOM     37  C   LIG    1       -7.354  -3.701   3.954  0.00  0.00    +0.088 C 
ATOM     38  N   LIG    1       -5.342  -7.758   5.184  0.00  0.00    -0.356 NA
ATOM     39  H   LIG    1       -4.896  -7.864   6.089  0.00  0.00    +0.166 HD
ATOM     40  C   LIG    1       -6.182  -4.632   6.025  0.00  0.00    +0.034 C 
BRANCH  21  41
ATOM     41  C   LIG    1       -3.874  -5.583   6.353  0.00  0.00    +0.324 C 
ATOM     42  O   LIG    1       -4.110  -6.368   7.267  0.00  0.00    -0.249 OA
BRANCH  41  43
ATOM     43  O   LIG    1       -2.703  -4.893   6.238  0.00  0.00    -0.467 OA
ATOM     44  C   LIG    1       -1.837  -4.771   7.372  0.00  0.00    +0.280 C 
ENDBRANCH  41  43
ENDBRANCH  21  41
BRANCH  34  45
ATOM     45  O   LIG    1      -10.619  -5.133   5.285  0.00  0.00    -0.387 OA
ATOM     46  H   LIG    1      -11.114  -5.362   4.481  0.00  0.00    +0.210 HD
ENDBRANCH  34  45
BRANCH  34  47
ATOM     47  C   LIG    1      -10.938  -2.751   5.553  0.00  0.00    +0.033 C 
ATOM     48  C   LIG    1      -11.313  -2.789   7.030  0.00  0.00    +0.007 C 
ENDBRANCH  34  47
ENDBRANCH  16  21
BRANCH   1  50
ATOM     49  C   LIG    1       -1.878  -4.628  -4.098  0.00  0.00    +0.005 C 
ATOM     50  C   LIG    1       -2.270  -4.579  -2.611  0.00  0.00    +0.013 C 
ENDBRANCH   1  50
BRANCH  10  51
ATOM     51  O   LIG    1       -1.810  -1.403  -1.303  0.00  0.00    -0.373 OA
ATOM     52  H   LIG    1       -2.342  -0.941  -0.620  0.00  0.00    +0.211 HD
ENDBRANCH  10  51
BRANCH  10  53
ATOM     53  C   LIG    1        0.429  -1.322  -0.192  0.00  0.00    +0.345 C 
ATOM     54  O   LIG    1        0.845  -1.125   0.940  0.00  0.00    -0.247 OA
BRANCH  53  55
ATOM     55  O   LIG    1        1.041  -0.825  -1.306  0.00  0.00    -0.466 OA
ATOM     56  C   LIG    1        2.224  -0.048  -1.089  0.00  0.00    +0.280 C 
ENDBRANCH  53  55
ENDBRANCH  10  53
BRANCH  15  57
ATOM     57  O   LIG    1       -4.736  -2.249   5.596  0.00  0.00    -0.495 OA
ATOM     58  C   LIG    1       -5.250  -0.913   5.544  0.00  0.00    +0.277 C 
ENDBRANCH  15  57
BRANCH  19  59
ATOM     59  O   LIG    1       -0.214  -2.795  -2.810  0.00  0.00    -0.457 OA
BRANCH  59  60
ATOM     60  C   LIG    1        0.910  -2.745  -3.549  0.00  0.00    +0.304 C 
ATOM     61  O   LIG    1        1.962  -3.228  -3.249  0.00  0.00    -0.251 OA
ATOM     62  C   LIG    1        0.625  -2.025  -4.859  0.00  0.00    +0.136 C 
ENDBRANCH  59  60
ENDBRANCH  19  59
TORSDOF 12
