REMARK  Name = *****
REMARK                            x       y       z     vdW  Elec       q    Type
REMARK                         _______ _______ _______ _____ _____    ______ ____
ROOT
ATOM      1  C   LIG    1       -0.643   0.451   0.015  0.00  0.00    +0.014 C 
ATOM      2  C   LIG    1       -2.130   0.077   0.281  0.00  0.00    -0.003 C 
ATOM      3  C   LIG    1       -2.152  -0.786   1.574  0.00  0.00    +0.121 C 
ATOM      4  C   LIG    1       -2.231  -2.252   1.127  0.00  0.00    +0.032 C 
ATOM      5  C   LIG    1       -2.078  -2.242  -0.392  0.00  0.00    +0.007 C 
ATOM      6  C   LIG    1       -2.620  -0.878  -0.844  0.00  0.00    +0.001 C 
ATOM      7  C   LIG    1       -4.138  -0.862  -1.202  0.00  0.00    +0.001 C 
ATOM      8  C   LIG    1       -4.730   0.573  -1.188  0.00  0.00    +0.023 C 
ATOM      9  C   LIG    1       -6.240   0.622  -1.370  0.00  0.00    -0.041 A 
ATOM     10  C   LIG    1       -7.031  -0.521  -1.170  0.00  0.00    -0.040 A 
ATOM     11  C   LIG    1       -6.430  -1.885  -1.021  0.00  0.00    +0.036 C 
ATOM     12  C   LIG    1       -8.423  -0.409  -1.161  0.00  0.00    +0.050 A 
ATOM     13  C   LIG    1       -9.033   0.819  -1.393  0.00  0.00    +0.134 A 
ATOM     14  C   LIG    1       -8.267   1.958  -1.617  0.00  0.00    +0.046 A 
ATOM     15  C   LIG    1       -6.874   1.856  -1.617  0.00  0.00    +0.008 A 
ATOM     16  C   LIG    1       -4.396   1.290   0.132  0.00  0.00    +0.009 C 
ATOM     17  C   LIG    1       -5.036  -1.834  -0.417  0.00  0.00    +0.009 C 
ATOM     18  C   LIG    1       -2.899   1.403   0.349  0.00  0.00    +0.010 C 
ENDROOT
BRANCH   3  19
ATOM     19  O   LIG    1       -3.204  -0.467   2.471  0.00  0.00    -0.391 OA
ATOM     20  H   LIG    1       -4.035  -0.827   2.131  0.00  0.00    +0.210 HD
ENDBRANCH   3  19
BRANCH  13  21
ATOM     21  O   LIG    1      -10.427   0.989  -1.294  0.00  0.00    -0.411 OA
BRANCH  21  22
ATOM     22  C   LIG    1      -11.286  -0.081  -1.543  0.00  0.00    +0.408 C 
ATOM     23  N   LIG    1      -12.525   0.084  -0.937  0.00  0.00    -0.265 N 
ATOM     24  O   LIG    1      -11.003  -1.073  -2.206  0.00  0.00    -0.226 OA
BRANCH  23  25
ATOM     25  C   LIG    1      -12.950   1.387  -0.423  0.00  0.00    +0.127 C 
BRANCH  25  26
ATOM     26  C   LIG    1      -13.523   2.267  -1.532  0.00  0.00    +0.128 C 
ATOM     27 CL   LIG    1      -13.988   3.860  -0.899  0.00  0.00    -0.124 Cl
ENDBRANCH  25  26
ENDBRANCH  23  25
BRANCH  23  28
ATOM     28  C   LIG    1      -13.528  -0.971  -1.089  0.00  0.00    +0.127 C 
BRANCH  28  29
ATOM     29  C   LIG    1      -13.166  -2.311  -0.433  0.00  0.00    +0.128 C 
ATOM     30 CL   LIG    1      -12.933  -2.138   1.327  0.00  0.00    -0.124 Cl
ENDBRANCH  28  29
ENDBRANCH  23  28
ENDBRANCH  21  22
ENDBRANCH  13  21
TORSDOF 7
