REMARK  Name = *****
REMARK                            x       y       z     vdW  Elec       q    Type
REMARK                         _______ _______ _______ _____ _____    ______ ____
ROOT
ATOM      1  C   LIG    1        3.691   0.107   0.049  0.00  0.00    +0.146 C 
ENDROOT
BRANCH   1   2
ATOM      2  C   LIG    1        4.138  -1.336   0.038  0.00  0.00    +0.032 C 
ATOM      3  C   LIG    1        3.342  -2.411   0.025  0.00  0.00    +0.079 C 
ATOM      4 CL   LIG    1        3.953  -4.012   0.010  0.00  0.00    -0.092 Cl
ENDBRANCH   1   2
BRANCH   1   6
ATOM      5  C   LIG    1        4.357   1.200   2.399  0.00  0.00    +0.007 C 
ATOM      6  C   LIG    1        4.060   0.694   1.351  0.00  0.00    -0.067 C 
ENDBRANCH   1   6
BRANCH   1   7
ATOM      7  O   LIG    1        2.274   0.169  -0.087  0.00  0.00    -0.373 OA
ATOM      8  H   LIG    1        2.064  -0.106  -0.994  0.00  0.00    +0.212 HD
ENDBRANCH   1   7
BRANCH   1   9
ATOM      9  C   LIG    1        4.351   0.879  -1.114  0.00  0.00    +0.049 C 
ATOM     10  C   LIG    1        3.945   2.350  -1.195  0.00  0.00    +0.008 C 
ENDBRANCH   1   9
TORSDOF 4
