REMARK  Name = *****
REMARK                            x       y       z     vdW  Elec       q    Type
REMARK                         _______ _______ _______ _____ _____    ______ ____
ROOT
ATOM      1  N   LIG    1        2.990  -1.080  -2.168  0.00  0.00    -0.296 NA
ATOM      2  C   LIG    1        4.359  -0.971  -2.718  0.00  0.00    +0.100 C 
ATOM      3  C   LIG    1        4.580  -1.549  -4.143  0.00  0.00    +0.100 C 
ATOM      4  N   LIG    1        3.562  -1.194  -5.160  0.00  0.00    -0.289 NA
ATOM      5  C   LIG    1        2.256  -1.535  -4.541  0.00  0.00    +0.100 C 
ATOM      6  C   LIG    1        1.964  -0.831  -3.198  0.00  0.00    +0.100 C 
ENDROOT
BRANCH   1   7
ATOM      7  C   LIG    1        2.838  -0.163  -1.011  0.00  0.00    +0.119 C 
BRANCH   7  11
ATOM      8  C   LIG    1       -1.070  -0.280   0.946  0.00  0.00    -0.042 A 
ATOM      9  C   LIG    1       -0.325   0.907   0.861  0.00  0.00    +0.004 A 
ATOM     10  C   LIG    1        0.938   0.932   0.252  0.00  0.00    +0.005 A 
ATOM     11  C   LIG    1        1.509  -0.230  -0.281  0.00  0.00    -0.033 A 
ATOM     12  C   LIG    1        0.832  -1.435  -0.089  0.00  0.00    +0.005 A 
ATOM     13  C   LIG    1       -0.439  -1.454   0.498  0.00  0.00    +0.004 A 
BRANCH   8  15
ATOM     14  C   LIG    1       -3.266   1.025   1.279  0.00  0.00    +0.015 C 
ATOM     15  C   LIG    1       -2.502  -0.301   1.516  0.00  0.00    -0.013 C 
ATOM     16  C   LIG    1       -3.351  -1.413   0.853  0.00  0.00    +0.015 C 
ATOM     17  C   LIG    1       -2.444  -0.543   3.035  0.00  0.00    +0.015 C 
ENDBRANCH   8  15
ENDBRANCH   7  11
ENDBRANCH   1   7
BRANCH   4  18
ATOM     18  C   LIG    1        3.644   0.223  -5.643  0.00  0.00    +0.117 C 
BRANCH  18  19
ATOM     19  C   LIG    1        2.619   0.563  -6.758  0.00  0.00    -0.026 A 
ATOM     20  C   LIG    1        2.094  -0.406  -7.626  0.00  0.00    +0.007 A 
ATOM     21  C   LIG    1        1.083  -0.098  -8.546  0.00  0.00    +0.020 A 
ATOM     22  C   LIG    1        0.621   1.217  -8.647  0.00  0.00    +0.041 A 
ATOM     23 CL   LIG    1       -0.650   1.592  -9.745  0.00  0.00    -0.084 Cl
ATOM     24  C   LIG    1        1.181   2.211  -7.861  0.00  0.00    +0.020 A 
ATOM     25  C   LIG    1        2.173   1.896  -6.921  0.00  0.00    +0.007 A 
ENDBRANCH  18  19
BRANCH  18  26
ATOM     26  C   LIG    1        5.063   0.634  -6.082  0.00  0.00    -0.026 A 
ATOM     27  C   LIG    1        5.720   1.703  -5.439  0.00  0.00    +0.005 A 
ATOM     28  C   LIG    1        7.000   2.105  -5.835  0.00  0.00    +0.000 A 
ATOM     29  C   LIG    1        7.653   1.438  -6.868  0.00  0.00    +0.000 A 
ATOM     30  C   LIG    1        7.031   0.360  -7.496  0.00  0.00    +0.000 A 
ATOM     31  C   LIG    1        5.746  -0.036  -7.110  0.00  0.00    +0.005 A 
ENDBRANCH  18  26
ENDBRANCH   4  18
TORSDOF 6
