REMARK  Name = *****
REMARK                            x       y       z     vdW  Elec       q    Type
REMARK                         _______ _______ _______ _____ _____    ______ ____
ROOT
ATOM      1  N   LIG    1        7.648  11.690   1.950  0.00  0.00    -0.313 NA
ATOM      2  H   LIG    1        7.193  12.219   1.199  0.00  0.00    +0.122 HD
ENDROOT
BRANCH   1   3
ATOM      3  C   LIG    1        8.996  12.282   2.131  0.00  0.00    +0.085 C 
BRANCH   3   4
ATOM      4  C   LIG    1        9.857  11.654   3.262  0.00  0.00    +0.050 C 
BRANCH   4   8
ATOM      5  C   LIG    1       13.846  13.303   3.531  0.00  0.00    +0.162 A 
ATOM      6  C   LIG    1       12.776  14.117   3.129  0.00  0.00    +0.162 A 
ATOM      7  C   LIG    1       11.501  13.563   3.024  0.00  0.00    +0.053 A 
ATOM      8  C   LIG    1       11.247  12.234   3.373  0.00  0.00    -0.043 A 
ATOM      9  C   LIG    1       12.305  11.452   3.848  0.00  0.00    +0.007 A 
ATOM     10  C   LIG    1       13.599  11.976   3.901  0.00  0.00    +0.050 A 
BRANCH   5  12
ATOM     11  C   LIG    1       16.056  13.390   4.407  0.00  0.00    +0.277 C 
ATOM     12  O   LIG    1       15.100  13.851   3.463  0.00  0.00    -0.491 OA
ENDBRANCH   5  12
BRANCH   6  13
ATOM     13  O   LIG    1       13.034  15.425   2.811  0.00  0.00    -0.491 OA
ATOM     14  C   LIG    1       11.986  16.367   3.041  0.00  0.00    +0.277 C 
ENDBRANCH   6  13
ENDBRANCH   4   8
ENDBRANCH   3   4
ENDBRANCH   1   3
BRANCH   1  15
ATOM     15  C   LIG    1        7.812  10.324   1.464  0.00  0.00    +0.115 C 
BRANCH  15  16
ATOM     16  C   LIG    1        6.651   9.335   1.345  0.00  0.00    +0.166 C 
BRANCH  16  17
ATOM     17  O   LIG    1        6.033   9.162   2.628  0.00  0.00    -0.387 OA
ATOM     18  H   LIG    1        6.730   9.233   3.305  0.00  0.00    +0.210 HD
ENDBRANCH  16  17
BRANCH  16  19
ATOM     19  C   LIG    1        7.162   7.945   0.870  0.00  0.00    +0.261 C 
BRANCH  19  20
ATOM     20  O   LIG    1        7.729   7.904  -0.438  0.00  0.00    -0.489 OA
BRANCH  20  21
ATOM     21  C   LIG    1        8.993   8.336  -0.722  0.00  0.00    +0.121 A 
ATOM     22  C   LIG    1        9.309   8.350  -2.061  0.00  0.00    +0.049 A 
ATOM     23  C   LIG    1       10.557   8.807  -2.513  0.00  0.00    -0.047 A 
ATOM     24  C   LIG    1       10.915   8.722  -3.962  0.00  0.00    +0.044 C 
ATOM     25  C   LIG    1       11.443   9.390  -1.596  0.00  0.00    +0.003 A 
ATOM     26  C   LIG    1       11.117   9.438  -0.272  0.00  0.00    +0.004 A 
ATOM     27  C   LIG    1        9.949   8.816   0.193  0.00  0.00    +0.045 A 
ENDBRANCH  20  21
ENDBRANCH  19  20
ENDBRANCH  16  19
ENDBRANCH  15  16
ENDBRANCH   1  15
TORSDOF 11
