REMARK  Name = *****
REMARK                            x       y       z     vdW  Elec       q    Type
REMARK                         _______ _______ _______ _____ _____    ______ ____
ROOT
ATOM      1  C   LIG    1        4.932  -2.832  -1.238  0.00  0.00    +0.061 C 
ATOM      2  C   LIG    1        4.601  -3.036  -2.747  0.00  0.00    +0.054 C 
ATOM      3  C   LIG    1        5.363  -4.134  -3.465  0.00  0.00    -0.039 A 
ATOM      4  C   LIG    1        6.452  -4.794  -2.871  0.00  0.00    -0.003 A 
ATOM      5  C   LIG    1        7.069  -5.840  -3.576  0.00  0.00    +0.120 A 
ATOM      6  C   LIG    1        6.691  -6.161  -4.878  0.00  0.00    +0.045 A 
ATOM      7  C   LIG    1        5.659  -5.459  -5.489  0.00  0.00    +0.004 A 
ATOM      8  C   LIG    1        6.928  -4.356  -1.512  0.00  0.00    +0.041 C 
ATOM      9  C   LIG    1        4.989  -4.462  -4.781  0.00  0.00    +0.004 A 
ATOM     10  C   LIG    1        6.474  -2.933  -1.146  0.00  0.00    +0.024 C 
ENDROOT
BRANCH   5  11
ATOM     11  O   LIG    1        8.072  -6.602  -3.043  0.00  0.00    -0.506 OA
ATOM     12  H   LIG    1        8.058  -6.503  -2.078  0.00  0.00    +0.292 HD
ENDBRANCH   5  11
BRANCH   1  13
ATOM     13  N   LIG    1        4.334  -1.568  -0.636  0.00  0.00    -0.299 NA
BRANCH  13  14
ATOM     14  C   LIG    1        2.848  -1.577  -0.757  0.00  0.00    +0.084 C 
BRANCH  14  16
ATOM     15  C   LIG    1        0.720  -1.022  -1.943  0.00  0.00    +0.005 C 
ATOM     16  C   LIG    1        2.244  -0.993  -2.040  0.00  0.00    +0.012 C 
ENDBRANCH  14  16
ENDBRANCH  13  14
BRANCH  13  17
ATOM     17  C   LIG    1        4.652  -1.503   0.832  0.00  0.00    +0.090 C 
BRANCH  17  18
ATOM     18  C   LIG    1        4.240  -0.216   1.604  0.00  0.00    +0.058 C 
BRANCH  18  19
ATOM     19  C   LIG    1        4.423  -0.404   3.089  0.00  0.00    -0.009 A 
ATOM     20  S   LIG    1        3.159  -1.077   4.038  0.00  0.00    -0.102 S 
ATOM     21  C   LIG    1        4.089  -0.991   5.468  0.00  0.00    +0.045 A 
ATOM     22  C   LIG    1        5.339  -0.441   5.235  0.00  0.00    +0.008 A 
ATOM     23  C   LIG    1        5.518  -0.099   3.864  0.00  0.00    +0.011 A 
ENDBRANCH  18  19
ENDBRANCH  17  18
ENDBRANCH  13  17
ENDBRANCH   1  13
TORSDOF 7
