REMARK  Name = *****
REMARK                            x       y       z     vdW  Elec       q    Type
REMARK                         _______ _______ _______ _____ _____    ______ ____
ROOT
ATOM      1  C   LIG    1       -4.442   0.158   1.471  0.00  0.00    +0.314 C 
ATOM      2  C   LIG    1       -4.658   0.291   2.968  0.00  0.00    +0.199 C 
ATOM      3  C   LIG    1       -4.582  -1.146   3.457  0.00  0.00    +0.182 C 
ATOM      4  C   LIG    1       -5.613  -1.169   4.566  0.00  0.00    +0.171 C 
ATOM      5  C   LIG    1       -6.679  -0.227   4.028  0.00  0.00    +0.194 C 
ATOM      6  O   LIG    1       -4.966  -1.991   2.355  0.00  0.00    -0.367 OA
ATOM      7  O   LIG    1       -5.978   0.787   3.279  0.00  0.00    -0.367 OA
ATOM      8  C   LIG    1       -5.142  -1.165   1.194  0.00  0.00    +0.215 C 
ENDROOT
BRANCH   4   9
ATOM      9  O   LIG    1       -5.045  -0.646   5.772  0.00  0.00    -0.387 OA
ATOM     10  H   LIG    1       -5.024   0.327   5.704  0.00  0.00    +0.210 HD
ENDBRANCH   4   9
BRANCH   1  11
ATOM     11  O   LIG    1       -5.028   1.176   0.675  0.00  0.00    -0.208 OA
BRANCH  11  13
ATOM     12  O   LIG    1       -3.448   2.507   1.593  0.00  0.00    +0.093 OA
ATOM     13  N   LIG    1       -4.400   2.434   0.813  0.00  0.00    +0.285 N 
ATOM     14  O   LIG    1       -4.885   3.292   0.081  0.00  0.00    -0.534 OA
ENDBRANCH  11  13
ENDBRANCH   1  11
TORSDOF 3
