REMARK  Name = *****
REMARK                            x       y       z     vdW  Elec       q    Type
REMARK                         _______ _______ _______ _____ _____    ______ ____
ROOT
ATOM      1  C   LIG    1       -7.691  -4.124  -2.646  0.00  0.00    +0.183 C 
ATOM      2  C   LIG    1       -9.165  -3.966  -3.109  0.00  0.00    +0.008 C 
ATOM      3  C   LIG    1       -9.254  -2.920  -4.236  0.00  0.00    +0.015 C 
ATOM      4  C   LIG    1       -9.832  -3.517  -1.789  0.00  0.00    +0.002 C 
ATOM      5  C   LIG    1      -11.367  -3.596  -1.727  0.00  0.00    +0.001 C 
ATOM      6  C   LIG    1      -11.951  -4.893  -2.341  0.00  0.00    +0.023 C 
ATOM      7  C   LIG    1      -11.290  -5.267  -3.683  0.00  0.00    +0.009 C 
ATOM      8  C   LIG    1      -13.469  -4.838  -2.482  0.00  0.00    -0.041 A 
ATOM      9  C   LIG    1      -14.189  -3.631  -2.366  0.00  0.00    -0.041 A 
ATOM     10  C   LIG    1      -15.588  -3.637  -2.493  0.00  0.00    +0.049 A 
ATOM     11  C   LIG    1      -16.260  -4.825  -2.753  0.00  0.00    +0.117 A 
ATOM     12  C   LIG    1      -15.565  -6.018  -2.878  0.00  0.00    +0.045 A 
ATOM     13  C   LIG    1      -13.507  -2.329  -2.037  0.00  0.00    +0.036 C 
ATOM     14  C   LIG    1      -14.177  -6.026  -2.738  0.00  0.00    +0.008 A 
ATOM     15  C   LIG    1      -12.018  -2.354  -2.353  0.00  0.00    +0.009 C 
ATOM     16  C   LIG    1       -9.163  -4.407  -0.721  0.00  0.00    +0.008 C 
ATOM     17  C   LIG    1       -9.763  -5.303  -3.595  0.00  0.00    +0.011 C 
ATOM     18  C   LIG    1       -7.785  -4.786  -1.270  0.00  0.00    +0.045 C 
ENDROOT
BRANCH  11  19
ATOM     19  O   LIG    1      -17.617  -4.859  -2.885  0.00  0.00    -0.507 OA
ATOM     20  H   LIG    1      -17.959  -3.958  -2.768  0.00  0.00    +0.292 HD
ENDBRANCH  11  19
BRANCH   1  21
ATOM     21  O   LIG    1       -7.138  -2.799  -2.494  0.00  0.00    -0.461 OA
BRANCH  21  22
ATOM     22  C   LIG    1       -5.787  -2.693  -2.409  0.00  0.00    +0.307 C 
ATOM     23  O   LIG    1       -5.003  -3.627  -2.395  0.00  0.00    -0.251 OA
BRANCH  22  24
ATOM     24  C   LIG    1       -5.388  -1.237  -2.390  0.00  0.00    +0.120 C 
BRANCH  24  25
ATOM     25  C   LIG    1       -5.938  -0.465  -1.190  0.00  0.00    +0.011 C 
BRANCH  25  27
ATOM     26  C   LIG    1       -5.981  -0.194   1.324  0.00  0.00    +0.004 C 
ATOM     27  C   LIG    1       -5.430  -0.996   0.152  0.00  0.00    -0.003 C 
ENDBRANCH  25  27
ENDBRANCH  24  25
ENDBRANCH  22  24
ENDBRANCH  21  22
ENDBRANCH   1  21
TORSDOF 6
