REMARK  Name = *****
REMARK                            x       y       z     vdW  Elec       q    Type
REMARK                         _______ _______ _______ _____ _____    ______ ____
ROOT
ATOM      1  C   LIG    1        2.552  -1.443  -1.524  0.00  0.00    +0.000 C 
ATOM      2  C   LIG    1        2.382  -2.065  -2.694  0.00  0.00    +0.000 C 
ENDROOT
BRANCH   1   5
ATOM      3  C   LIG    1        2.804   0.107   1.053  0.00  0.00    +0.044 C 
ATOM      4  C   LIG    1        3.184   0.612  -0.317  0.00  0.00    -0.050 C 
ATOM      5  C   LIG    1        3.046  -0.097  -1.450  0.00  0.00    +0.003 C 
BRANCH   4   6
ATOM      6  C   LIG    1        3.732   1.957  -0.422  0.00  0.00    +0.003 C 
ATOM      7  C   LIG    1        3.920   2.786   0.610  0.00  0.00    +0.001 C 
BRANCH   7   8
ATOM      8  C   LIG    1        4.452   4.103   0.417  0.00  0.00    +0.003 C 
ATOM      9  C   LIG    1        3.811   5.246   0.718  0.00  0.00    -0.050 C 
ATOM     10  C   LIG    1        2.436   5.329   1.332  0.00  0.00    +0.044 C 
BRANCH   9  11
ATOM     11  C   LIG    1        4.454   6.526   0.471  0.00  0.00    +0.003 C 
ATOM     12  C   LIG    1        5.313   6.739  -0.539  0.00  0.00    +0.004 C 
BRANCH  12  13
ATOM     13  C   LIG    1        5.994   7.993  -0.793  0.00  0.00    -0.043 C 
ATOM     14  C   LIG    1        5.747   8.603  -2.189  0.00  0.00    -0.010 C 
ATOM     15  C   LIG    1        5.824   7.564  -3.336  0.00  0.00    +0.016 C 
ATOM     16  C   LIG    1        4.341   9.245  -2.221  0.00  0.00    +0.016 C 
ATOM     17  C   LIG    1        6.819   9.678  -2.498  0.00  0.00    +0.011 C 
ATOM     18  C   LIG    1        7.005  10.640  -1.335  0.00  0.00    +0.005 C 
ATOM     19  C   LIG    1        7.485   9.893  -0.098  0.00  0.00    +0.031 C 
ATOM     20  C   LIG    1        6.808   8.562   0.131  0.00  0.00    -0.069 C 
ATOM     21  C   LIG    1        7.163   7.952   1.469  0.00  0.00    +0.039 C 
ENDBRANCH  12  13
ENDBRANCH   9  11
ENDBRANCH   7   8
ENDBRANCH   4   6
ENDBRANCH   1   5
BRANCH   2  22
ATOM     22  C   LIG    1        1.888  -3.406  -2.779  0.00  0.00    +0.003 C 
ATOM     23  C   LIG    1        0.708  -3.863  -2.314  0.00  0.00    -0.050 C 
ATOM     24  C   LIG    1       -0.362  -3.029  -1.655  0.00  0.00    +0.044 C 
BRANCH  23  25
ATOM     25  C   LIG    1        0.365  -5.264  -2.484  0.00  0.00    +0.003 C 
ATOM     26  C   LIG    1        1.261  -6.254  -2.498  0.00  0.00    +0.001 C 
BRANCH  26  27
ATOM     27  C   LIG    1        0.887  -7.628  -2.683  0.00  0.00    +0.003 C 
ATOM     28  C   LIG    1        0.123  -8.335  -1.835  0.00  0.00    -0.050 C 
ATOM     29  C   LIG    1       -0.420  -7.867  -0.514  0.00  0.00    +0.044 C 
BRANCH  28  30
ATOM     30  C   LIG    1       -0.225  -9.697  -2.165  0.00  0.00    +0.003 C 
ATOM     31  C   LIG    1       -0.865 -10.023  -3.296  0.00  0.00    +0.004 C 
BRANCH  31  32
ATOM     32  C   LIG    1       -1.250 -11.382  -3.599  0.00  0.00    -0.043 C 
ATOM     33  C   LIG    1       -2.754 -11.640  -3.799  0.00  0.00    -0.010 C 
ATOM     34  C   LIG    1       -3.675 -10.634  -3.055  0.00  0.00    +0.016 C 
ATOM     35  C   LIG    1       -3.062 -11.491  -5.307  0.00  0.00    +0.016 C 
ATOM     36  C   LIG    1       -3.156 -13.062  -3.313  0.00  0.00    +0.011 C 
ATOM     37  C   LIG    1       -2.040 -14.106  -3.250  0.00  0.00    +0.005 C 
ATOM     38  C   LIG    1       -0.800 -13.764  -4.059  0.00  0.00    +0.031 C 
ATOM     39  C   LIG    1       -0.335 -12.364  -3.763  0.00  0.00    -0.069 C 
ATOM     40  C   LIG    1        1.164 -12.202  -3.702  0.00  0.00    +0.039 C 
ENDBRANCH  31  32
ENDBRANCH  28  30
ENDBRANCH  26  27
ENDBRANCH  23  25
ENDBRANCH   2  22
TORSDOF 10
