REMARK  Name = *****
REMARK                            x       y       z     vdW  Elec       q    Type
REMARK                         _______ _______ _______ _____ _____    ______ ____
ROOT
ATOM      1  C   LIG    1       22.909 -15.700  -4.580  0.00  0.00    +0.010 C 
ATOM      2  C   LIG    1       23.895 -14.907  -4.138  0.00  0.00    -0.046 C 
ATOM      3  C   LIG    1       23.867 -13.416  -3.907  0.00  0.00    +0.144 C 
ATOM      4  O   LIG    1       25.161 -13.110  -3.328  0.00  0.00    -0.369 OA
ATOM      5  C   LIG    1       26.066 -14.190  -3.624  0.00  0.00    +0.123 C 
ATOM      6  C   LIG    1       26.828 -13.951  -4.938  0.00  0.00    +0.037 C 
ATOM      7  C   LIG    1       27.671 -12.678  -4.856  0.00  0.00    +0.068 C 
ATOM      8  C   LIG    1       28.401 -12.314  -6.148  0.00  0.00    +0.174 C 
ATOM      9  O   LIG    1       29.245 -11.148  -5.836  0.00  0.00    -0.340 OA
ATOM     10  C   LIG    1       30.287 -11.035  -6.847  0.00  0.00    +0.182 C 
ATOM     11  C   LIG    1       30.320 -12.438  -7.476  0.00  0.00    +0.155 C 
ATOM     12  O   LIG    1       29.639 -12.336  -8.736  0.00  0.00    -0.365 OA
ATOM     13  C   LIG    1       28.988 -11.066  -8.752  0.00  0.00    +0.181 C 
ATOM     14  C   LIG    1       27.729 -10.890  -7.874  0.00  0.00    +0.184 C 
ATOM     15  C   LIG    1       26.928  -9.773  -8.536  0.00  0.00    +0.179 C 
ATOM     16  C   LIG    1       28.039  -8.604  -8.636  0.00  0.00    +0.150 C 
ATOM     17  C   LIG    1       27.526  -7.205  -8.301  0.00  0.00    +0.037 C 
ATOM     18  C   LIG    1       26.351  -7.211  -7.334  0.00  0.00    +0.034 C 
ATOM     19  C   LIG    1       25.255  -8.186  -7.753  0.00  0.00    +0.126 C 
ATOM     20  C   LIG    1       24.574  -7.899  -9.097  0.00  0.00    +0.106 C 
ATOM     21  C   LIG    1       23.374  -6.972  -8.950  0.00  0.00    +0.136 C 
ATOM     22  C   LIG    1       22.206  -7.214  -9.897  0.00  0.00    +0.083 C 
ATOM     23  C   LIG    1       20.797  -6.975  -9.339  0.00  0.00    +0.056 C 
ATOM     24  C   LIG    1       20.399  -7.635  -8.008  0.00  0.00    +0.128 C 
ATOM     25  C   LIG    1       21.250  -8.748  -7.382  0.00  0.00    +0.068 C 
ATOM     26  C   LIG    1       20.428 -10.045  -7.210  0.00  0.00    +0.147 C 
ATOM     27  C   LIG    1       19.972 -10.657  -8.528  0.00  0.00    -0.045 C 
ATOM     28  C   LIG    1       18.681 -10.613  -8.907  0.00  0.00    +0.010 C 
ATOM     29  C   LIG    1       21.078 -11.341  -9.305  0.00  0.00    +0.016 C 
ATOM     30  C   LIG    1       20.675 -11.995 -10.630  0.00  0.00    +0.012 C 
ATOM     31  C   LIG    1       21.701 -12.382  -8.377  0.00  0.00    +0.039 C 
ATOM     32  C   LIG    1       22.175 -11.748  -7.063  0.00  0.00    +0.120 C 
ATOM     33  C   LIG    1       22.585 -12.870  -6.093  0.00  0.00    +0.034 C 
ATOM     34  O   LIG    1       21.121 -11.021  -6.425  0.00  0.00    -0.369 OA
ATOM     35  O   LIG    1       20.196  -6.553  -7.074  0.00  0.00    -0.370 OA
ATOM     36  C   LIG    1       19.644  -5.462  -7.841  0.00  0.00    +0.150 C 
ATOM     37  C   LIG    1       20.440  -5.488  -9.155  0.00  0.00    +0.152 C 
ATOM     38  O   LIG    1       23.387  -6.016  -8.171  0.00  0.00    -0.297 OA
ATOM     39  O   LIG    1       29.246  -8.852  -7.795  0.00  0.00    -0.365 OA
ATOM     40  O   LIG    1       25.785  -9.511  -7.719  0.00  0.00    -0.368 OA
ATOM     41  C   LIG    1       29.919 -10.111  -8.064  0.00  0.00    +0.181 C 
ATOM     42  O   LIG    1       27.381 -12.082  -7.201  0.00  0.00    -0.340 OA
ATOM     43  C   LIG    1       29.449 -13.318  -6.600  0.00  0.00    +0.099 C 
ATOM     44  C   LIG    1       23.640 -12.438  -5.079  0.00  0.00    +0.038 C 
ATOM     45  C   LIG    1       25.206 -15.438  -3.664  0.00  0.00    +0.064 C 
ENDROOT
BRANCH  37  46
ATOM     46  O   LIG    1       19.718  -5.026 -10.298  0.00  0.00    -0.377 OA
ATOM     47  C   LIG    1       19.515  -3.617 -10.316  0.00  0.00    +0.194 C 
ENDBRANCH  37  46
BRANCH  36  48
ATOM     48  C   LIG    1       18.117  -5.639  -7.995  0.00  0.00    +0.066 C 
BRANCH  48  49
ATOM     49  C   LIG    1       17.373  -5.616  -6.650  0.00  0.00    +0.131 C 
BRANCH  49  50
ATOM     50  O   LIG    1       17.832  -6.668  -5.800  0.00  0.00    -0.391 OA
ATOM     51  H   LIG    1       18.811  -6.667  -5.832  0.00  0.00    +0.210 HD
ENDBRANCH  49  50
BRANCH  49  52
ATOM     52  C   LIG    1       15.848  -5.795  -6.827  0.00  0.00    +0.109 C 
BRANCH  52  53
ATOM     53  N   LIG    1       15.190  -4.800  -7.676  0.00  0.00    -0.328 NA
ATOM     54  H   LIG    1       15.503  -4.902  -8.639  0.00  0.00    +0.118 HD
ATOM     55  H   LIG    1       15.449  -3.862  -7.376  0.00  0.00    +0.118 HD
ENDBRANCH  52  53
ENDBRANCH  49  52
ENDBRANCH  48  49
ENDBRANCH  36  48
TORSDOF 6
