REMARK  Name = *****
REMARK                            x       y       z     vdW  Elec       q    Type
REMARK                         _______ _______ _______ _____ _____    ______ ____
ROOT
ATOM      1  C   LIG    1       12.205  16.282 -19.336  0.00  0.00    +0.147 C 
ENDROOT
BRANCH   1   2
ATOM      2  N   LIG    1       11.603  16.663 -18.036  0.00  0.00    -0.315 N 
ATOM      3  C   LIG    1       10.711  15.737 -17.337  0.00  0.00    +0.131 C 
BRANCH   2   8
ATOM      4  C   LIG    1        9.459  19.593 -17.628  0.00  0.00    +0.225 A 
ATOM      5  N   LIG    1       10.331  20.608 -17.638  0.00  0.00    -0.201 NA
ATOM      6  C   LIG    1       11.602  20.253 -17.889  0.00  0.00    +0.227 A 
ATOM      7  N   LIG    1       12.075  19.000 -18.051  0.00  0.00    -0.221 NA
ATOM      8  C   LIG    1       11.172  18.009 -18.033  0.00  0.00    +0.128 A 
ATOM      9  C   LIG    1        9.827  18.306 -17.946  0.00  0.00    +0.111 A 
BRANCH   4  10
ATOM     10  O   LIG    1        8.156  19.904 -17.254  0.00  0.00    -0.438 OA
BRANCH  10  14
ATOM     11  C   LIG    1        5.845  16.969 -15.351  0.00  0.00    +0.120 A 
ATOM     12  C   LIG    1        7.225  16.960 -15.178  0.00  0.00    +0.049 A 
ATOM     13  C   LIG    1        7.990  18.009 -15.694  0.00  0.00    +0.050 A 
ATOM     14  C   LIG    1        7.424  18.950 -16.566  0.00  0.00    +0.131 A 
ATOM     15  C   LIG    1        6.046  18.938 -16.763  0.00  0.00    +0.050 A 
ATOM     16  C   LIG    1        5.261  17.967 -16.136  0.00  0.00    +0.049 A 
BRANCH  11  18
ATOM     17  C   LIG    1        3.840  16.400 -14.285  0.00  0.00    +0.277 C 
ATOM     18  O   LIG    1        5.135  15.982 -14.719  0.00  0.00    -0.495 OA
ENDBRANCH  11  18
ENDBRANCH  10  14
ENDBRANCH   4  10
ENDBRANCH   2   8
ENDBRANCH   1   2
BRANCH   1  19
ATOM     19  C   LIG    1       12.104  14.792 -19.692  0.00  0.00    +0.248 C 
BRANCH  19  20
ATOM     20  O   LIG    1       12.676  14.520 -20.997  0.00  0.00    -0.490 OA
BRANCH  20  21
ATOM     21  C   LIG    1       12.607  13.206 -21.396  0.00  0.00    +0.121 A 
ATOM     22  C   LIG    1       12.003  12.232 -20.628  0.00  0.00    +0.046 A 
ATOM     23  C   LIG    1       11.970  10.912 -21.048  0.00  0.00    +0.007 A 
ATOM     24  C   LIG    1       12.546  10.471 -22.233  0.00  0.00    -0.046 A 
ATOM     25  C   LIG    1       13.165  11.451 -23.019  0.00  0.00    +0.007 A 
ATOM     26  C   LIG    1       13.168  12.811 -22.618  0.00  0.00    +0.046 A 
BRANCH  24  27
ATOM     27  C   LIG    1       12.575   9.000 -22.614  0.00  0.00    +0.059 C 
BRANCH  27  28
ATOM     28  C   LIG    1       11.366   8.139 -22.188  0.00  0.00    +0.146 C 
ATOM     29  C   LIG    1       11.220   7.862 -20.689  0.00  0.00    +0.234 C 
ATOM     30  O   LIG    1       10.567   8.524 -19.884  0.00  0.00    -0.274 OA
ATOM     31  N   LIG    1       11.830   6.735 -20.294  0.00  0.00    -0.246 N 
ATOM     32  H   LIG    1       11.720   6.446 -19.339  0.00  0.00    +0.158 HD
ATOM     33  C   LIG    1       11.863   5.745 -21.237  0.00  0.00    +0.279 C 
ATOM     34  O   LIG    1       11.960   4.575 -21.005  0.00  0.00    -0.263 OA
ATOM     35  S   LIG    1       11.597   6.423 -22.833  0.00  0.00    -0.054 S 
ENDBRANCH  27  28
ENDBRANCH  24  27
ENDBRANCH  20  21
ENDBRANCH  19  20
ENDBRANCH   1  19
TORSDOF 10
