REMARK  Name = *****
REMARK                            x       y       z     vdW  Elec       q    Type
REMARK                         _______ _______ _______ _____ _____    ______ ____
ROOT
ATOM      1  C   LIG    1       10.196   0.612   0.235  0.00  0.00    +0.051 C 
ATOM      2  C   LIG    1        9.156  -0.512   0.461  0.00  0.00    +0.065 C 
ATOM      3  C   LIG    1        8.996  -1.050  -0.949  0.00  0.00    +0.140 C 
ATOM      4  O   LIG    1        8.500  -2.141  -1.215  0.00  0.00    -0.297 OA
ATOM      5  C   LIG    1        9.540  -0.131  -2.006  0.00  0.00    +0.106 C 
ATOM      6  C   LIG    1        9.918   1.106  -1.200  0.00  0.00    +0.129 C 
ENDROOT
BRANCH   6   7
ATOM      7  O   LIG    1        8.838   2.037  -1.180  0.00  0.00    -0.391 OA
ATOM      8  H   LIG    1        8.527   2.173  -2.092  0.00  0.00    +0.210 HD
ENDBRANCH   6   7
BRANCH   1  10
ATOM      9  C   LIG    1       12.546   0.589   1.191  0.00  0.00    -0.000 C 
ATOM     10  C   LIG    1       11.619   0.096   0.350  0.00  0.00    -0.022 C 
BRANCH   9  11
ATOM     11  C   LIG    1       13.989   0.147   1.282  0.00  0.00    +0.137 C 
BRANCH  11  12
ATOM     12  O   LIG    1       14.068  -0.884   2.257  0.00  0.00    -0.388 OA
ATOM     13  H   LIG    1       13.667  -0.543   3.074  0.00  0.00    +0.210 HD
ENDBRANCH  11  12
BRANCH  11  14
ATOM     14  C   LIG    1       14.584  -0.345  -0.046  0.00  0.00    +0.035 C 
BRANCH  14  15
ATOM     15  C   LIG    1       16.053  -0.768   0.064  0.00  0.00    +0.003 C 
BRANCH  15  16
ATOM     16  C   LIG    1       16.585  -1.238  -1.295  0.00  0.00    -0.000 C 
BRANCH  16  18
ATOM     17  C   LIG    1       18.579  -2.147  -2.555  0.00  0.00    +0.004 C 
ATOM     18  C   LIG    1       18.042  -1.693  -1.205  0.00  0.00    -0.003 C 
ENDBRANCH  16  18
ENDBRANCH  15  16
ENDBRANCH  14  15
ENDBRANCH  11  14
ENDBRANCH   9  11
ENDBRANCH   1  10
BRANCH   2  19
ATOM     19  C   LIG    1        7.818  -0.006   1.032  0.00  0.00    +0.011 C 
BRANCH  19  20
ATOM     20  C   LIG    1        6.761  -1.114   1.111  0.00  0.00    +0.001 C 
BRANCH  20  21
ATOM     21  C   LIG    1        5.437  -0.634   1.712  0.00  0.00    +0.000 C 
BRANCH  21  22
ATOM     22  C   LIG    1        4.377  -1.747   1.777  0.00  0.00    +0.000 C 
BRANCH  22  23
ATOM     23  C   LIG    1        4.808  -2.921   2.664  0.00  0.00    +0.011 C 
BRANCH  23  24
ATOM     24  C   LIG    1        3.752  -4.023   2.735  0.00  0.00    +0.120 C 
BRANCH  24  25
ATOM     25  C   LIG    1        4.167  -5.164   3.639  0.00  0.00    +0.305 C 
ATOM     26  O   LIG    1        3.543  -5.501   4.625  0.00  0.00    -0.251 OA
BRANCH  25  27
ATOM     27  O   LIG    1        5.278  -5.824   3.231  0.00  0.00    -0.481 OA
ATOM     28  H   LIG    1        5.680  -5.491   2.410  0.00  0.00    +0.295 HD
ENDBRANCH  25  27
ENDBRANCH  24  25
ENDBRANCH  23  24
ENDBRANCH  22  23
ENDBRANCH  21  22
ENDBRANCH  20  21
ENDBRANCH  19  20
ENDBRANCH   2  19
TORSDOF 16
