REMARK  Name = *****
REMARK                            x       y       z     vdW  Elec       q    Type
REMARK                         _______ _______ _______ _____ _____    ______ ____
ROOT
ATOM      1  C   LIG    1        6.171   1.347   1.165  0.00  0.00    +0.035 C 
ENDROOT
BRANCH   1   2
ATOM      2  C   LIG    1        7.580   1.191   0.642  0.00  0.00    -0.047 A 
ATOM      3  C   LIG    1        7.861   1.437  -0.709  0.00  0.00    +0.003 A 
ATOM      4  C   LIG    1        9.161   1.317  -1.198  0.00  0.00    +0.000 A 
ATOM      5  C   LIG    1       10.198   0.958  -0.340  0.00  0.00    +0.000 A 
ATOM      6  C   LIG    1        9.932   0.711   1.005  0.00  0.00    +0.000 A 
ATOM      7  C   LIG    1        8.629   0.825   1.496  0.00  0.00    +0.003 A 
ENDBRANCH   1   2
BRANCH   1   8
ATOM      8  C   LIG    1        5.152   0.423   0.480  0.00  0.00    +0.016 C 
BRANCH   8   9
ATOM      9  C   LIG    1        5.454  -1.072   0.642  0.00  0.00    +0.121 C 
BRANCH   9  11
ATOM     10  O   LIG    1        4.663  -1.045   2.926  0.00  0.00    -0.251 OA
ATOM     11  C   LIG    1        5.409  -1.522   2.079  0.00  0.00    +0.305 C 
BRANCH  11  12
ATOM     12  O   LIG    1        6.243  -2.543   2.363  0.00  0.00    -0.481 OA
ATOM     13  H   LIG    1        6.807  -2.829   1.619  0.00  0.00    +0.295 HD
ENDBRANCH  11  12
ENDBRANCH   9  11
ENDBRANCH   8   9
ENDBRANCH   1   8
TORSDOF 5
