REMARK  Name = *****
REMARK                            x       y       z     vdW  Elec       q    Type
REMARK                         _______ _______ _______ _____ _____    ______ ____
ROOT
ATOM      1  C   LIG    1        4.684  -3.104  -0.597  0.00  0.00    +0.198 A 
ATOM      2  N   LIG    1        4.866  -1.999  -1.403  0.00  0.00    -0.331 N 
ATOM      3  H   LIG    1        4.191  -1.617  -2.038  0.00  0.00    +0.168 HD
ATOM      4  C   LIG    1        6.071  -1.425  -1.073  0.00  0.00    +0.070 A 
ATOM      5  C   LIG    1        6.592  -2.272  -0.103  0.00  0.00    +0.090 A 
ATOM      6  C   LIG    1        7.848  -2.006   0.447  0.00  0.00    +0.033 A 
ATOM      7  C   LIG    1        8.545  -0.875   0.007  0.00  0.00    +0.048 A 
ATOM      8  C   LIG    1        8.008  -0.025  -0.963  0.00  0.00    +0.129 A 
ATOM      9  C   LIG    1        6.738  -0.278  -1.516  0.00  0.00    +0.073 A 
ATOM     10  N   LIG    1        5.725  -3.293   0.182  0.00  0.00    -0.220 NA
ENDROOT
BRANCH   1  11
ATOM     11  S   LIG    1        3.315  -4.181  -0.631  0.00  0.00    +0.096 S 
ATOM     12  O   LIG    1        3.216  -4.872   0.696  0.00  0.00    -0.249 OA
BRANCH  11  13
ATOM     13  C   LIG    1        1.924  -3.093  -0.968  0.00  0.00    +0.171 C 
BRANCH  13  16
ATOM     14  C   LIG    1        0.994  -1.060   2.116  0.00  0.00    +0.165 A 
ATOM     15  C   LIG    1        1.010  -2.129   1.200  0.00  0.00    +0.184 A 
ATOM     16  C   LIG    1        1.744  -1.966   0.013  0.00  0.00    +0.099 A 
ATOM     17  N   LIG    1        2.385  -0.809  -0.317  0.00  0.00    -0.255 NA
ATOM     18  C   LIG    1        2.367   0.178   0.598  0.00  0.00    +0.115 A 
ATOM     19  C   LIG    1        1.720   0.092   1.818  0.00  0.00    +0.069 A 
BRANCH  14  21
ATOM     20  C   LIG    1        0.255  -0.175   4.233  0.00  0.00    +0.277 C 
ATOM     21  O   LIG    1        0.229  -1.191   3.242  0.00  0.00    -0.491 OA
ENDBRANCH  14  21
BRANCH  15  22
ATOM     22  O   LIG    1        0.320  -3.309   1.317  0.00  0.00    -0.490 OA
ATOM     23  C   LIG    1        0.062  -3.780   2.636  0.00  0.00    +0.277 C 
ENDBRANCH  15  22
ENDBRANCH  13  16
ENDBRANCH  11  13
ENDBRANCH   1  11
BRANCH   8  24
ATOM     24  O   LIG    1        8.636   1.087  -1.467  0.00  0.00    -0.434 OA
BRANCH  24  25
ATOM     25  C   LIG    1        9.947   1.335  -0.981  0.00  0.00    +0.541 C 
ATOM     26  F   LIG    1       10.430   2.422  -1.634  0.00  0.00    -0.166 F 
ATOM     27  F   LIG    1       10.758   0.299  -1.311  0.00  0.00    -0.166 F 
ENDBRANCH  24  25
ENDBRANCH   8  24
TORSDOF 7
