REMARK  Name = *****
REMARK                            x       y       z     vdW  Elec       q    Type
REMARK                         _______ _______ _______ _____ _____    ______ ____
ROOT
ATOM      1  C   LIG    1        2.221   3.437  -1.289  0.00  0.00    +0.044 C 
ATOM      2  C   LIG    1        3.084   2.592  -2.201  0.00  0.00    -0.050 C 
ATOM      3  C   LIG    1        3.095   2.883  -3.519  0.00  0.00    +0.003 C 
ENDROOT
BRANCH   3   4
ATOM      4  C   LIG    1        3.855   2.255  -4.578  0.00  0.00    +0.001 C 
ATOM      5  C   LIG    1        3.871   2.607  -5.874  0.00  0.00    +0.003 C 
BRANCH   5   6
ATOM      6  C   LIG    1        3.194   3.724  -6.518  0.00  0.00    -0.052 C 
ATOM      7  C   LIG    1        2.463   3.548  -7.634  0.00  0.00    +0.004 C 
ATOM      8  C   LIG    1        3.453   5.109  -5.974  0.00  0.00    +0.043 C 
BRANCH   7   9
ATOM      9  C   LIG    1        2.145   2.256  -8.318  0.00  0.00    +0.183 C 
BRANCH   9  10
ATOM     10  O   LIG    1        3.068   2.049  -9.374  0.00  0.00    -0.391 OA
ATOM     11  H   LIG    1        3.070   2.853  -9.919  0.00  0.00    +0.210 HD
ENDBRANCH   9  10
ENDBRANCH   7   9
ENDBRANCH   5   6
ENDBRANCH   3   4
BRANCH   2  12
ATOM     12  C   LIG    1        3.856   1.509  -1.603  0.00  0.00    +0.003 C 
ATOM     13  C   LIG    1        3.909   1.198  -0.296  0.00  0.00    +0.004 C 
BRANCH  13  14
ATOM     14  C   LIG    1        4.697   0.091   0.246  0.00  0.00    -0.043 C 
ATOM     15  C   LIG    1        3.902  -1.002   1.002  0.00  0.00    -0.010 C 
ATOM     16  C   LIG    1        2.887  -0.424   2.017  0.00  0.00    +0.016 C 
ATOM     17  C   LIG    1        3.126  -1.867  -0.018  0.00  0.00    +0.016 C 
ATOM     18  C   LIG    1        4.854  -1.913   1.824  0.00  0.00    +0.011 C 
ATOM     19  C   LIG    1        6.072  -2.338   1.025  0.00  0.00    +0.005 C 
ATOM     20  C   LIG    1        6.878  -1.115   0.616  0.00  0.00    +0.031 C 
ATOM     21  C   LIG    1        6.046   0.041   0.106  0.00  0.00    -0.069 C 
ATOM     22  C   LIG    1        6.878   1.130  -0.531  0.00  0.00    +0.039 C 
ENDBRANCH  13  14
ENDBRANCH   2  12
TORSDOF 6
