REMARK  Name = *****
REMARK                            x       y       z     vdW  Elec       q    Type
REMARK                         _______ _______ _______ _____ _____    ______ ____
ROOT
ATOM      1  N   LIG    1        3.606  -4.841   0.154  0.00  0.00    -0.312 NA
ATOM      2  H   LIG    1        2.812  -5.011  -0.466  0.00  0.00    +0.122 HD
ENDROOT
BRANCH   1   3
ATOM      3  C   LIG    1        3.973  -3.426   0.034  0.00  0.00    +0.086 C 
BRANCH   3   4
ATOM      4  C   LIG    1        2.839  -2.481   0.461  0.00  0.00    +0.052 C 
BRANCH   4   7
ATOM      5  C   LIG    1        2.253  -0.754  -2.213  0.00  0.00    +0.063 C 
ATOM      6  C   LIG    1        1.393  -1.765  -1.544  0.00  0.00    +0.017 C 
ATOM      7  C   LIG    1        1.615  -2.535  -0.411  0.00  0.00    -0.018 C 
ATOM      8  C   LIG    1        0.451  -3.361  -0.230  0.00  0.00    +0.003 C 
ATOM      9  C   LIG    1       -0.445  -3.044  -1.251  0.00  0.00    +0.047 C 
ATOM     10  C   LIG    1       -1.699  -3.654  -1.385  0.00  0.00    +0.026 C 
ATOM     11  C   LIG    1       -2.047  -4.638  -0.457  0.00  0.00    +0.002 C 
ATOM     12  C   LIG    1       -1.176  -4.985   0.572  0.00  0.00    +0.001 C 
ATOM     13  C   LIG    1        0.068  -4.350   0.703  0.00  0.00    +0.010 C 
ATOM     14  N   LIG    1        0.145  -2.072  -2.021  0.00  0.00    -0.358 NA
ATOM     15  H   LIG    1       -0.289  -1.650  -2.829  0.00  0.00    +0.166 HD
ENDBRANCH   4   7
ENDBRANCH   3   4
ENDBRANCH   1   3
BRANCH   1  16
ATOM     16  C   LIG    1        4.714  -5.705  -0.250  0.00  0.00    +0.116 C 
BRANCH  16  17
ATOM     17  C   LIG    1        4.329  -7.168  -0.231  0.00  0.00    -0.034 C 
ATOM     18  C   LIG    1        5.008  -8.069   0.601  0.00  0.00    +0.005 C 
ATOM     19  C   LIG    1        4.712  -9.436   0.570  0.00  0.00    +0.008 C 
ATOM     20  C   LIG    1        3.744  -9.932  -0.308  0.00  0.00    -0.025 C 
ATOM     21  C   LIG    1        3.042  -9.036  -1.121  0.00  0.00    +0.008 C 
ATOM     22  C   LIG    1        3.328  -7.665  -1.079  0.00  0.00    +0.005 C 
BRANCH  20  23
ATOM     23  C   LIG    1        3.429 -11.364  -0.329  0.00  0.00    +0.013 C 
ATOM     24  C   LIG    1        3.993 -12.337  -1.065  0.00  0.00    +0.070 C 
BRANCH  24  25
ATOM     25  C   LIG    1        5.127 -12.205  -2.010  0.00  0.00    +0.259 C 
ATOM     26  N   LIG    1        5.111 -13.173  -2.996  0.00  0.00    -0.194 N 
ATOM     27  H   LIG    1        4.387 -13.858  -3.143  0.00  0.00    +0.182 HD
ATOM     28  O   LIG    1        6.012 -11.369  -1.931  0.00  0.00    -0.269 OA
BRANCH  26  29
ATOM     29  O   LIG    1        6.171 -13.138  -3.925  0.00  0.00    -0.295 OA
ATOM     30  H   LIG    1        6.710 -12.384  -3.601  0.00  0.00    +0.241 HD
ENDBRANCH  26  29
ENDBRANCH  24  25
ENDBRANCH  20  23
ENDBRANCH  16  17
ENDBRANCH   1  16
TORSDOF 8
