REMARK  Name = *****
REMARK                            x       y       z     vdW  Elec       q    Type
REMARK                         _______ _______ _______ _____ _____    ______ ____
ROOT
ATOM      1  C   LIG    1        0.365   0.362   0.509  0.00  0.00    +0.045 C 
ATOM      2  C   LIG    1        1.853   0.104   0.537  0.00  0.00    -0.031 A 
ATOM      3  C   LIG    1        2.368  -1.231   0.627  0.00  0.00    -0.014 A 
ATOM      4  C   LIG    1        3.761  -1.372   0.851  0.00  0.00    +0.009 A 
ATOM      5  C   LIG    1        4.621  -0.285   0.968  0.00  0.00    +0.001 A 
ATOM      6  C   LIG    1        4.124   0.993   0.791  0.00  0.00    +0.013 A 
ATOM      7  C   LIG    1        2.757   1.204   0.545  0.00  0.00    +0.041 A 
ENDROOT
BRANCH   3   8
ATOM      8  C   LIG    1        1.541  -2.481   0.525  0.00  0.00    -0.017 A 
ATOM      9  C   LIG    1        1.887  -3.652   1.231  0.00  0.00    +0.012 A 
ATOM     10  C   LIG    1        1.145  -4.842   1.137  0.00  0.00    +0.046 A 
ATOM     11  C   LIG    1       -0.020  -4.879   0.385  0.00  0.00    +0.130 A 
ATOM     12  C   LIG    1       -0.365  -3.752  -0.356  0.00  0.00    +0.046 A 
ATOM     13  C   LIG    1        0.418  -2.590  -0.310  0.00  0.00    +0.012 A 
BRANCH  11  14
ATOM     14  O   LIG    1       -0.843  -5.947   0.222  0.00  0.00    -0.406 OA
BRANCH  14  15
ATOM     15  C   LIG    1       -1.018  -6.880   1.280  0.00  0.00    +0.575 C 
ATOM     16  F   LIG    1       -0.621  -8.101   0.859  0.00  0.00    -0.133 F 
ATOM     17  F   LIG    1       -2.334  -6.948   1.580  0.00  0.00    -0.133 F 
ATOM     18  F   LIG    1       -0.352  -6.578   2.413  0.00  0.00    -0.133 F 
ENDBRANCH  14  15
ENDBRANCH  11  14
ENDBRANCH   3   8
BRANCH   7  19
ATOM     19  C   LIG    1        2.384   2.646   0.362  0.00  0.00    +0.249 C 
ATOM     20  N   LIG    1        1.396   2.933  -0.563  0.00  0.00    -0.280 N 
ATOM     21  H   LIG    1        0.984   2.161  -1.067  0.00  0.00    +0.155 HD
ATOM     22  O   LIG    1        3.024   3.473   1.005  0.00  0.00    -0.270 OA
BRANCH  20  23
ATOM     23  C   LIG    1        0.935   4.223  -0.921  0.00  0.00    +0.052 A 
ATOM     24  C   LIG    1       -0.122   4.359  -1.815  0.00  0.00    +0.136 A 
ATOM     25  N   LIG    1       -0.619   5.543  -2.262  0.00  0.00    -0.238 NA
ATOM     26  C   LIG    1       -0.032   6.671  -1.834  0.00  0.00    +0.121 A 
ATOM     27  C   LIG    1        1.019   6.630  -0.919  0.00  0.00    +0.045 A 
ATOM     28  C   LIG    1        1.490   5.400  -0.448  0.00  0.00    +0.028 A 
BRANCH  26  29
ATOM     29  N   LIG    1       -0.495   7.928  -2.228  0.00  0.00    -0.310 N 
ATOM     30  C   LIG    1        0.418   8.691  -3.105  0.00  0.00    +0.137 C 
ATOM     31  C   LIG    1        0.157   8.400  -4.602  0.00  0.00    +0.133 C 
ATOM     32  C   LIG    1        0.969   9.345  -5.484  0.00  0.00    +0.039 C 
ATOM     33  O   LIG    1       -1.230   8.598  -4.938  0.00  0.00    -0.371 OA
ATOM     34  C   LIG    1       -2.064   7.715  -4.163  0.00  0.00    +0.133 C 
ATOM     35  C   LIG    1       -3.507   7.961  -4.582  0.00  0.00    +0.039 C 
ATOM     36  C   LIG    1       -1.899   7.993  -2.658  0.00  0.00    +0.137 C 
ENDBRANCH  26  29
ENDBRANCH  20  23
ENDBRANCH   7  19
TORSDOF 6
