REMARK  Name = *****
REMARK                            x       y       z     vdW  Elec       q    Type
REMARK                         _______ _______ _______ _____ _____    ______ ____
ROOT
ATOM      1  CA  LIG    1       -5.667   2.160   0.875  0.00  0.00    +0.191 C 
ATOM      2  C   LIG    1       -6.297   2.820  -0.391  0.00  0.00    +0.169 C 
ATOM      3  N   LIG    1       -6.030   4.100   0.220  0.00  0.00    -0.249 N 
ATOM      4  CA  LIG    1       -6.520   5.306  -0.200  0.00  0.00    +0.125 C 
ATOM      5  C   LIG    1       -7.547   5.360  -1.085  0.00  0.00    +0.006 C 
ATOM      6  C   LIG    1       -8.256   4.133  -1.629  0.00  0.00    +0.107 C 
ATOM      7  S   LIG    1       -8.082   2.636  -0.614  0.00  0.00    -0.131 S 
ATOM      8  C   LIG    1       -5.545   3.632   1.392  0.00  0.00    +0.244 C 
ATOM      9  O   LIG    1       -5.271   4.179   2.444  0.00  0.00    -0.273 OA
ENDROOT
BRANCH   1  11
ATOM     10  C   LIG    1       -5.907   0.483   2.718  0.00  0.00    +0.268 C 
ATOM     11  N   LIG    1       -6.492   1.212   1.693  0.00  0.00    -0.296 N 
ATOM     12  H   LIG    1       -7.440   0.955   1.421  0.00  0.00    +0.150 HD
ATOM     13  O   LIG    1       -4.726   0.580   3.022  0.00  0.00    -0.268 OA
BRANCH  10  15
ATOM     14  N   LIG    1       -7.831  -0.982   2.757  0.00  0.00    -0.078 NA
ATOM     15  C   LIG    1       -6.812  -0.528   3.444  0.00  0.00    +0.190 C 
BRANCH  15  16
ATOM     16  C   LIG    1       -6.474  -0.960   4.813  0.00  0.00    +0.107 A 
ATOM     17  N   LIG    1       -6.710  -2.268   5.253  0.00  0.00    -0.223 NA
ATOM     18  C   LIG    1       -6.313  -2.433   6.487  0.00  0.00    +0.156 A 
ATOM     19  S   LIG    1       -5.631  -1.046   7.225  0.00  0.00    -0.060 S 
ATOM     20  C   LIG    1       -5.868  -0.164   5.771  0.00  0.00    +0.078 A 
BRANCH  18  21
ATOM     21  N   LIG    1       -6.442  -3.598   7.141  0.00  0.00    -0.338 N 
ATOM     22  H   LIG    1       -7.085  -4.260   6.722  0.00  0.00    +0.144 HD
ATOM     23  H   LIG    1       -6.453  -3.584   8.152  0.00  0.00    +0.144 HD
ENDBRANCH  18  21
ENDBRANCH  15  16
BRANCH  14  25
ATOM     24  C   LIG    1       -9.222  -2.829   2.666  0.00  0.00    +0.313 C 
ATOM     25  O   LIG    1       -8.625  -1.861   3.516  0.00  0.00    -0.396 OA
ENDBRANCH  14  25
ENDBRANCH  10  15
ENDBRANCH   1  11
BRANCH   4  26
ATOM     26  C   LIG    1       -5.858   6.549   0.325  0.00  0.00    +0.351 C 
ATOM     27  O   LIG    1       -6.347   7.660   0.432  0.00  0.00    -0.244 OA
BRANCH  26  28
ATOM     28  OXT LIG    1       -4.568   6.334   0.646  0.00  0.00    -0.476 OA
ATOM     29  HXT LIG    1       -4.266   7.197   0.997  0.00  0.00    +0.295 HD
ENDBRANCH  26  28
ENDBRANCH   4  26
BRANCH   5  30
ATOM     30  C   LIG    1       -8.136   6.638  -1.660  0.00  0.00    +0.266 C 
BRANCH  30  31
ATOM     31  O   LIG    1       -7.986   6.612  -3.087  0.00  0.00    -0.460 OA
BRANCH  31  32
ATOM     32  C   LIG    1       -6.749   6.964  -3.532  0.00  0.00    +0.304 C 
ATOM     33  O   LIG    1       -5.824   7.364  -2.841  0.00  0.00    -0.251 OA
ATOM     34  C   LIG    1       -6.666   6.754  -5.009  0.00  0.00    +0.136 C 
ENDBRANCH  31  32
ENDBRANCH  30  31
ENDBRANCH   5  30
TORSDOF 10
