REMARK  Name = *****
REMARK                            x       y       z     vdW  Elec       q    Type
REMARK                         _______ _______ _______ _____ _____    ______ ____
ROOT
ATOM      1  C   LIG    1        2.782   2.217  -4.438  0.00  0.00    +0.267 C 
ENDROOT
BRANCH   1   2
ATOM      2  C   LIG    1        3.259   2.249  -5.869  0.00  0.00    -0.007 A 
ATOM      3  C   LIG    1        2.386   1.921  -6.912  0.00  0.00    +0.053 A 
ATOM      4  C   LIG    1        2.821   1.927  -8.242  0.00  0.00    +0.129 A 
ATOM      5  C   LIG    1        4.131   2.301  -8.537  0.00  0.00    +0.046 A 
ATOM      6  C   LIG    1        5.022   2.595  -7.502  0.00  0.00    +0.004 A 
ATOM      7  C   LIG    1        4.589   2.569  -6.175  0.00  0.00    +0.007 A 
BRANCH   4   8
ATOM      8  O   LIG    1        1.841   1.642  -9.159  0.00  0.00    -0.456 OA
BRANCH   8   9
ATOM      9  C   LIG    1        2.133   1.101 -10.387  0.00  0.00    +0.128 A 
ATOM     10  C   LIG    1        1.233   1.436 -11.404  0.00  0.00    +0.046 A 
ATOM     11  C   LIG    1        1.386   0.910 -12.686  0.00  0.00    +0.004 A 
ATOM     12  C   LIG    1        2.440   0.040 -12.956  0.00  0.00    +0.000 A 
ATOM     13  C   LIG    1        3.325  -0.321 -11.938  0.00  0.00    +0.004 A 
ATOM     14  C   LIG    1        3.159   0.192 -10.648  0.00  0.00    +0.046 A 
ENDBRANCH   8   9
ENDBRANCH   4   8
ENDBRANCH   1   2
BRANCH   1  15
ATOM     15  O   LIG    1        3.598   1.290  -3.721  0.00  0.00    -0.460 OA
BRANCH  15  16
ATOM     16  C   LIG    1        3.210  -0.006  -3.817  0.00  0.00    +0.312 C 
ATOM     17  O   LIG    1        2.110  -0.418  -4.153  0.00  0.00    -0.251 OA
BRANCH  16  21
ATOM     18  C   LIG    1        3.083  -2.269  -1.683  0.00  0.00    +0.012 C 
ATOM     19  C   LIG    1        4.348  -1.947  -2.445  0.00  0.00    -0.014 C 
ATOM     20  C   LIG    1        4.356  -2.352  -3.914  0.00  0.00    +0.035 C 
ATOM     21  C   LIG    1        4.364  -0.892  -3.535  0.00  0.00    +0.111 C 
ATOM     22  C   LIG    1        5.586  -1.988  -1.582  0.00  0.00    +0.012 C 
BRANCH  20  23
ATOM     23  C   LIG    1        5.556  -2.933  -4.539  0.00  0.00    +0.010 C 
ATOM     24  C   LIG    1        5.847  -2.996  -5.849  0.00  0.00    +0.103 C 
ATOM     25 CL   LIG    1        7.312  -3.741  -6.377  0.00  0.00    -0.071 Cl
ATOM     26 CL   LIG    1        4.794  -2.356  -7.058  0.00  0.00    -0.071 Cl
ENDBRANCH  20  23
ENDBRANCH  16  21
ENDBRANCH  15  16
ENDBRANCH   1  15
TORSDOF 7
