REMARK  Name = *****
REMARK                            x       y       z     vdW  Elec       q    Type
REMARK                         _______ _______ _______ _____ _____    ______ ____
ROOT
ATOM      1  C   LIG    1        0.943   0.130   0.065  0.00  0.00    +0.151 C 
ATOM      2  N   LIG    1        2.384   0.066   0.067  0.00  0.00    -0.330 N 
ATOM      3  C   LIG    1        3.177  -1.102   0.069  0.00  0.00    +0.158 C 
ATOM      4  S   LIG    1        2.734  -2.694   0.065  0.00  0.00    -0.013 S 
ATOM      5  N   LIG    1        4.501  -0.632   0.076  0.00  0.00    -0.340 N 
ATOM      6  H   LIG    1        5.315  -1.229   0.081  0.00  0.00    +0.167 HD
ATOM      7  C   LIG    1        4.494   0.740   0.078  0.00  0.00    +0.102 C 
ATOM      8  C   LIG    1        3.223   1.163   0.072  0.00  0.00    +0.105 C 
ENDROOT
TORSDOF 0
