REMARK  Name = *****
REMARK                            x       y       z     vdW  Elec       q    Type
REMARK                         _______ _______ _______ _____ _____    ______ ____
ROOT
ATOM      1  C   LIG    1       13.434  -4.552  -6.994  0.00  0.00    -0.009 C 
ATOM      2  C   LIG    1       12.857  -5.750  -7.729  0.00  0.00    +0.108 C 
ATOM      3  S   LIG    1       11.345  -6.373  -6.945  0.00  0.00    -0.131 S 
ATOM      4  C   LIG    1       12.163  -6.584  -5.346  0.00  0.00    +0.169 C 
ATOM      5  N   LIG    1       12.666  -5.296  -4.881  0.00  0.00    -0.249 N 
ATOM      6  C   LIG    1       11.952  -5.275  -3.740  0.00  0.00    +0.244 C 
ATOM      7  O   LIG    1       11.822  -4.398  -2.900  0.00  0.00    -0.273 OA
ATOM      8  CA  LIG    1       11.249  -6.602  -4.085  0.00  0.00    +0.191 C 
ATOM      9  CA  LIG    1       13.319  -4.359  -5.649  0.00  0.00    +0.126 C 
ENDROOT
BRANCH   8  10
ATOM     10  N   LIG    1        9.770  -6.529  -4.285  0.00  0.00    -0.300 N 
ATOM     11  H   LIG    1        9.297  -5.669  -4.555  0.00  0.00    +0.150 HD
ATOM     12  C   LIG    1        8.972  -7.629  -4.035  0.00  0.00    +0.235 C 
ATOM     13  O   LIG    1        9.470  -8.673  -3.618  0.00  0.00    -0.274 OA
BRANCH  12  14
ATOM     14  CA  LIG    1        7.462  -7.434  -4.371  0.00  0.00    +0.168 C 
BRANCH  14  15
ATOM     15  C   LIG    1        6.564  -8.608  -4.008  0.00  0.00    -0.022 A 
ATOM     16  C   LIG    1        6.752  -9.359  -2.836  0.00  0.00    +0.009 A 
ATOM     17  C   LIG    1        5.941 -10.457  -2.547  0.00  0.00    +0.045 A 
ATOM     18  C   LIG    1        4.903 -10.791  -3.404  0.00  0.00    +0.117 A 
ATOM     19  C   LIG    1        4.659 -10.040  -4.548  0.00  0.00    +0.045 A 
ATOM     20  C   LIG    1        5.487  -8.951  -4.847  0.00  0.00    +0.009 A 
BRANCH  18  21
ATOM     21  O   LIG    1        4.137 -11.871  -3.079  0.00  0.00    -0.507 OA
ATOM     22  H   LIG    1        3.458 -11.989  -3.762  0.00  0.00    +0.292 HD
ENDBRANCH  18  21
ENDBRANCH  14  15
BRANCH  14  23
ATOM     23  N   LIG    1        6.972  -6.185  -3.746  0.00  0.00    -0.316 NA
ATOM     24  H1  LIG    1        5.960  -6.147  -3.885  0.00  0.00    +0.119 HD
ATOM     25  H2  LIG    1        7.083  -6.277  -2.734  0.00  0.00    +0.119 HD
ENDBRANCH  14  23
ENDBRANCH  12  14
ENDBRANCH   8  10
BRANCH   1  28
ATOM     26  C   LIG    1       15.711  -2.845  -9.615  0.00  0.00    +0.035 C 
ATOM     27  C   LIG    1       15.078  -3.855  -8.711  0.00  0.00    -0.030 C 
ATOM     28  C   LIG    1       14.030  -3.587  -7.917  0.00  0.00    +0.002 C 
ENDBRANCH   1  28
BRANCH   9  29
ATOM     29  C   LIG    1       13.928  -3.122  -5.002  0.00  0.00    +0.352 C 
ATOM     30  O   LIG    1       14.799  -2.437  -5.520  0.00  0.00    -0.244 OA
BRANCH  29  31
ATOM     31  OXT LIG    1       13.497  -2.802  -3.767  0.00  0.00    -0.476 OA
ATOM     32  HXT LIG    1       12.653  -3.205  -3.468  0.00  0.00    +0.295 HD
ENDBRANCH  29  31
ENDBRANCH   9  29
TORSDOF 8
