REMARK  Name = *****
REMARK                            x       y       z     vdW  Elec       q    Type
REMARK                         _______ _______ _______ _____ _____    ______ ____
ROOT
ATOM      1  C   LIG    1       11.140   3.556  -3.509  0.00  0.00    +0.087 C 
ATOM      2  N   LIG    1       10.069   3.508  -2.806  0.00  0.00    -0.089 NA
ENDROOT
BRANCH   1   3
ATOM      3  C   LIG    1       12.109   4.668  -3.112  0.00  0.00    -0.001 A 
ATOM      4  C   LIG    1       12.044   5.150  -1.789  0.00  0.00    +0.010 A 
ATOM      5  C   LIG    1       12.823   6.239  -1.373  0.00  0.00    +0.013 A 
ATOM      6  C   LIG    1       13.565   6.967  -2.304  0.00  0.00    +0.055 A 
ATOM      7  C   LIG    1       13.647   6.484  -3.623  0.00  0.00    +0.013 A 
ATOM      8  C   LIG    1       12.950   5.319  -4.013  0.00  0.00    +0.010 A 
BRANCH   6   9
ATOM      9  C   LIG    1       14.137   8.300  -1.871  0.00  0.00    +0.417 C 
ATOM     10  F   LIG    1       15.111   8.186  -0.927  0.00  0.00    -0.166 F 
ATOM     11  F   LIG    1       13.177   9.095  -1.313  0.00  0.00    -0.166 F 
ATOM     12  F   LIG    1       14.673   9.031  -2.886  0.00  0.00    -0.166 F 
ENDBRANCH   6   9
ENDBRANCH   1   3
BRANCH   1  13
ATOM     13  C   LIG    1       11.518   2.646  -4.720  0.00  0.00    +0.059 C 
BRANCH  13  14
ATOM     14  C   LIG    1       10.561   1.477  -5.032  0.00  0.00    +0.009 C 
BRANCH  14  15
ATOM     15  C   LIG    1       10.943   0.500  -6.146  0.00  0.00    +0.028 C 
BRANCH  15  16
ATOM     16  C   LIG    1        9.865  -0.572  -6.445  0.00  0.00    +0.159 C 
BRANCH  16  18
ATOM     17  C   LIG    1        8.665  -1.022  -4.397  0.00  0.00    +0.193 C 
ATOM     18  O   LIG    1        9.619  -1.459  -5.355  0.00  0.00    -0.383 OA
ENDBRANCH  16  18
ENDBRANCH  15  16
ENDBRANCH  14  15
ENDBRANCH  13  14
ENDBRANCH   1  13
BRANCH   2  19
ATOM     19  O   LIG    1        9.120   2.587  -3.243  0.00  0.00    -0.392 OA
BRANCH  19  20
ATOM     20  C   LIG    1        7.792   3.051  -3.018  0.00  0.00    +0.277 C 
BRANCH  20  21
ATOM     21  C   LIG    1        7.653   4.572  -3.180  0.00  0.00    +0.121 C 
BRANCH  21  22
ATOM     22  N   LIG    1        6.287   5.041  -2.961  0.00  0.00    -0.327 NA
ATOM     23  H   LIG    1        5.974   4.715  -2.046  0.00  0.00    +0.118 HD
ATOM     24  H   LIG    1        6.317   6.059  -2.893  0.00  0.00    +0.118 HD
ENDBRANCH  21  22
ENDBRANCH  20  21
ENDBRANCH  19  20
ENDBRANCH   2  19
TORSDOF 11
