REMARK  Name = *****
REMARK                            x       y       z     vdW  Elec       q    Type
REMARK                         _______ _______ _______ _____ _____    ______ ____
ROOT
ATOM      1  C   LIG    1        2.901   0.242  -0.174  0.00  0.00    +0.059 C 
ATOM      2  C   LIG    1        3.104  -1.030  -0.969  0.00  0.00    +0.037 C 
ATOM      3  C   LIG    1        2.946   0.300  -1.669  0.00  0.00    +0.029 C 
ENDROOT
BRANCH   2   4
ATOM      4  C   LIG    1        4.445  -1.725  -0.954  0.00  0.00    -0.043 A 
ATOM      5  C   LIG    1        5.136  -2.006  -2.144  0.00  0.00    +0.004 A 
ATOM      6  C   LIG    1        6.371  -2.661  -2.134  0.00  0.00    +0.000 A 
ATOM      7  C   LIG    1        6.938  -3.057  -0.927  0.00  0.00    +0.000 A 
ATOM      8  C   LIG    1        6.270  -2.802   0.267  0.00  0.00    +0.000 A 
ATOM      9  C   LIG    1        5.035  -2.146   0.250  0.00  0.00    +0.004 A 
ENDBRANCH   2   4
BRANCH   1  10
ATOM     10  N   LIG    1        1.622   0.467   0.500  0.00  0.00    -0.327 NA
ATOM     11  H   LIG    1        1.627   0.046   1.428  0.00  0.00    +0.118 HD
ATOM     12  H   LIG    1        1.463   1.464   0.642  0.00  0.00    +0.118 HD
ENDBRANCH   1  10
TORSDOF 2
