REMARK  Name = *****
REMARK                            x       y       z     vdW  Elec       q    Type
REMARK                         _______ _______ _______ _____ _____    ______ ____
ROOT
ATOM      1  N   LIG    1        4.381   1.095   0.520  0.00  0.00    -0.295 NA
ATOM      2  C   LIG    1        5.155  -0.159   0.277  0.00  0.00    +0.065 C 
ATOM      3  C   LIG    1        5.843  -0.081  -1.099  0.00  0.00    +0.054 C 
ATOM      4  C   LIG    1        7.106   0.746  -1.112  0.00  0.00    -0.042 A 
ATOM      5  C   LIG    1        7.742   1.146   0.080  0.00  0.00    -0.034 A 
ATOM      6  C   LIG    1        7.152   0.782   1.464  0.00  0.00    +0.002 C 
ATOM      7  C   LIG    1        8.308   0.460   2.469  0.00  0.00    +0.012 C 
ATOM      8  C   LIG    1        8.024  -0.748   3.362  0.00  0.00    +0.001 C 
ATOM      9  C   LIG    1        7.771  -2.011   2.533  0.00  0.00    +0.000 C 
ATOM     10  C   LIG    1        6.954  -1.753   1.261  0.00  0.00    +0.006 C 
ATOM     11  C   LIG    1        6.307   2.004   1.921  0.00  0.00    +0.027 C 
ATOM     12  C   LIG    1        8.901   1.943  -0.019  0.00  0.00    +0.049 A 
ATOM     13  C   LIG    1        9.441   2.274  -1.258  0.00  0.00    +0.117 A 
ATOM     14  C   LIG    1        8.837   1.847  -2.430  0.00  0.00    +0.045 A 
ATOM     15  C   LIG    1        7.670   1.088  -2.355  0.00  0.00    +0.007 A 
ATOM     16  C   LIG    1        6.188  -0.430   1.379  0.00  0.00    +0.017 C 
ATOM     17  C   LIG    1        4.788   1.819   1.736  0.00  0.00    +0.086 C 
ENDROOT
BRANCH  13  18
ATOM     18  O   LIG    1       10.579   3.026  -1.275  0.00  0.00    -0.507 OA
ATOM     19  H   LIG    1       10.841   3.163  -2.200  0.00  0.00    +0.292 HD
ENDBRANCH  13  18
BRANCH   1  20
ATOM     20  C   LIG    1        2.934   0.807   0.532  0.00  0.00    +0.111 C 
BRANCH  20  22
ATOM     21  C   LIG    1        0.894   2.138   1.171  0.00  0.00    +0.005 C 
ATOM     22  C   LIG    1        2.077   2.041   0.539  0.00  0.00    -0.019 C 
ENDBRANCH  20  22
ENDBRANCH   1  20
TORSDOF 3
