REMARK  Name = *****
REMARK                            x       y       z     vdW  Elec       q    Type
REMARK                         _______ _______ _______ _____ _____    ______ ____
ROOT
ATOM      1  N   LIG    1        7.593  -1.827  -0.143  0.00  0.00    -0.261 N 
ATOM      2  N   LIG    1        8.891  -1.456  -0.106  0.00  0.00    -0.178 NA
ATOM      3  C   LIG    1        9.303  -1.593  -1.370  0.00  0.00    +0.144 A 
ATOM      4  C   LIG    1        8.279  -2.023  -2.235  0.00  0.00    +0.038 A 
ATOM      5  C   LIG    1        7.182  -2.140  -1.411  0.00  0.00    +0.119 A 
ENDROOT
BRANCH   4   6
ATOM      6  C   LIG    1        8.243  -2.328  -3.645  0.00  0.00    +0.086 A 
ATOM      7  C   LIG    1        9.096  -1.718  -4.568  0.00  0.00    +0.045 A 
ATOM      8  C   LIG    1        8.932  -2.120  -5.887  0.00  0.00    +0.142 A 
ATOM      9  N   LIG    1        9.831  -1.437  -6.659  0.00  0.00    -0.346 N 
ATOM     10  H   LIG    1        9.915  -1.555  -7.658  0.00  0.00    +0.167 HD
ATOM     11  C   LIG    1       10.568  -0.592  -5.871  0.00  0.00    +0.085 A 
ATOM     12  N   LIG    1        8.057  -3.018  -6.360  0.00  0.00    -0.218 NA
ATOM     13  C   LIG    1        7.291  -3.528  -5.382  0.00  0.00    +0.224 A 
ATOM     14  C   LIG    1       10.131  -0.739  -4.571  0.00  0.00    +0.031 A 
ATOM     15  N   LIG    1        7.325  -3.235  -4.069  0.00  0.00    -0.235 NA
ENDBRANCH   4   6
BRANCH   1  18
ATOM     16  N   LIG    1        4.737  -1.802   0.414  0.00  0.00    -0.176 NA
ATOM     17  C   LIG    1        5.652  -0.798   1.024  0.00  0.00    +0.141 C 
ATOM     18  C   LIG    1        6.785  -1.879   1.067  0.00  0.00    +0.105 C 
ATOM     19  C   LIG    1        5.597  -2.883   0.971  0.00  0.00    +0.141 C 
BRANCH  16  20
ATOM     20  S   LIG    1        3.059  -1.749   0.392  0.00  0.00    +0.032 S 
ATOM     21  O   LIG    1        2.603  -2.125   1.712  0.00  0.00    -0.158 OA
ATOM     22  O   LIG    1        2.676  -0.495  -0.218  0.00  0.00    -0.158 OA
BRANCH  20  24
ATOM     23  C   LIG    1        1.248  -3.174  -1.095  0.00  0.00    +0.030 C 
ATOM     24  C   LIG    1        2.719  -3.083  -0.751  0.00  0.00    +0.182 C 
ENDBRANCH  20  24
ENDBRANCH  16  20
BRANCH  18  25
ATOM     25  C   LIG    1        7.605  -1.885   2.351  0.00  0.00    +0.151 C 
BRANCH  25  26
ATOM     26  C   LIG    1        8.232  -3.200   2.587  0.00  0.00    +0.065 C 
ATOM     27  N   LIG    1        8.674  -4.248   2.796  0.00  0.00    -0.197 NA
ENDBRANCH  25  26
ENDBRANCH  18  25
ENDBRANCH   1  18
TORSDOF 6
