REMARK  Name = *****
REMARK                            x       y       z     vdW  Elec       q    Type
REMARK                         _______ _______ _______ _____ _____    ______ ____
ROOT
ATOM      1  C   LIG    1        4.242   2.455   0.541  0.00  0.00    +0.065 C 
ATOM      2  C   LIG    1        5.086   2.084   1.821  0.00  0.00    +0.102 C 
ATOM      3  C   LIG    1        6.473   1.572   1.319  0.00  0.00    +0.065 C 
ATOM      4  C   LIG    1        7.021   2.107   0.193  0.00  0.00    +0.016 C 
ATOM      5  C   LIG    1        8.384   1.799  -0.385  0.00  0.00    +0.061 C 
ATOM      6  N   LIG    1        6.276   2.999  -0.565  0.00  0.00    -0.321 N 
ATOM      7  H   LIG    1        6.665   3.193  -1.488  0.00  0.00    +0.152 HD
ATOM      8  C   LIG    1        4.889   2.998  -0.532  0.00  0.00    +0.016 C 
ATOM      9  C   LIG    1        4.240   3.609  -1.754  0.00  0.00    +0.061 C 
ENDROOT
BRANCH   2  10
ATOM     10  C   LIG    1        5.219   3.287   2.847  0.00  0.00    +0.042 A 
ATOM     11  C   LIG    1        5.884   3.288   4.106  0.00  0.00    +0.277 A 
ATOM     12  C   LIG    1        6.068   4.461   4.885  0.00  0.00    +0.084 A 
ATOM     13  C   LIG    1        5.494   5.657   4.500  0.00  0.00    +0.007 A 
ATOM     14  C   LIG    1        4.753   5.684   3.332  0.00  0.00    +0.001 A 
ATOM     15  C   LIG    1        4.642   4.540   2.517  0.00  0.00    +0.011 A 
BRANCH  11  16
ATOM     16  N   LIG    1        6.269   2.101   4.852  0.00  0.00    +0.080 N 
ATOM     17  O   LIG    1        7.452   2.041   5.222  0.00  0.00    -0.576 OA
ATOM     18  O   LIG    1        5.354   1.354   5.223  0.00  0.00    +0.042 OA
ENDBRANCH  11  16
ENDBRANCH   2  10
BRANCH   1  19
ATOM     19  C   LIG    1        2.801   2.070   0.468  0.00  0.00    +0.337 C 
ATOM     20  O   LIG    1        2.116   1.715   1.427  0.00  0.00    -0.245 OA
BRANCH  19  22
ATOM     21  C   LIG    1        1.669   0.925  -1.359  0.00  0.00    +0.280 C 
ATOM     22  O   LIG    1        2.414   2.030  -0.832  0.00  0.00    -0.465 OA
ENDBRANCH  19  22
ENDBRANCH   1  19
BRANCH   3  23
ATOM     23  C   LIG    1        7.039   0.397   2.009  0.00  0.00    +0.338 C 
ATOM     24  O   LIG    1        6.682   0.052   3.139  0.00  0.00    -0.245 OA
BRANCH  23  25
ATOM     25  O   LIG    1        7.964  -0.271   1.282  0.00  0.00    -0.454 OA
BRANCH  25  26
ATOM     26  C   LIG    1        8.653  -1.326   1.964  0.00  0.00    +0.306 C 
BRANCH  26  27
ATOM     27  C   LIG    1        9.841  -0.828   2.786  0.00  0.00    +0.168 C 
ATOM     28  O   LIG    1       10.835  -1.533   2.972  0.00  0.00    -0.294 OA
ATOM     29  C   LIG    1        9.745   0.543   3.397  0.00  0.00    +0.090 C 
ENDBRANCH  26  27
ENDBRANCH  25  26
ENDBRANCH  23  25
ENDBRANCH   3  23
TORSDOF 8
