REMARK  Name = *****
REMARK                            x       y       z     vdW  Elec       q    Type
REMARK                         _______ _______ _______ _____ _____    ______ ____
ROOT
ATOM      1  C   LIG    1        1.387  -0.226   1.372  0.00  0.00    +0.143 C 
ATOM      2  N   LIG    1        2.510  -0.057   0.464  0.00  0.00    -0.228 N 
ATOM      3  C   LIG    1        2.929  -1.176  -0.242  0.00  0.00    +0.242 C 
ATOM      4  O   LIG    1        2.396  -2.278  -0.074  0.00  0.00    -0.274 OA
ATOM      5  C   LIG    1        4.059  -0.993  -1.257  0.00  0.00    +0.142 C 
ATOM      6  C   LIG    1        5.130  -2.051  -0.905  0.00  0.00    +0.035 C 
ATOM      7  C   LIG    1        4.767   0.348  -1.182  0.00  0.00    +0.239 C 
ATOM      8  O   LIG    1        5.767   0.629  -1.844  0.00  0.00    -0.274 OA
ATOM      9  N   LIG    1        4.240   1.283  -0.345  0.00  0.00    -0.239 N 
ATOM     10  H   LIG    1        4.721   2.171  -0.308  0.00  0.00    +0.159 HD
ATOM     11  C   LIG    1        3.170   1.151   0.483  0.00  0.00    +0.315 C 
ATOM     12  O   LIG    1        2.863   2.093   1.212  0.00  0.00    -0.252 OA
ENDROOT
BRANCH   5  13
ATOM     13  C   LIG    1        3.450  -1.129  -2.674  0.00  0.00    -0.050 C 
ATOM     14  C   LIG    1        2.460  -0.049  -3.092  0.00  0.00    +0.032 C 
ATOM     15  C   LIG    1        1.634  -0.398  -4.332  0.00  0.00    +0.005 C 
ATOM     16  C   LIG    1        2.512  -0.990  -5.423  0.00  0.00    +0.004 C 
ATOM     17  C   LIG    1        3.208  -2.253  -4.927  0.00  0.00    +0.027 C 
ATOM     18  C   LIG    1        3.754  -2.127  -3.532  0.00  0.00    -0.026 C 
ENDBRANCH   5  13
TORSDOF 1
