REMARK  Name = *****
REMARK                            x       y       z     vdW  Elec       q    Type
REMARK                         _______ _______ _______ _____ _____    ______ ____
ROOT
ATOM      1  C   LIG    1        6.333  -5.213   1.276  0.00  0.00    +0.087 C 
ATOM      2  C   LIG    1        6.492  -6.081   0.010  0.00  0.00    +0.169 C 
ATOM      3  C   LIG    1        5.183  -6.029  -0.811  0.00  0.00    +0.175 C 
ATOM      4  C   LIG    1        4.404  -4.688  -0.939  0.00  0.00    +0.170 C 
ATOM      5  C   LIG    1        5.211  -3.465  -0.315  0.00  0.00    +0.084 C 
ATOM      6  C   LIG    1        6.209  -3.752   0.841  0.00  0.00    +0.042 C 
ENDROOT
BRANCH   5   7
ATOM      7  N   LIG    1        4.362  -2.327   0.096  0.00  0.00    -0.325 NA
ATOM      8  H   LIG    1        3.834  -1.997  -0.711  0.00  0.00    +0.118 HD
ATOM      9  H   LIG    1        4.967  -1.548   0.367  0.00  0.00    +0.118 HD
ENDBRANCH   5   7
BRANCH   1  10
ATOM     10  N   LIG    1        5.144  -5.536   2.115  0.00  0.00    -0.311 NA
ATOM     11  H   LIG    1        4.277  -5.338   1.610  0.00  0.00    +0.122 HD
BRANCH  10  13
ATOM     12  C   LIG    1        3.723  -7.184   3.272  0.00  0.00    +0.020 C 
ATOM     13  C   LIG    1        5.090  -6.894   2.657  0.00  0.00    +0.078 C 
ENDBRANCH  10  13
ENDBRANCH   1  10
BRANCH   3  14
ATOM     14  O   LIG    1        4.170  -6.963  -0.360  0.00  0.00    -0.387 OA
ATOM     15  H   LIG    1        4.596  -7.702   0.100  0.00  0.00    +0.210 HD
ENDBRANCH   3  14
BRANCH   2  16
ATOM     16  O   LIG    1        7.745  -6.058  -0.757  0.00  0.00    -0.341 OA
BRANCH  16  17
ATOM     17  C   LIG    1        8.341  -4.929  -1.459  0.00  0.00    +0.284 C 
ATOM     18  C   LIG    1        7.677  -4.494  -2.828  0.00  0.00    +0.131 C 
ATOM     19  C   LIG    1        7.639  -2.960  -3.034  0.00  0.00    +0.048 C 
ATOM     20  C   LIG    1        8.257  -5.201  -4.143  0.00  0.00    +0.121 C 
ATOM     21  C   LIG    1        9.617  -5.779  -3.922  0.00  0.00    +0.160 C 
ATOM     22  C   LIG    1       10.307  -4.933  -2.890  0.00  0.00    +0.196 C 
ATOM     23  O   LIG    1        9.757  -5.177  -1.597  0.00  0.00    -0.346 OA
BRANCH  20  24
ATOM     24  N   LIG    1        7.456  -6.281  -4.720  0.00  0.00    -0.311 NA
ATOM     25  H   LIG    1        6.649  -5.697  -4.826  0.00  0.00    +0.122 HD
ATOM     26  C   LIG    1        7.581  -6.840  -6.060  0.00  0.00    +0.101 C 
ENDBRANCH  20  24
BRANCH  18  27
ATOM     27  O   LIG    1        6.326  -4.780  -2.690  0.00  0.00    -0.382 OA
ATOM     28  H   LIG    1        5.701  -4.226  -3.193  0.00  0.00    +0.210 HD
ENDBRANCH  18  27
BRANCH  21  29
ATOM     29  O   LIG    1       10.295  -5.754  -5.174  0.00  0.00    -0.388 OA
ATOM     30  H   LIG    1        9.801  -6.384  -5.726  0.00  0.00    +0.210 HD
ENDBRANCH  21  29
ENDBRANCH  16  17
ENDBRANCH   2  16
BRANCH   4  31
ATOM     31  O   LIG    1        4.067  -4.385  -2.342  0.00  0.00    -0.333 OA
BRANCH  31  32
ATOM     32  C   LIG    1        3.199  -5.225  -3.150  0.00  0.00    +0.324 C 
ATOM     33  C   LIG    1        3.601  -6.708  -3.641  0.00  0.00    +0.124 C 
ATOM     34  C   LIG    1        4.795  -6.546  -4.494  0.00  0.00    +0.055 C 
ATOM     35  C   LIG    1        4.701  -5.441  -5.482  0.00  0.00    +0.017 C 
ATOM     36  C   LIG    1        3.819  -4.500  -5.436  0.00  0.00    +0.111 C 
ATOM     37  O   LIG    1        2.896  -4.404  -4.377  0.00  0.00    -0.465 OA
BRANCH  33  38
ATOM     38  N   LIG    1        3.985  -7.878  -2.805  0.00  0.00    -0.322 NA
ATOM     39  H   LIG    1        3.738  -7.687  -1.832  0.00  0.00    +0.119 HD
ATOM     40  H   LIG    1        5.015  -7.967  -2.768  0.00  0.00    +0.119 HD
ENDBRANCH  33  38
BRANCH  36  41
ATOM     41  C   LIG    1        3.654  -3.588  -6.657  0.00  0.00    +0.152 C 
BRANCH  41  42
ATOM     42  N   LIG    1        4.156  -4.235  -7.895  0.00  0.00    -0.324 NA
ATOM     43  H   LIG    1        5.172  -4.321  -7.855  0.00  0.00    +0.119 HD
ATOM     44  H   LIG    1        3.800  -5.194  -7.904  0.00  0.00    +0.119 HD
ENDBRANCH  41  42
ENDBRANCH  36  41
ENDBRANCH  31  32
ENDBRANCH   4  31
TORSDOF 14
