REMARK  Name = *****
REMARK                            x       y       z     vdW  Elec       q    Type
REMARK                         _______ _______ _______ _____ _____    ______ ____
ROOT
ATOM      1  C   LIG    1        5.211  -0.705   1.065  0.00  0.00    +0.111 A 
ATOM      2  N   LIG    1        6.187   0.267   1.322  0.00  0.00    -0.323 N 
ATOM      3  C   LIG    1        7.426  -0.445   1.466  0.00  0.00    +0.070 A 
ATOM      4  C   LIG    1        8.807  -0.118   1.654  0.00  0.00    +0.039 A 
ATOM      5  C   LIG    1        9.780  -1.169   1.727  0.00  0.00    +0.020 A 
ATOM      6  C   LIG    1        9.335  -2.495   1.635  0.00  0.00    +0.017 A 
ATOM      7  C   LIG    1        7.983  -2.835   1.516  0.00  0.00    -0.022 A 
ATOM      8  C   LIG    1        7.573  -4.281   1.558  0.00  0.00    +0.046 C 
ATOM      9  C   LIG    1        7.059  -1.784   1.393  0.00  0.00    +0.092 A 
ATOM     10  N   LIG    1        5.737  -1.910   1.176  0.00  0.00    -0.232 NA
ENDROOT
BRANCH   5  11
ATOM     11  C   LIG    1       11.243  -0.877   1.855  0.00  0.00    +0.142 A 
ATOM     12  N   LIG    1       12.216  -1.676   2.464  0.00  0.00    -0.327 N 
ATOM     13  C   LIG    1       12.054  -2.974   3.076  0.00  0.00    +0.151 C 
ATOM     14  C   LIG    1       13.437  -1.037   2.389  0.00  0.00    +0.069 A 
ATOM     15  C   LIG    1       13.174   0.111   1.657  0.00  0.00    +0.090 A 
ATOM     16  C   LIG    1       14.241   0.971   1.339  0.00  0.00    +0.030 A 
ATOM     17  C   LIG    1       15.531   0.663   1.799  0.00  0.00    +0.002 A 
ATOM     18  C   LIG    1       15.761  -0.477   2.566  0.00  0.00    +0.002 A 
ATOM     19  C   LIG    1       14.719  -1.355   2.871  0.00  0.00    +0.028 A 
ATOM     20  N   LIG    1       11.831   0.207   1.363  0.00  0.00    -0.228 NA
ENDBRANCH   5  11
BRANCH   1  21
ATOM     21  C   LIG    1        3.722  -0.722   0.857  0.00  0.00    +0.074 C 
BRANCH  21  23
ATOM     22  C   LIG    1        3.195   0.171  -1.516  0.00  0.00    +0.004 C 
ATOM     23  C   LIG    1        2.957   0.238  -0.019  0.00  0.00    +0.004 C 
ENDBRANCH  21  23
ENDBRANCH   1  21
BRANCH   2  24
ATOM     24  C   LIG    1        6.124   1.752   1.318  0.00  0.00    +0.158 C 
BRANCH  24  25
ATOM     25  C   LIG    1        4.974   2.538   1.969  0.00  0.00    -0.028 A 
ATOM     26  C   LIG    1        3.901   3.226   1.353  0.00  0.00    +0.006 A 
ATOM     27  C   LIG    1        2.963   4.053   2.099  0.00  0.00    +0.009 A 
ATOM     28  C   LIG    1        3.144   4.330   3.469  0.00  0.00    -0.017 A 
ATOM     29  C   LIG    1        4.313   3.762   3.974  0.00  0.00    +0.009 A 
ATOM     30  C   LIG    1        5.121   2.820   3.316  0.00  0.00    +0.006 A 
BRANCH  28  31
ATOM     31  C   LIG    1        2.259   5.140   4.414  0.00  0.00    -0.004 A 
ATOM     32  C   LIG    1        2.004   4.789   5.786  0.00  0.00    +0.067 A 
ATOM     33  C   LIG    1        1.180   5.590   6.619  0.00  0.00    +0.015 A 
ATOM     34  C   LIG    1        0.550   6.730   6.148  0.00  0.00    +0.001 A 
ATOM     35  C   LIG    1        0.806   7.133   4.847  0.00  0.00    +0.001 A 
ATOM     36  C   LIG    1        1.644   6.364   3.998  0.00  0.00    +0.009 A 
BRANCH  32  37
ATOM     37  C   LIG    1        2.610   3.589   6.536  0.00  0.00    +0.337 C 
ATOM     38  O   LIG    1        3.748   3.242   6.580  0.00  0.00    -0.245 OA
BRANCH  37  39
ATOM     39  O   LIG    1        1.667   2.975   7.330  0.00  0.00    -0.477 OA
ATOM     40  H   LIG    1        0.774   3.309   7.279  0.00  0.00    +0.295 HD
ENDBRANCH  37  39
ENDBRANCH  32  37
ENDBRANCH  28  31
ENDBRANCH  24  25
ENDBRANCH   2  24
TORSDOF 8
