REMARK  Name = *****
REMARK                            x       y       z     vdW  Elec       q    Type
REMARK                         _______ _______ _______ _____ _____    ______ ____
ROOT
ATOM      1  C   LIG    1        7.604  -1.582  -2.807  0.00  0.00    -0.011 A 
ATOM      2  C   LIG    1        6.508  -0.753  -2.472  0.00  0.00    -0.012 A 
ATOM      3  C   LIG    1        6.758   0.602  -2.096  0.00  0.00    -0.009 A 
ATOM      4  C   LIG    1        5.637   1.460  -1.964  0.00  0.00    +0.021 A 
ATOM      5  C   LIG    1        4.311   1.028  -2.102  0.00  0.00    +0.055 A 
ATOM      6  C   LIG    1        4.085  -0.329  -2.308  0.00  0.00    +0.013 A 
ATOM      7  C   LIG    1        8.111   1.047  -1.887  0.00  0.00    -0.007 A 
ATOM      8  C   LIG    1        9.199   0.225  -2.244  0.00  0.00    +0.002 A 
ATOM      9  C   LIG    1       10.530   0.702  -2.082  0.00  0.00    +0.050 A 
ATOM     10  C   LIG    1       10.791   1.940  -1.496  0.00  0.00    +0.040 A 
ATOM     11  C   LIG    1        9.734   2.721  -1.081  0.00  0.00    +0.043 A 
ATOM     12 CL   LIG    1       10.033   4.219  -0.287  0.00  0.00    -0.084 Cl
ATOM     13 CL   LIG    1       11.915  -0.214  -2.581  0.00  0.00    -0.083 Cl
ATOM     14  C   LIG    1        8.420   2.300  -1.286  0.00  0.00    +0.029 A 
ATOM     15  C   LIG    1        5.162  -1.193  -2.495  0.00  0.00    +0.009 A 
ATOM     16  C   LIG    1        8.914  -1.065  -2.735  0.00  0.00    +0.016 A 
ENDROOT
BRANCH   5  17
ATOM     17  C   LIG    1        3.151   1.991  -2.063  0.00  0.00    +0.417 C 
ATOM     18  F   LIG    1        2.274   1.720  -1.059  0.00  0.00    -0.166 F 
ATOM     19  F   LIG    1        2.422   1.963  -3.215  0.00  0.00    -0.166 F 
ATOM     20  F   LIG    1        3.526   3.290  -1.896  0.00  0.00    -0.166 F 
ENDBRANCH   5  17
BRANCH   1  21
ATOM     21  C   LIG    1        7.462  -3.034  -3.258  0.00  0.00    +0.146 C 
BRANCH  21  22
ATOM     22  O   LIG    1        8.121  -3.184  -4.521  0.00  0.00    -0.387 OA
ATOM     23  H   LIG    1        7.957  -2.371  -5.031  0.00  0.00    +0.210 HD
ENDBRANCH  21  22
BRANCH  21  24
ATOM     24  C   LIG    1        8.062  -4.044  -2.255  0.00  0.00    +0.051 C 
BRANCH  24  25
ATOM     25  C   LIG    1        7.381  -3.953  -0.869  0.00  0.00    +0.087 C 
BRANCH  25  26
ATOM     26  N   LIG    1        7.854  -4.912   0.151  0.00  0.00    -0.302 NA
BRANCH  26  27
ATOM     27  C   LIG    1        9.289  -4.716   0.465  0.00  0.00    +0.084 C 
BRANCH  27  28
ATOM     28  C   LIG    1        9.672  -3.387   1.154  0.00  0.00    +0.015 C 
BRANCH  28  30
ATOM     29  C   LIG    1       11.999  -3.260   0.127  0.00  0.00    +0.004 C 
ATOM     30  C   LIG    1       11.175  -3.254   1.404  0.00  0.00    -0.002 C 
ENDBRANCH  28  30
ENDBRANCH  27  28
ENDBRANCH  26  27
BRANCH  26  31
ATOM     31  C   LIG    1        7.051  -4.896   1.401  0.00  0.00    +0.084 C 
BRANCH  31  32
ATOM     32  C   LIG    1        5.540  -5.159   1.245  0.00  0.00    +0.015 C 
BRANCH  32  33
ATOM     33  C   LIG    1        4.806  -5.151   2.596  0.00  0.00    -0.002 C 
ATOM     34  C   LIG    1        3.305  -5.371   2.432  0.00  0.00    +0.004 C 
ENDBRANCH  32  33
ENDBRANCH  31  32
ENDBRANCH  26  31
ENDBRANCH  25  26
ENDBRANCH  24  25
ENDBRANCH  21  24
ENDBRANCH   1  21
TORSDOF 12
