REMARK  Name = *****
REMARK                            x       y       z     vdW  Elec       q    Type
REMARK                         _______ _______ _______ _____ _____    ______ ____
ROOT
ATOM      1  O   LIG    1        1.396  -2.348  -0.319  0.00  0.00    -0.421 OA
ENDROOT
BRANCH   1   3
ATOM      2  C   LIG    1        3.649  -2.300   0.526  0.00  0.00    +0.101 A 
ATOM      3  C   LIG    1        2.449  -1.620   0.281  0.00  0.00    +0.146 A 
ATOM      4  C   LIG    1        2.305  -0.281   0.646  0.00  0.00    +0.047 A 
ATOM      5  C   LIG    1        3.386   0.403   1.202  0.00  0.00    +0.004 A 
ATOM      6  C   LIG    1        4.598  -0.251   1.414  0.00  0.00    +0.001 A 
ATOM      7  C   LIG    1        4.729  -1.603   1.085  0.00  0.00    +0.019 A 
BRANCH   2   9
ATOM      8  O   LIG    1        4.980  -4.188  -0.079  0.00  0.00    -0.245 OA
ATOM      9  C   LIG    1        3.874  -3.738   0.202  0.00  0.00    +0.340 C 
BRANCH   9  10
ATOM     10  O   LIG    1        2.771  -4.523   0.319  0.00  0.00    -0.477 OA
ATOM     11  H   LIG    1        1.955  -4.039   0.550  0.00  0.00    +0.295 HD
ENDBRANCH   9  10
ENDBRANCH   2   9
ENDBRANCH   1   3
BRANCH   1  12
ATOM     12  C   LIG    1        0.421  -1.791  -1.140  0.00  0.00    +0.348 C 
ATOM     13  O   LIG    1        0.301  -0.624  -1.457  0.00  0.00    -0.244 OA
BRANCH  12  14
ATOM     14  C   LIG    1       -0.395  -2.887  -1.721  0.00  0.00    +0.101 A 
ATOM     15  C   LIG    1       -0.680  -4.077  -1.041  0.00  0.00    +0.131 A 
ATOM     16  C   LIG    1       -1.405  -5.089  -1.673  0.00  0.00    +0.046 A 
ATOM     17  C   LIG    1       -1.854  -4.913  -2.984  0.00  0.00    +0.004 A 
ATOM     18  C   LIG    1       -1.595  -3.722  -3.660  0.00  0.00    +0.001 A 
ATOM     19  C   LIG    1       -0.870  -2.708  -3.029  0.00  0.00    +0.019 A 
BRANCH  15  20
ATOM     20  O   LIG    1       -0.259  -4.265   0.250  0.00  0.00    -0.506 OA
ATOM     21  H   LIG    1       -0.495  -5.170   0.525  0.00  0.00    +0.292 HD
ENDBRANCH  15  20
ENDBRANCH  12  14
ENDBRANCH   1  12
TORSDOF 6
