REMARK  Name = *****
REMARK                            x       y       z     vdW  Elec       q    Type
REMARK                         _______ _______ _______ _____ _____    ______ ____
ROOT
ATOM      1  N   LIG    1        6.566  -1.016   1.264  0.00  0.00    -0.298 N 
ATOM      2  C   LIG    1        7.205  -1.986   2.094  0.00  0.00    +0.049 A 
ATOM      3  C   LIG    1        8.608  -2.037   2.232  0.00  0.00    +0.034 A 
ATOM      4  C   LIG    1        9.226  -2.945   3.118  0.00  0.00    +0.018 A 
ATOM      5  C   LIG    1        8.476  -3.825   3.888  0.00  0.00    +0.018 A 
ATOM      6  C   LIG    1        7.096  -3.827   3.751  0.00  0.00    +0.040 A 
ATOM      7  S   LIG    1        9.733  -1.009   1.323  0.00  0.00    -0.086 S 
ATOM      8  C   LIG    1        8.641   0.069   0.434  0.00  0.00    +0.034 A 
ATOM      9  C   LIG    1        9.285   1.055  -0.343  0.00  0.00    +0.017 A 
ATOM     10  C   LIG    1        8.559   1.982  -1.079  0.00  0.00    +0.001 A 
ATOM     11  C   LIG    1        7.178   1.927  -1.046  0.00  0.00    +0.002 A 
ATOM     12  C   LIG    1        6.537   0.943  -0.283  0.00  0.00    +0.024 A 
ATOM     13  C   LIG    1        6.483  -2.942   2.847  0.00  0.00    +0.041 A 
ATOM     14  C   LIG    1        7.234  -0.020   0.484  0.00  0.00    +0.048 A 
ENDROOT
BRANCH   6  15
ATOM     15  S   LIG    1        6.106  -4.960   4.754  0.00  0.00    +0.051 S 
ATOM     16  O   LIG    1        4.798  -5.101   4.030  0.00  0.00    -0.252 OA
ATOM     17  C   LIG    1        5.819  -3.827   6.142  0.00  0.00    +0.127 C 
ENDBRANCH   6  15
BRANCH   1  18
ATOM     18  C   LIG    1        5.076  -1.010   1.222  0.00  0.00    +0.112 C 
BRANCH  18  19
ATOM     19  C   LIG    1        4.559  -1.834   0.030  0.00  0.00    +0.038 C 
BRANCH  19  22
ATOM     20  C   LIG    1        1.046  -0.456   0.268  0.00  0.00    +0.105 C 
ATOM     21  N   LIG    1        2.451  -0.493  -0.146  0.00  0.00    -0.302 NA
ATOM     22  C   LIG    1        3.014  -1.858  -0.058  0.00  0.00    +0.058 C 
ATOM     23  C   LIG    1        2.533  -2.770  -1.208  0.00  0.00    +0.019 C 
ATOM     24  C   LIG    1        2.722  -2.143  -2.587  0.00  0.00    +0.003 C 
ATOM     25  C   LIG    1        2.129  -0.741  -2.635  0.00  0.00    +0.015 C 
ATOM     26  C   LIG    1        2.633   0.114  -1.474  0.00  0.00    +0.084 C 
ENDBRANCH  19  22
ENDBRANCH  18  19
ENDBRANCH   1  18
TORSDOF 4
