REMARK  Name = *****
REMARK                            x       y       z     vdW  Elec       q    Type
REMARK                         _______ _______ _______ _____ _____    ______ ____
ROOT
ATOM      1  C   LIG    1        4.989   0.038   1.591  0.00  0.00    +0.161 A 
ATOM      2  C   LIG    1        3.698  -0.013   1.045  0.00  0.00    +0.170 A 
ATOM      3  C   LIG    1        3.337   0.910   0.056  0.00  0.00    +0.051 A 
ATOM      4  C   LIG    1        4.236   1.900  -0.347  0.00  0.00    +0.024 A 
ATOM      5  C   LIG    1        5.500   1.963   0.233  0.00  0.00    +0.045 A 
ATOM      6 CL   LIG    1        6.603   3.191  -0.254  0.00  0.00    -0.083 Cl
ATOM      7  C   LIG    1        5.886   1.034   1.199  0.00  0.00    +0.069 A 
ENDROOT
BRANCH   1   8
ATOM      8  O   LIG    1        5.402  -0.893   2.505  0.00  0.00    -0.503 OA
ATOM      9  H   LIG    1        6.279  -0.658   2.844  0.00  0.00    +0.292 HD
ENDBRANCH   1   8
BRANCH   2  10
ATOM     10  O   LIG    1        2.724  -0.946   1.340  0.00  0.00    -0.451 OA
BRANCH  10  11
ATOM     11  C   LIG    1        2.660  -1.456   2.616  0.00  0.00    +0.147 A 
ATOM     12  C   LIG    1        2.599  -2.845   2.783  0.00  0.00    +0.085 A 
ATOM     13 CL   LIG    1        2.565  -3.913   1.426  0.00  0.00    -0.080 Cl
ATOM     14  C   LIG    1        2.575  -3.397   4.064  0.00  0.00    +0.043 A 
ATOM     15  C   LIG    1        2.597  -2.555   5.174  0.00  0.00    +0.043 A 
ATOM     16 CL   LIG    1        2.619  -3.231   6.756  0.00  0.00    -0.084 Cl
ATOM     17  C   LIG    1        2.603  -1.169   5.018  0.00  0.00    +0.023 A 
ATOM     18  C   LIG    1        2.614  -0.617   3.736  0.00  0.00    +0.049 A 
ENDBRANCH  10  11
ENDBRANCH   2  10
TORSDOF 3
