REMARK  Name = *****
REMARK                            x       y       z     vdW  Elec       q    Type
REMARK                         _______ _______ _______ _____ _____    ______ ____
ROOT
ATOM      1  CA  LIG    1        5.623  -2.959   1.188  0.00  0.00    +0.190 C 
ATOM      2  C   LIG    1        6.415  -3.479  -0.036  0.00  0.00    +0.165 C 
ATOM      3  S   LIG    1        7.964  -4.401   0.248  0.00  0.00    -0.127 S 
ATOM      4  C   LIG    1        7.160  -6.066   0.328  0.00  0.00    +0.042 C 
ATOM      5  CA  LIG    1        5.786  -5.912  -0.369  0.00  0.00    +0.201 C 
ATOM      6  C   LIG    1        7.007  -6.431   1.815  0.00  0.00    +0.025 C 
ATOM      7  C   LIG    1        8.102  -7.090  -0.317  0.00  0.00    +0.025 C 
ATOM      8  N   LIG    1        5.373  -4.509  -0.230  0.00  0.00    -0.271 N 
ATOM      9  C   LIG    1        4.701  -4.163   0.918  0.00  0.00    +0.240 C 
ATOM     10  O   LIG    1        3.877  -4.774   1.558  0.00  0.00    -0.273 OA
ENDROOT
BRANCH   1  12
ATOM     11  C   LIG    1        7.169  -1.964   2.884  0.00  0.00    +0.254 C 
ATOM     12  N   LIG    1        6.297  -2.957   2.497  0.00  0.00    -0.299 N 
ATOM     13  H   LIG    1        6.070  -3.665   3.209  0.00  0.00    +0.150 HD
ATOM     14  O   LIG    1        7.457  -1.037   2.132  0.00  0.00    -0.272 OA
BRANCH  11  16
ATOM     15  C   LIG    1        9.236  -2.408   4.188  0.00  0.00    +0.062 C 
ATOM     16  C   LIG    1        7.743  -2.113   4.301  0.00  0.00    +0.255 C 
BRANCH  16  17
ATOM     17  O   LIG    1        7.178  -3.195   5.050  0.00  0.00    -0.480 OA
BRANCH  17  18
ATOM     18  C   LIG    1        6.089  -2.920   5.829  0.00  0.00    +0.122 A 
ATOM     19  C   LIG    1        5.096  -1.989   5.519  0.00  0.00    +0.045 A 
ATOM     20  C   LIG    1        3.979  -1.859   6.348  0.00  0.00    +0.004 A 
ATOM     21  C   LIG    1        3.857  -2.648   7.492  0.00  0.00    +0.000 A 
ATOM     22  C   LIG    1        4.848  -3.573   7.806  0.00  0.00    +0.004 A 
ATOM     23  C   LIG    1        5.957  -3.715   6.968  0.00  0.00    +0.045 A 
ENDBRANCH  17  18
ENDBRANCH  16  17
ENDBRANCH  11  16
ENDBRANCH   1  12
BRANCH   5  24
ATOM     24  C   LIG    1        5.790  -6.366  -1.832  0.00  0.00    +0.327 C 
ATOM     25  O   LIG    1        5.665  -7.535  -2.169  0.00  0.00    -0.249 OA
BRANCH  24  26
ATOM     26  OXT LIG    1        6.060  -5.401  -2.736  0.00  0.00    -0.479 OA
ATOM     27  HXT LIG    1        6.205  -4.533  -2.325  0.00  0.00    +0.295 HD
ENDBRANCH  24  26
ENDBRANCH   5  24
TORSDOF 6
