REMARK  Name = *****
REMARK                            x       y       z     vdW  Elec       q    Type
REMARK                         _______ _______ _______ _____ _____    ______ ____
ROOT
ATOM      1  C   LIG    1        4.505   0.237   2.376  0.00  0.00    +0.019 A 
ATOM      2  C   LIG    1        5.251  -0.956   2.421  0.00  0.00    +0.035 A 
ATOM      3  C   LIG    1        6.662  -0.980   2.321  0.00  0.00    +0.049 A 
ATOM      4  N   LIG    1        7.402  -2.205   2.286  0.00  0.00    -0.297 N 
ATOM      5  C   LIG    1        8.819  -2.306   2.443  0.00  0.00    +0.048 A 
ATOM      6  C   LIG    1        9.647  -1.161   2.436  0.00  0.00    +0.034 A 
ATOM      7  S   LIG    1        9.053   0.485   2.136  0.00  0.00    -0.086 S 
ATOM      8  C   LIG    1       11.040  -1.255   2.632  0.00  0.00    +0.017 A 
ATOM      9  C   LIG    1       11.653  -2.485   2.830  0.00  0.00    +0.001 A 
ATOM     10  C   LIG    1       10.871  -3.628   2.839  0.00  0.00    +0.002 A 
ATOM     11  C   LIG    1        9.481  -3.535   2.660  0.00  0.00    +0.024 A 
ATOM     12  C   LIG    1        7.300   0.274   2.254  0.00  0.00    +0.034 A 
ATOM     13  C   LIG    1        6.554   1.467   2.224  0.00  0.00    +0.017 A 
ATOM     14  C   LIG    1        5.165   1.454   2.264  0.00  0.00    +0.012 A 
ENDROOT
BRANCH   1  15
ATOM     15  C   LIG    1        3.018   0.144   2.392  0.00  0.00    +0.163 C 
ATOM     16  O   LIG    1        2.482  -0.892   2.003  0.00  0.00    -0.292 OA
BRANCH  15  18
ATOM     17  C   LIG    1        1.317   1.897   1.811  0.00  0.00    +0.012 C 
ATOM     18  C   LIG    1        2.194   1.312   2.903  0.00  0.00    +0.076 C 
ENDBRANCH  15  18
ENDBRANCH   1  15
BRANCH   4  19
ATOM     19  C   LIG    1        6.648  -3.422   1.845  0.00  0.00    +0.129 C 
BRANCH  19  20
ATOM     20  C   LIG    1        6.094  -3.342   0.376  0.00  0.00    +0.071 C 
ATOM     21  C   LIG    1        7.261  -3.040  -0.583  0.00  0.00    +0.026 C 
BRANCH  20  22
ATOM     22  N   LIG    1        5.363  -4.585  -0.039  0.00  0.00    -0.304 NA
ATOM     23  C   LIG    1        4.866  -4.494  -1.420  0.00  0.00    +0.105 C 
ATOM     24  C   LIG    1        4.217  -4.869   0.834  0.00  0.00    +0.105 C 
ENDBRANCH  20  22
ENDBRANCH  19  20
ENDBRANCH   4  19
TORSDOF 5
