REMARK  Name = *****
REMARK                            x       y       z     vdW  Elec       q    Type
REMARK                         _______ _______ _______ _____ _____    ______ ____
ROOT
ATOM      1  S   LIG    1        6.653  -0.028  -0.544  0.00  0.00    +0.075 S 
ATOM      2  O   LIG    1        7.149   0.892   0.462  0.00  0.00    -0.150 OA
ATOM      3  O   LIG    1        6.537   0.391  -1.923  0.00  0.00    -0.150 OA
ENDROOT
BRANCH   1   7
ATOM      4  C   LIG    1        2.511  -1.495   0.706  0.00  0.00    +0.025 A 
ATOM      5  C   LIG    1        3.180  -0.529   1.465  0.00  0.00    +0.024 A 
ATOM      6  C   LIG    1        4.456  -0.094   1.104  0.00  0.00    +0.030 A 
ATOM      7  C   LIG    1        5.049  -0.599  -0.054  0.00  0.00    +0.109 A 
ATOM      8  C   LIG    1        4.366  -1.506  -0.866  0.00  0.00    +0.030 A 
ATOM      9  C   LIG    1        3.092  -1.938  -0.488  0.00  0.00    +0.024 A 
BRANCH   4  10
ATOM     10  N   LIG    1        1.188  -1.834   1.011  0.00  0.00    -0.358 N 
ATOM     11  H   LIG    1        0.961  -1.740   1.997  0.00  0.00    +0.142 HD
ATOM     12  H   LIG    1        0.900  -2.732   0.636  0.00  0.00    +0.142 HD
ENDBRANCH   4  10
ENDBRANCH   1   7
BRANCH   1  13
ATOM     13  N   LIG    1        7.578  -1.424  -0.564  0.00  0.00    -0.184 N 
ATOM     14  H   LIG    1        8.299  -1.336  -1.274  0.00  0.00    +0.177 HD
BRANCH  13  15
ATOM     15  C   LIG    1        8.127  -1.739   0.672  0.00  0.00    +0.235 A 
ATOM     16  N   LIG    1        7.346  -2.335   1.576  0.00  0.00    -0.222 NA
ATOM     17  C   LIG    1        7.932  -2.568   2.765  0.00  0.00    +0.116 A 
ATOM     18  C   LIG    1        9.224  -2.192   3.062  0.00  0.00    +0.039 A 
ATOM     19  C   LIG    1        9.914  -1.572   2.045  0.00  0.00    +0.116 A 
ATOM     20  N   LIG    1        9.396  -1.355   0.824  0.00  0.00    -0.222 NA
ENDBRANCH  13  15
ENDBRANCH   1  13
TORSDOF 4
