REMARK  Name = *****
REMARK                            x       y       z     vdW  Elec       q    Type
REMARK                         _______ _______ _______ _____ _____    ______ ____
ROOT
ATOM      1  N   LIG    1        2.940  -1.397  -1.107  0.00  0.00    +0.000 N 
ATOM      2  H   LIG    1        2.476  -1.849  -0.322  0.00  0.00    +0.000 HD
ATOM      3  C   LIG    1        2.189  -0.999  -2.185  0.00  0.00    +0.000 C 
ATOM      4  O   LIG    1        2.700  -0.435  -3.126  0.00  0.00    +0.000 OA
ENDROOT
BRANCH   1   5
ATOM      5  C   LIG    1        4.385  -1.165  -1.033  0.00  0.00    +0.000 C 
BRANCH   5   6
ATOM      6  C   LIG    1        4.821  -0.995   0.447  0.00  0.00    +0.000 C 
BRANCH   6   8
ATOM      7  C   LIG    1        4.626   0.336   2.686  0.00  0.00    +0.000 C 
ATOM      8  C   LIG    1        4.174   0.192   1.224  0.00  0.00    +0.000 C 
ATOM      9  C   LIG    1        4.493   1.499   0.482  0.00  0.00    +0.000 C 
ENDBRANCH   6   8
ENDBRANCH   5   6
BRANCH   5  10
ATOM     10  B   LIG    1        5.152  -2.436  -1.679  0.00  0.00    +0.000 B 
BRANCH  10  11
ATOM     11  O   LIG    1        6.617  -2.513  -1.675  0.00  0.00    +0.000 OA
ATOM     12  H   LIG    1        6.950  -1.579  -1.623  0.00  0.00    +0.000 HD
ENDBRANCH  10  11
BRANCH  10  13
ATOM     13  O   LIG    1        4.382  -3.560  -2.212  0.00  0.00    +0.000 OA
ATOM     14  H   LIG    1        3.916  -3.948  -1.428  0.00  0.00    +0.000 HD
ENDBRANCH  10  13
ENDBRANCH   5  10
ENDBRANCH   1   5
BRANCH   3  15
ATOM     15  C   LIG    1        0.693  -1.230  -2.144  0.00  0.00    +0.000 C 
BRANCH  15  16
ATOM     16  N   LIG    1        0.370  -2.636  -2.012  0.00  0.00    +0.000 N 
ATOM     17  H   LIG    1        1.116  -3.323  -1.906  0.00  0.00    +0.000 HD
ATOM     18  C   LIG    1       -0.945  -3.050  -1.954  0.00  0.00    +0.000 C 
ATOM     19  O   LIG    1       -1.838  -2.243  -2.024  0.00  0.00    +0.000 OA
BRANCH  18  20
ATOM     20  C   LIG    1       -1.251  -4.496  -1.813  0.00  0.00    +0.000 A 
ATOM     21  C   LIG    1       -2.397  -4.955  -1.118  0.00  0.00    +0.000 A 
ATOM     22 CL   LIG    1       -3.519  -3.857  -0.313  0.00  0.00    +0.000 Cl
ATOM     23  C   LIG    1       -2.638  -6.327  -1.000  0.00  0.00    +0.000 A 
ATOM     24  C   LIG    1       -1.761  -7.251  -1.569  0.00  0.00    +0.000 A 
ATOM     25  C   LIG    1       -0.621  -6.810  -2.244  0.00  0.00    +0.000 A 
ATOM     26 CL   LIG    1        0.473  -7.977  -2.965  0.00  0.00    +0.000 Cl
ATOM     27  C   LIG    1       -0.353  -5.441  -2.348  0.00  0.00    +0.000 A 
ENDBRANCH  18  20
ENDBRANCH  15  16
ENDBRANCH   3  15
TORSDOF 9
