REMARK  Name = *****
REMARK                            x       y       z     vdW  Elec       q    Type
REMARK                         _______ _______ _______ _____ _____    ______ ____
ROOT
ATOM      1  C   LIG    1       -0.932   0.435   0.181  0.00  0.00    +0.014 C 
ATOM      2  C   LIG    1       -2.438   0.110   0.415  0.00  0.00    -0.003 C 
ATOM      3  C   LIG    1       -2.513  -0.701   1.741  0.00  0.00    +0.121 C 
ATOM      4  C   LIG    1       -2.596  -2.182   1.345  0.00  0.00    +0.032 C 
ATOM      5  C   LIG    1       -2.412  -2.224  -0.171  0.00  0.00    +0.007 C 
ATOM      6  C   LIG    1       -2.945  -0.874  -0.676  0.00  0.00    +0.001 C 
ATOM      7  C   LIG    1       -4.476  -0.859  -1.023  0.00  0.00    +0.001 C 
ATOM      8  C   LIG    1       -5.090   0.569  -1.020  0.00  0.00    +0.023 C 
ATOM      9  C   LIG    1       -6.615   0.608  -1.110  0.00  0.00    -0.041 A 
ATOM     10  C   LIG    1       -7.401  -0.542  -0.912  0.00  0.00    -0.041 A 
ATOM     11  C   LIG    1       -6.777  -1.900  -0.809  0.00  0.00    +0.036 C 
ATOM     12  C   LIG    1       -8.799  -0.427  -0.856  0.00  0.00    +0.049 A 
ATOM     13  C   LIG    1       -9.410   0.809  -0.987  0.00  0.00    +0.117 A 
ATOM     14  C   LIG    1       -8.655   1.951  -1.223  0.00  0.00    +0.045 A 
ATOM     15  C   LIG    1       -7.265   1.842  -1.296  0.00  0.00    +0.008 A 
ATOM     16  C   LIG    1       -4.674   1.369   0.226  0.00  0.00    +0.009 C 
ATOM     17  C   LIG    1       -5.364  -1.845  -0.241  0.00  0.00    +0.009 C 
ATOM     18  C   LIG    1       -3.170   1.454   0.393  0.00  0.00    +0.010 C 
ENDROOT
BRANCH   3  19
ATOM     19  O   LIG    1       -3.584  -0.333   2.593  0.00  0.00    -0.391 OA
ATOM     20  H   LIG    1       -4.416  -0.663   2.222  0.00  0.00    +0.210 HD
ENDBRANCH   3  19
BRANCH  13  21
ATOM     21  O   LIG    1      -10.768   0.867  -0.877  0.00  0.00    -0.507 OA
ATOM     22  H   LIG    1      -11.042   1.796  -0.936  0.00  0.00    +0.292 HD
ENDBRANCH  13  21
TORSDOF 2
