REMARK  Name = *****
REMARK                            x       y       z     vdW  Elec       q    Type
REMARK                         _______ _______ _______ _____ _____    ______ ____
ROOT
ATOM      1  C   LIG    1        4.399   5.693  -0.493  0.00  0.00    +0.005 C 
ATOM      2  C   LIG    1        5.573   6.211   0.102  0.00  0.00    +0.125 C 
ATOM      3  C   LIG    1        5.530   7.337   0.944  0.00  0.00    +0.056 C 
ATOM      4  C   LIG    1        4.301   7.875   1.347  0.00  0.00    +0.007 C 
ATOM      5  C   LIG    1        3.135   7.274   0.874  0.00  0.00    +0.048 C 
ATOM      6  N   LIG    1        2.063   7.927   1.451  0.00  0.00    -0.357 NA
ATOM      7  H   LIG    1        1.093   7.702   1.272  0.00  0.00    +0.166 HD
ATOM      8  C   LIG    1        2.536   8.961   2.198  0.00  0.00    +0.039 C 
ATOM      9  C   LIG    1        1.825  10.054   2.885  0.00  0.00    +0.123 C 
ATOM     10  C   LIG    1        0.392  10.467   3.107  0.00  0.00    +0.030 C 
ATOM     11  C   LIG    1        0.475  12.047   3.323  0.00  0.00    +0.005 C 
ATOM     12  C   LIG    1        0.261  12.638   1.926  0.00  0.00    +0.010 C 
ATOM     13  C   LIG    1        1.368  12.042   1.048  0.00  0.00    +0.008 C 
ATOM     14  C   LIG    1        1.927  12.604   3.803  0.00  0.00    +0.088 C 
ATOM     15  N   LIG    1        3.025  12.193   2.873  0.00  0.00    -0.297 NA
ATOM     16  C   LIG    1        4.247  11.489   3.393  0.00  0.00    +0.089 C 
ATOM     17  C   LIG    1        4.848  10.164   2.654  0.00  0.00    +0.053 C 
ATOM     18  C   LIG    1        2.392  11.278   1.963  0.00  0.00    +0.082 C 
ATOM     19  C   LIG    1        3.931   9.004   2.135  0.00  0.00    -0.017 C 
ATOM     20  C   LIG    1        3.158   6.224  -0.060  0.00  0.00    +0.034 C 
ENDROOT
BRANCH   1  30
ATOM     21  C   LIG    1        0.818   3.827  -6.583  0.00  0.00    +0.035 C 
ATOM     22  C   LIG    1        1.548   4.034  -5.293  0.00  0.00    -0.030 C 
ATOM     23  C   LIG    1        2.608   4.841  -5.116  0.00  0.00    -0.056 C 
ATOM     24  C   LIG    1        3.316   5.032  -3.803  0.00  0.00    +0.032 C 
ATOM     25  C   LIG    1        3.479   6.537  -3.590  0.00  0.00    +0.122 C 
ATOM     26  C   LIG    1        4.613   6.969  -4.511  0.00  0.00    +0.075 C 
ATOM     27  C   LIG    1        5.982   6.684  -3.779  0.00  0.00    +0.057 C 
ATOM     28  C   LIG    1        6.311   5.254  -3.342  0.00  0.00    -0.017 C 
ATOM     29  C   LIG    1        5.696   4.423  -2.382  0.00  0.00    +0.028 C 
ATOM     30  C   LIG    1        4.420   4.523  -1.509  0.00  0.00    +0.070 C 
ATOM     31  N   LIG    1        6.395   3.235  -2.372  0.00  0.00    -0.357 NA
ATOM     32  H   LIG    1        6.184   2.451  -1.772  0.00  0.00    +0.166 HD
ATOM     33  C   LIG    1        7.320   3.193  -3.381  0.00  0.00    +0.047 C 
ATOM     34  C   LIG    1        8.129   2.134  -3.815  0.00  0.00    +0.026 C 
ATOM     35  C   LIG    1        8.977   2.368  -4.900  0.00  0.00    +0.002 C 
ATOM     36  C   LIG    1        9.030   3.619  -5.506  0.00  0.00    +0.001 C 
ATOM     37  C   LIG    1        8.218   4.666  -5.052  0.00  0.00    +0.010 C 
ATOM     38  C   LIG    1        7.328   4.449  -3.978  0.00  0.00    +0.003 C 
ATOM     39  N   LIG    1        4.560   6.336  -5.862  0.00  0.00    -0.297 NA
ATOM     40  C   LIG    1        4.931   7.315  -6.886  0.00  0.00    +0.105 C 
ATOM     41  C   LIG    1        3.141   4.304  -2.460  0.00  0.00    +0.023 C 
ATOM     42  C   LIG    1        3.287   5.658  -6.233  0.00  0.00    +0.115 C 
BRANCH  25  43
ATOM     43  C   LIG    1        2.173   7.320  -3.700  0.00  0.00    +0.312 C 
ATOM     44  O   LIG    1        1.323   7.342  -2.818  0.00  0.00    -0.251 OA
BRANCH  43  45
ATOM     45  O   LIG    1        2.060   7.958  -4.894  0.00  0.00    -0.468 OA
ATOM     46  C   LIG    1        0.837   8.643  -5.151  0.00  0.00    +0.280 C 
ENDBRANCH  43  45
ENDBRANCH  25  43
ENDBRANCH   1  30
BRANCH   2  47
ATOM     47  O   LIG    1        6.772   5.612  -0.194  0.00  0.00    -0.495 OA
ATOM     48  C   LIG    1        7.786   5.712   0.799  0.00  0.00    +0.277 C 
ENDBRANCH   2  47
BRANCH   9  49
ATOM     49  C   LIG    1        2.166   9.653   4.452  0.00  0.00    +0.321 C 
ATOM     50  O   LIG    1        2.479  10.380   5.373  0.00  0.00    -0.250 OA
BRANCH  49  51
ATOM     51  O   LIG    1        1.810   8.340   4.697  0.00  0.00    -0.467 OA
ATOM     52  C   LIG    1        1.596   8.022   6.081  0.00  0.00    +0.280 C 
ENDBRANCH  49  51
ENDBRANCH   9  49
BRANCH  13  53
ATOM     53  C   LIG    1        0.813  11.193  -0.118  0.00  0.00    +0.002 C 
ATOM     54  C   LIG    1        1.892  10.618  -1.030  0.00  0.00    +0.004 C 
ENDBRANCH  13  53
TORSDOF 7
