REMARK  Name = *****
REMARK                            x       y       z     vdW  Elec       q    Type
REMARK                         _______ _______ _______ _____ _____    ______ ____
ROOT
ATOM      1  C   LIG    1        0.971  -0.022  -0.084  0.00  0.00    +0.045 C 
ATOM      2  C   LIG    1        2.474   0.046  -0.083  0.00  0.00    -0.028 A 
ATOM      3  C   LIG    1        3.164   1.276  -0.084  0.00  0.00    +0.047 A 
ATOM      4 CL   LIG    1        2.267   2.763  -0.085  0.00  0.00    -0.083 Cl
ATOM      5  C   LIG    1        4.572   1.312  -0.083  0.00  0.00    -0.028 A 
ATOM      6  C   LIG    1        5.338   2.607  -0.085  0.00  0.00    +0.045 C 
ATOM      7  C   LIG    1        5.281   0.102  -0.081  0.00  0.00    +0.050 A 
ATOM      8  C   LIG    1        4.601  -1.109  -0.080  0.00  0.00    +0.117 A 
ATOM      9  C   LIG    1        3.211  -1.149  -0.081  0.00  0.00    +0.050 A 
ENDROOT
BRANCH   8  10
ATOM     10  O   LIG    1        5.344  -2.252  -0.077  0.00  0.00    -0.507 OA
ATOM     11  H   LIG    1        4.745  -3.016  -0.076  0.00  0.00    +0.292 HD
ENDBRANCH   8  10
TORSDOF 1
