REMARK  Name = *****
REMARK                            x       y       z     vdW  Elec       q    Type
REMARK                         _______ _______ _______ _____ _____    ______ ____
ROOT
ATOM      1  N   LIG    1        0.908  -1.177   3.702  0.00  0.00    -0.302 N 
ATOM      2  H   LIG    1        1.070  -1.660   4.580  0.00  0.00    +0.149 HD
ATOM      3  C   LIG    1       -0.376  -1.226   3.177  0.00  0.00    +0.299 C 
ATOM      4  O   LIG    1       -0.704  -0.749   2.111  0.00  0.00    -0.265 OA
ENDROOT
BRANCH   3   5
ATOM      5  C   LIG    1       -1.360  -2.052   4.021  0.00  0.00    +0.299 C 
ATOM      6  N   LIG    1       -1.925  -3.121   3.353  0.00  0.00    -0.302 N 
ATOM      7  H   LIG    1       -1.690  -3.216   2.363  0.00  0.00    +0.149 HD
ATOM      8  O   LIG    1       -1.510  -1.786   5.201  0.00  0.00    -0.265 OA
BRANCH   6   9
ATOM      9  C   LIG    1       -2.877  -4.067   3.931  0.00  0.00    +0.155 C 
BRANCH   9  10
ATOM     10  C   LIG    1       -3.220  -3.823   5.414  0.00  0.00    +0.152 C 
BRANCH  10  11
ATOM     11  N   LIG    1       -4.171  -4.831   6.104  0.00  0.00    +0.247 N 
BRANCH  11  12
ATOM     12  C   LIG    1       -5.562  -4.854   5.402  0.00  0.00    +0.130 C 
ATOM     13  C   LIG    1       -6.269  -3.501   5.330  0.00  0.00    +0.060 C 
ENDBRANCH  11  12
BRANCH  11  14
ATOM     14  C   LIG    1       -4.370  -4.330   7.567  0.00  0.00    +0.130 C 
ATOM     15  C   LIG    1       -3.083  -4.189   8.376  0.00  0.00    +0.060 C 
ENDBRANCH  11  14
BRANCH  11  16
ATOM     16  C   LIG    1       -3.525  -6.258   6.061  0.00  0.00    +0.171 C 
BRANCH  16  17
ATOM     17  C   LIG    1       -4.212  -7.449   6.695  0.00  0.00    +0.015 A 
ATOM     18  C   LIG    1       -3.880  -7.954   7.968  0.00  0.00    +0.049 A 
ATOM     19 CL   LIG    1       -2.619  -7.298   8.940  0.00  0.00    -0.083 Cl
ATOM     20  C   LIG    1       -4.498  -9.099   8.480  0.00  0.00    +0.020 A 
ATOM     21  C   LIG    1       -5.424  -9.799   7.715  0.00  0.00    +0.001 A 
ATOM     22  C   LIG    1       -5.725  -9.359   6.432  0.00  0.00    +0.001 A 
ATOM     23  C   LIG    1       -5.129  -8.197   5.928  0.00  0.00    +0.010 A 
ENDBRANCH  16  17
ENDBRANCH  11  16
ENDBRANCH  10  11
ENDBRANCH   9  10
ENDBRANCH   6   9
ENDBRANCH   3   5
BRANCH   1  24
ATOM     24  C   LIG    1        2.000  -0.448   3.043  0.00  0.00    +0.155 C 
BRANCH  24  25
ATOM     25  C   LIG    1        2.601  -1.290   1.895  0.00  0.00    +0.152 C 
BRANCH  25  26
ATOM     26  N   LIG    1        3.843  -0.752   1.138  0.00  0.00    +0.247 N 
BRANCH  26  28
ATOM     27  C   LIG    1        3.172  -2.188  -0.911  0.00  0.00    +0.060 C 
ATOM     28  C   LIG    1        4.263  -1.865   0.116  0.00  0.00    +0.130 C 
ENDBRANCH  26  28
BRANCH  26  29
ATOM     29  C   LIG    1        3.457   0.561   0.383  0.00  0.00    +0.130 C 
ATOM     30  C   LIG    1        4.553   1.109  -0.535  0.00  0.00    +0.060 C 
ENDBRANCH  26  29
BRANCH  26  31
ATOM     31  C   LIG    1        5.076  -0.431   2.076  0.00  0.00    +0.171 C 
BRANCH  31  32
ATOM     32  C   LIG    1        5.719  -1.531   2.906  0.00  0.00    +0.015 A 
ATOM     33  C   LIG    1        7.091  -1.845   2.812  0.00  0.00    +0.049 A 
ATOM     34 CL   LIG    1        8.177  -0.958   1.799  0.00  0.00    -0.083 Cl
ATOM     35  C   LIG    1        7.664  -2.864   3.591  0.00  0.00    +0.020 A 
ATOM     36  C   LIG    1        6.892  -3.561   4.515  0.00  0.00    +0.001 A 
ATOM     37  C   LIG    1        5.561  -3.212   4.688  0.00  0.00    +0.001 A 
ATOM     38  C   LIG    1        4.993  -2.205   3.902  0.00  0.00    +0.010 A 
ENDBRANCH  31  32
ENDBRANCH  26  31
ENDBRANCH  25  26
ENDBRANCH  24  25
ENDBRANCH   1  24
TORSDOF 15
