REMARK  Name = *****
REMARK                            x       y       z     vdW  Elec       q    Type
REMARK                         _______ _______ _______ _____ _____    ______ ____
ROOT
ATOM      1  C   LIG    1        3.385   1.285  -1.827  0.00  0.00    +0.132 C 
ATOM      2  C   LIG    1        2.896   2.272  -0.716  0.00  0.00    +0.014 C 
ATOM      3  C   LIG    1        3.728   1.836   0.541  0.00  0.00    +0.002 C 
ATOM      4  C   LIG    1        4.956   2.699   0.952  0.00  0.00    -0.003 C 
ATOM      5  C   LIG    1        4.759   4.213   0.712  0.00  0.00    -0.000 C 
ATOM      6  C   LIG    1        4.417   4.402  -0.766  0.00  0.00    +0.005 C 
ATOM      7  C   LIG    1        3.744   4.817   1.723  0.00  0.00    +0.019 C 
ATOM      8  C   LIG    1        4.253   4.533   3.127  0.00  0.00    -0.064 C 
ATOM      9  C   LIG    1        4.595   5.482   4.015  0.00  0.00    +0.026 C 
ATOM     10  C   LIG    1        4.586   6.921   3.625  0.00  0.00    +0.080 C 
ATOM     11  C   LIG    1        4.477   7.218   2.142  0.00  0.00    +0.059 C 
ATOM     12  N   LIG    1        4.712   7.932   4.430  0.00  0.00    -0.092 NA
ATOM     13  C   LIG    1        4.416   3.071   3.443  0.00  0.00    +0.031 C 
ATOM     14  C   LIG    1        3.429   6.310   1.520  0.00  0.00    +0.014 C 
ATOM     15  C   LIG    1        5.360   2.426   2.422  0.00  0.00    +0.008 C 
ATOM     16  C   LIG    1        4.180   0.376   0.276  0.00  0.00    +0.008 C 
ATOM     17  C   LIG    1        3.089   3.763  -1.138  0.00  0.00    +0.011 C 
ATOM     18  C   LIG    1        3.660  -0.031  -1.098  0.00  0.00    +0.049 C 
ENDROOT
BRANCH   1  20
ATOM     19  C   LIG    1        1.645   0.941  -3.828  0.00  0.00    +0.007 C 
ATOM     20  C   LIG    1        2.427   1.097  -2.930  0.00  0.00    -0.070 C 
ENDBRANCH   1  20
BRANCH   1  21
ATOM     21  O   LIG    1        4.610   1.734  -2.408  0.00  0.00    -0.376 OA
ATOM     22  H   LIG    1        5.318   1.637  -1.753  0.00  0.00    +0.211 HD
ENDBRANCH   1  21
BRANCH  12  23
ATOM     23  O   LIG    1        4.811   7.529   5.767  0.00  0.00    -0.409 OA
ATOM     24  H   LIG    1        4.864   8.382   6.236  0.00  0.00    +0.328 HD
ENDBRANCH  12  23
BRANCH   2  25
ATOM     25  C   LIG    1        1.357   2.150  -0.380  0.00  0.00    +0.007 C 
ATOM     26  C   LIG    1        0.781   0.804   0.040  0.00  0.00    +0.004 C 
ENDBRANCH   2  25
TORSDOF 4
