REMARK  Name = *****
REMARK                            x       y       z     vdW  Elec       q    Type
REMARK                         _______ _______ _______ _____ _____    ______ ____
ROOT
ATOM      1  N   LIG    1        1.735   4.148   2.558  0.00  0.00    -0.298 NA
ATOM      2  C   LIG    1        0.267   4.112   2.480  0.00  0.00    +0.090 C 
ATOM      3  C   LIG    1       -0.315   4.825   1.247  0.00  0.00    +0.069 C 
ATOM      4  C   LIG    1        0.355   6.159   0.923  0.00  0.00    +0.027 C 
ATOM      5  C   LIG    1        1.476   6.458   1.607  0.00  0.00    +0.010 C 
ATOM      6  C   LIG    1        2.151   5.555   2.605  0.00  0.00    +0.113 C 
ENDROOT
BRANCH   4   7
ATOM      7  N   LIG    1       -0.247   6.981  -0.041  0.00  0.00    -0.265 N 
ATOM      8  C   LIG    1        0.132   8.264  -0.560  0.00  0.00    +0.074 A 
ATOM      9  C   LIG    1       -0.828   8.662  -1.495  0.00  0.00    +0.067 A 
ATOM     10  C   LIG    1       -0.785   9.852  -2.195  0.00  0.00    +0.028 A 
ATOM     11  C   LIG    1        0.291  10.698  -1.944  0.00  0.00    +0.002 A 
ATOM     12  C   LIG    1        1.278  10.327  -1.019  0.00  0.00    +0.002 A 
ATOM     13  N   LIG    1       -1.786   7.675  -1.597  0.00  0.00    -0.306 N 
ATOM     14  H   LIG    1       -2.594   7.668  -2.198  0.00  0.00    +0.171 HD
ATOM     15  C   LIG    1        1.205   9.107  -0.327  0.00  0.00    +0.028 A 
ATOM     16  C   LIG    1       -1.467   6.620  -0.741  0.00  0.00    +0.332 C 
ATOM     17  O   LIG    1       -2.152   5.609  -0.664  0.00  0.00    -0.246 OA
ENDBRANCH   4   7
BRANCH   1  18
ATOM     18  C   LIG    1        2.410   3.427   1.461  0.00  0.00    +0.085 C 
BRANCH  18  19
ATOM     19  C   LIG    1        2.090   1.925   1.386  0.00  0.00    +0.023 C 
BRANCH  19  20
ATOM     20  C   LIG    1        2.455   1.190   2.675  0.00  0.00    +0.081 C 
BRANCH  20  22
ATOM     21  O   LIG    1        1.669  -0.850   1.633  0.00  0.00    -0.292 OA
ATOM     22  C   LIG    1        2.163  -0.300   2.614  0.00  0.00    +0.163 C 
BRANCH  22  23
ATOM     23  C   LIG    1        2.547  -1.129   3.797  0.00  0.00    +0.018 A 
ATOM     24  C   LIG    1        2.857  -2.483   3.602  0.00  0.00    +0.014 A 
ATOM     25  C   LIG    1        3.255  -3.273   4.684  0.00  0.00    +0.039 A 
ATOM     26  C   LIG    1        3.325  -2.713   5.955  0.00  0.00    +0.123 A 
ATOM     27  F   LIG    1        3.709  -3.468   6.991  0.00  0.00    -0.205 F 
ATOM     28  C   LIG    1        3.001  -1.376   6.166  0.00  0.00    +0.039 A 
ATOM     29  C   LIG    1        2.614  -0.581   5.086  0.00  0.00    +0.014 A 
ENDBRANCH  22  23
ENDBRANCH  20  22
ENDBRANCH  19  20
ENDBRANCH  18  19
ENDBRANCH   1  18
TORSDOF 6
