REMARK  Name = *****
REMARK                            x       y       z     vdW  Elec       q    Type
REMARK                         _______ _______ _______ _____ _____    ______ ____
ROOT
ATOM      1  C   LIG    1        3.685   1.192  -6.323  0.00  0.00    +0.179 C 
ENDROOT
BRANCH   1   2
ATOM      2  C   LIG    1        3.151   2.374  -7.143  0.00  0.00    -0.015 A 
ATOM      3  C   LIG    1        2.023   3.125  -6.762  0.00  0.00    +0.006 A 
ATOM      4  C   LIG    1        1.512   4.125  -7.600  0.00  0.00    +0.000 A 
ATOM      5  C   LIG    1        2.105   4.383  -8.834  0.00  0.00    +0.000 A 
ATOM      6  C   LIG    1        3.237   3.672  -9.217  0.00  0.00    +0.000 A 
ATOM      7  C   LIG    1        3.761   2.693  -8.371  0.00  0.00    +0.006 A 
ENDBRANCH   1   2
BRANCH   1   8
ATOM      8  C   LIG    1        3.225  -0.130  -6.933  0.00  0.00    -0.015 A 
ATOM      9  C   LIG    1        2.025  -0.754  -6.551  0.00  0.00    +0.006 A 
ATOM     10  C   LIG    1        1.594  -1.910  -7.207  0.00  0.00    +0.000 A 
ATOM     11  C   LIG    1        2.331  -2.445  -8.259  0.00  0.00    +0.000 A 
ATOM     12  C   LIG    1        3.525  -1.839  -8.650  0.00  0.00    +0.000 A 
ATOM     13  C   LIG    1        3.969  -0.701  -7.980  0.00  0.00    +0.006 A 
ENDBRANCH   1   8
BRANCH   1  14
ATOM     14  O   LIG    1        3.329   1.340  -4.945  0.00  0.00    -0.364 OA
BRANCH  14  19
ATOM     15  C   LIG    1        5.793   3.068  -0.783  0.00  0.00    +0.105 C 
ATOM     16  N   LIG    1        5.301   2.056  -1.724  0.00  0.00    -0.299 NA
ATOM     17  C   LIG    1        3.857   2.211  -1.992  0.00  0.00    +0.059 C 
ATOM     18  C   LIG    1        3.399   0.867  -2.607  0.00  0.00    +0.050 C 
ATOM     19  C   LIG    1        4.064   0.579  -3.968  0.00  0.00    +0.122 C 
ATOM     20  C   LIG    1        5.573   0.898  -3.859  0.00  0.00    +0.050 C 
ATOM     21  C   LIG    1        3.790   3.402  -2.961  0.00  0.00    +0.020 C 
ATOM     22  C   LIG    1        5.146   3.398  -3.676  0.00  0.00    +0.020 C 
ATOM     23  C   LIG    1        5.880   2.198  -3.077  0.00  0.00    +0.059 C 
ENDBRANCH  14  19
ENDBRANCH   1  14
TORSDOF 4
