REMARK  Name = *****
REMARK                            x       y       z     vdW  Elec       q    Type
REMARK                         _______ _______ _______ _____ _____    ______ ____
ROOT
ATOM      1  C   LIG    1        9.330  11.418  -9.756  0.00  0.00    +0.147 C 
ATOM      2  C   LIG    1        8.316  12.443 -10.329  0.00  0.00    +0.068 C 
ATOM      3  C   LIG    1        8.407  12.764 -11.839  0.00  0.00    +0.141 C 
ATOM      4  O   LIG    1        9.730  13.194 -12.120  0.00  0.00    -0.344 OA
ATOM      5  C   LIG    1       10.033  13.656 -13.422  0.00  0.00    +0.172 C 
ATOM      6  C   LIG    1        8.805  14.008 -14.257  0.00  0.00    +0.097 C 
ATOM      7  C   LIG    1        7.744  14.687 -13.391  0.00  0.00    +0.136 C 
ATOM      8  C   LIG    1       11.073  12.754 -14.120  0.00  0.00    +0.096 C 
ATOM      9  C   LIG    1       10.629  11.393 -14.681  0.00  0.00    +0.122 C 
ATOM     10  C   LIG    1       10.192  11.489 -16.153  0.00  0.00    +0.066 C 
ATOM     11  C   LIG    1        9.192  10.455 -16.573  0.00  0.00    +0.154 C 
ATOM     12  C   LIG    1        9.462   8.981 -16.799  0.00  0.00    +0.171 C 
ATOM     13  C   LIG    1       10.704   8.367 -16.270  0.00  0.00    +0.014 C 
ATOM     14  C   LIG    1       10.726   7.405 -15.339  0.00  0.00    +0.090 C 
ATOM     15  C   LIG    1       11.956   6.842 -14.736  0.00  0.00    +0.332 C 
ATOM     16  O   LIG    1       11.937   5.879 -13.989  0.00  0.00    -0.246 OA
ATOM     17  O   LIG    1       13.024   7.588 -15.072  0.00  0.00    -0.458 OA
ATOM     18  C   LIG    1       14.291   7.364 -14.404  0.00  0.00    +0.177 C 
ATOM     19  C   LIG    1       14.814   5.942 -14.635  0.00  0.00    +0.052 C 
ATOM     20  C   LIG    1       14.233   7.708 -12.905  0.00  0.00    +0.071 C 
ATOM     21  C   LIG    1       13.656   9.066 -12.580  0.00  0.00    -0.023 C 
ATOM     22  C   LIG    1       14.272   9.952 -11.783  0.00  0.00    -0.004 C 
ATOM     23  C   LIG    1       13.659  11.178 -11.314  0.00  0.00    -0.000 C 
ATOM     24  C   LIG    1       14.253  11.946 -10.390  0.00  0.00    +0.000 C 
ATOM     25  C   LIG    1       13.788  13.180  -9.806  0.00  0.00    +0.000 C 
ATOM     26  C   LIG    1       12.572  13.638  -9.481  0.00  0.00    -0.000 C 
ATOM     27  C   LIG    1       11.236  13.130  -9.685  0.00  0.00    -0.002 C 
ATOM     28  O   LIG    1        9.456   9.925 -17.881  0.00  0.00    -0.364 OA
ATOM     29  C   LIG    1        7.328  13.797 -12.221  0.00  0.00    +0.155 C 
ATOM     30  C   LIG    1       10.771  11.877  -9.564  0.00  0.00    +0.004 C 
ENDROOT
BRANCH   7  31
ATOM     31  O   LIG    1        8.203  15.940 -12.868  0.00  0.00    -0.391 OA
ATOM     32  H   LIG    1        9.182  15.889 -12.801  0.00  0.00    +0.210 HD
ENDBRANCH   7  31
BRANCH   5  33
ATOM     33  O   LIG    1       10.694  14.907 -13.154  0.00  0.00    -0.364 OA
ATOM     34  H   LIG    1       11.477  14.657 -12.630  0.00  0.00    +0.213 HD
ENDBRANCH   5  33
BRANCH   9  35
ATOM     35  O   LIG    1        9.620  10.801 -13.884  0.00  0.00    -0.392 OA
ATOM     36  H   LIG    1       10.022  10.509 -13.043  0.00  0.00    +0.210 HD
ENDBRANCH   9  35
BRANCH  29  37
ATOM     37  C   LIG    1        6.074  13.049 -12.629  0.00  0.00    +0.313 C 
ATOM     38  O   LIG    1        6.012  12.290 -13.583  0.00  0.00    -0.251 OA
BRANCH  37  39
ATOM     39  O   LIG    1        5.005  13.284 -11.837  0.00  0.00    -0.480 OA
ATOM     40  H   LIG    1        5.137  13.953 -11.140  0.00  0.00    +0.295 HD
ENDBRANCH  37  39
ENDBRANCH  29  37
BRANCH   1  41
ATOM     41  O   LIG    1        9.386  10.185 -10.482  0.00  0.00    -0.341 OA
BRANCH  41  47
ATOM     42  C   LIG    1        9.364   6.120 -11.588  0.00  0.00    +0.040 C 
ATOM     43  C   LIG    1        9.028   7.289 -10.672  0.00  0.00    +0.148 C 
ATOM     44  C   LIG    1        8.036   6.871  -9.577  0.00  0.00    +0.162 C 
ATOM     45  C   LIG    1        7.705   8.095  -8.705  0.00  0.00    +0.116 C 
ATOM     46  C   LIG    1        7.207   9.251  -9.581  0.00  0.00    +0.189 C 
ATOM     47  C   LIG    1        8.155   9.520 -10.778  0.00  0.00    +0.281 C 
ATOM     48  O   LIG    1        8.463   8.314 -11.492  0.00  0.00    -0.343 OA
BRANCH  45  49
ATOM     49  N   LIG    1        6.672   7.746  -7.691  0.00  0.00    -0.323 NA
ATOM     50  H   LIG    1        6.484   8.566  -7.111  0.00  0.00    +0.119 HD
ATOM     51  H   LIG    1        7.082   7.062  -7.051  0.00  0.00    +0.119 HD
ENDBRANCH  45  49
BRANCH  44  52
ATOM     52  O   LIG    1        8.578   5.839  -8.749  0.00  0.00    -0.388 OA
ATOM     53  H   LIG    1        7.811   5.408  -8.332  0.00  0.00    +0.210 HD
ENDBRANCH  44  52
BRANCH  46  54
ATOM     54  O   LIG    1        5.882   8.942 -10.052  0.00  0.00    -0.385 OA
ATOM     55  H   LIG    1        5.478   8.388  -9.352  0.00  0.00    +0.210 HD
ENDBRANCH  46  54
ENDBRANCH  41  47
ENDBRANCH   1  41
TORSDOF 10
