REMARK  Name = *****
REMARK                            x       y       z     vdW  Elec       q    Type
REMARK                         _______ _______ _______ _____ _____    ______ ____
ROOT
ATOM      1  C   LIG    1       10.895   4.848  -4.973  0.00  0.00    +0.031 C 
ATOM      2  C   LIG    1       10.605   6.285  -4.518  0.00  0.00    +0.121 C 
ATOM      3  C   LIG    1       11.538   7.118  -5.394  0.00  0.00    +0.063 C 
ATOM      4  C   LIG    1       12.841   6.327  -5.341  0.00  0.00    +0.124 C 
ATOM      5  C   LIG    1       12.413   4.837  -5.308  0.00  0.00    +0.046 C 
ENDROOT
BRANCH   2   6
ATOM      6  O   LIG    1       10.906   6.492  -3.142  0.00  0.00    -0.391 OA
ATOM      7  H   LIG    1       11.880   6.447  -3.039  0.00  0.00    +0.210 HD
ENDBRANCH   2   6
BRANCH   4   8
ATOM      8  O   LIG    1       13.517   6.644  -4.118  0.00  0.00    -0.391 OA
ATOM      9  H   LIG    1       13.860   7.553  -4.207  0.00  0.00    +0.210 HD
ENDBRANCH   4   8
BRANCH   5  10
ATOM     10  C   LIG    1       12.656   4.149  -6.633  0.00  0.00    -0.019 C 
ATOM     11  C   LIG    1       12.944   2.841  -6.750  0.00  0.00    +0.047 C 
BRANCH  11  12
ATOM     12  C   LIG    1       13.155   2.118  -8.050  0.00  0.00    +0.300 C 
ATOM     13  F   LIG    1       12.400   2.683  -9.039  0.00  0.00    -0.197 F 
ATOM     14  F   LIG    1       12.711   0.835  -7.946  0.00  0.00    -0.197 F 
BRANCH  12  15
ATOM     15  C   LIG    1       14.612   2.118  -8.516  0.00  0.00    +0.308 C 
BRANCH  15  16
ATOM     16  O   LIG    1       15.470   1.489  -7.554  0.00  0.00    -0.486 OA
BRANCH  16  17
ATOM     17  C   LIG    1       16.645   1.014  -8.069  0.00  0.00    +0.121 A 
ATOM     18  C   LIG    1       17.302   1.554  -9.177  0.00  0.00    +0.045 A 
ATOM     19  C   LIG    1       18.466   0.954  -9.660  0.00  0.00    +0.004 A 
ATOM     20  C   LIG    1       18.987  -0.172  -9.025  0.00  0.00    +0.000 A 
ATOM     21  C   LIG    1       18.357  -0.686  -7.893  0.00  0.00    +0.004 A 
ATOM     22  C   LIG    1       17.193  -0.087  -7.410  0.00  0.00    +0.045 A 
ENDBRANCH  16  17
ENDBRANCH  15  16
ENDBRANCH  12  15
ENDBRANCH  11  12
ENDBRANCH   5  10
BRANCH   1  23
ATOM     23  C   LIG    1       10.501   3.734  -3.988  0.00  0.00    +0.033 C 
BRANCH  23  25
ATOM     24  C   LIG    1        8.105   2.990  -4.267  0.00  0.00    -0.031 C 
ATOM     25  C   LIG    1        9.031   3.746  -3.654  0.00  0.00    -0.031 C 
BRANCH  24  26
ATOM     26  C   LIG    1        6.613   3.021  -4.029  0.00  0.00    +0.027 C 
BRANCH  26  27
ATOM     27  C   LIG    1        6.152   3.436  -2.622  0.00  0.00    +0.015 C 
BRANCH  27  28
ATOM     28  C   LIG    1        4.627   3.518  -2.486  0.00  0.00    +0.121 C 
BRANCH  28  29
ATOM     29  C   LIG    1        4.047   4.590  -3.362  0.00  0.00    +0.307 C 
ATOM     30  O   LIG    1        3.302   4.350  -4.315  0.00  0.00    -0.251 OA
BRANCH  29  31
ATOM     31  O   LIG    1        4.517   5.814  -3.022  0.00  0.00    -0.462 OA
BRANCH  31  33
ATOM     32  C   LIG    1        3.690   8.014  -3.637  0.00  0.00    +0.051 C 
ATOM     33  C   LIG    1        4.516   6.808  -4.054  0.00  0.00    +0.170 C 
ATOM     34  C   LIG    1        5.974   7.182  -4.290  0.00  0.00    +0.051 C 
ENDBRANCH  31  33
ENDBRANCH  29  31
ENDBRANCH  28  29
ENDBRANCH  27  28
ENDBRANCH  26  27
ENDBRANCH  24  26
ENDBRANCH  23  25
ENDBRANCH   1  23
TORSDOF 15
