REMARK  Name = *****
REMARK                            x       y       z     vdW  Elec       q    Type
REMARK                         _______ _______ _______ _____ _____    ______ ____
ROOT
ATOM      1  C   LIG    1        7.265  -3.497  -4.970  0.00  0.00    +0.142 C 
ATOM      2  C   LIG    1        8.512  -3.604  -5.848  0.00  0.00    +0.237 C 
ATOM      3  O   LIG    1        9.313  -4.518  -5.584  0.00  0.00    -0.274 OA
ATOM      4  N   LIG    1        8.797  -2.796  -6.953  0.00  0.00    -0.259 N 
ATOM      5  C   LIG    1        8.514  -1.378  -7.139  0.00  0.00    +0.040 A 
ATOM      6  C   LIG    1        7.703  -0.594  -6.300  0.00  0.00    -0.026 A 
ATOM      7  C   LIG    1        7.745   0.825  -6.389  0.00  0.00    +0.005 A 
ATOM      8  C   LIG    1        8.449   1.478  -7.389  0.00  0.00    +0.000 A 
ATOM      9  C   LIG    1        9.095   0.718  -8.340  0.00  0.00    +0.002 A 
ATOM     10  C   LIG    1        6.646  -1.104  -5.359  0.00  0.00    +0.039 C 
ATOM     11  C   LIG    1        9.133  -0.677  -8.207  0.00  0.00    +0.024 A 
ATOM     12  C   LIG    1        6.250  -2.549  -5.592  0.00  0.00    +0.033 C 
ENDROOT
BRANCH   1  13
ATOM     13  N   LIG    1        7.541  -3.181  -3.536  0.00  0.00    -0.293 NA
ATOM     14  H   LIG    1        6.646  -3.119  -3.054  0.00  0.00    +0.123 HD
BRANCH  13  15
ATOM     15  C   LIG    1        8.435  -4.099  -2.755  0.00  0.00    +0.164 C 
BRANCH  15  16
ATOM     16  C   LIG    1        8.019  -5.574  -2.783  0.00  0.00    +0.324 C 
ATOM     17  O   LIG    1        6.873  -5.996  -2.550  0.00  0.00    -0.249 OA
BRANCH  16  18
ATOM     18  O   LIG    1        9.097  -6.368  -3.095  0.00  0.00    -0.464 OA
BRANCH  18  20
ATOM     19  C   LIG    1        8.865  -8.374  -1.727  0.00  0.00    +0.048 C 
ATOM     20  C   LIG    1        8.907  -7.803  -3.135  0.00  0.00    +0.229 C 
ENDBRANCH  18  20
ENDBRANCH  16  18
ENDBRANCH  15  16
BRANCH  15  21
ATOM     21  C   LIG    1        8.556  -3.615  -1.264  0.00  0.00    +0.035 C 
BRANCH  21  22
ATOM     22  C   LIG    1        7.240  -3.555  -0.450  0.00  0.00    +0.037 C 
BRANCH  22  23
ATOM     23  C   LIG    1        7.340  -3.060   0.988  0.00  0.00    -0.047 A 
ATOM     24  C   LIG    1        7.699  -1.734   1.273  0.00  0.00    +0.003 A 
ATOM     25  C   LIG    1        7.661  -1.243   2.585  0.00  0.00    +0.000 A 
ATOM     26  C   LIG    1        7.276  -2.070   3.637  0.00  0.00    +0.000 A 
ATOM     27  C   LIG    1        6.924  -3.391   3.376  0.00  0.00    +0.000 A 
ATOM     28  C   LIG    1        6.947  -3.880   2.062  0.00  0.00    +0.003 A 
ENDBRANCH  22  23
ENDBRANCH  21  22
ENDBRANCH  15  21
ENDBRANCH  13  15
ENDBRANCH   1  13
BRANCH   4  29
ATOM     29  C   LIG    1        9.739  -3.443  -7.901  0.00  0.00    +0.234 C 
BRANCH  29  30
ATOM     30  C   LIG    1       11.211  -3.304  -7.548  0.00  0.00    +0.323 C 
ATOM     31  O   LIG    1       12.074  -3.361  -8.436  0.00  0.00    -0.249 OA
BRANCH  30  32
ATOM     32  O   LIG    1       11.528  -3.217  -6.251  0.00  0.00    -0.479 OA
ATOM     33  H   LIG    1       10.748  -3.454  -5.683  0.00  0.00    +0.295 HD
ENDBRANCH  30  32
ENDBRANCH  29  30
ENDBRANCH   4  29
TORSDOF 11
