REMARK  Name = *****
REMARK                            x       y       z     vdW  Elec       q    Type
REMARK                         _______ _______ _______ _____ _____    ______ ____
ROOT
ATOM      1  C   LIG    1        8.970   0.470   1.778  0.00  0.00    +0.031 C 
ATOM      2  C   LIG    1        8.609  -0.947   1.792  0.00  0.00    +0.050 C 
ATOM      3  N   LIG    1        9.224  -1.986   1.077  0.00  0.00    -0.354 NA
ATOM      4  H   LIG    1        9.986  -1.862   0.420  0.00  0.00    +0.166 HD
ATOM      5  C   LIG    1        8.663  -3.242   1.401  0.00  0.00    +0.049 C 
ATOM      6  C   LIG    1        7.646  -2.947   2.299  0.00  0.00    +0.028 C 
ATOM      7  C   LIG    1        9.118  -4.556   0.871  0.00  0.00    +0.027 C 
ATOM      8  C   LIG    1        9.963  -4.625  -0.207  0.00  0.00    +0.052 C 
ATOM      9  C   LIG    1       10.544  -5.882  -0.847  0.00  0.00    +0.062 C 
ATOM     10  C   LIG    1       11.749  -5.410  -1.618  0.00  0.00    +0.062 C 
ATOM     11  C   LIG    1       11.509  -3.945  -1.566  0.00  0.00    +0.052 C 
ATOM     12  C   LIG    1       12.512  -3.047  -2.204  0.00  0.00    +0.027 C 
ATOM     13  C   LIG    1       13.293  -2.429  -1.302  0.00  0.00    +0.049 C 
ATOM     14  N   LIG    1       13.989  -1.228  -1.442  0.00  0.00    -0.354 N 
ATOM     15  H   LIG    1       13.743  -0.706  -2.281  0.00  0.00    +0.166 HD
ATOM     16  C   LIG    1       13.780  -0.546  -0.244  0.00  0.00    +0.050 C 
ATOM     17  C   LIG    1       13.545  -1.558   0.767  0.00  0.00    +0.028 C 
ATOM     18  C   LIG    1       13.439   0.753  -0.114  0.00  0.00    +0.031 C 
ATOM     19  C   LIG    1       12.240   0.966   0.765  0.00  0.00    +0.074 C 
ATOM     20  N   LIG    1       11.216   0.165   0.894  0.00  0.00    -0.246 NA
ATOM     21  C   LIG    1       12.140   2.247   1.485  0.00  0.00    +0.030 C 
ATOM     22  C   LIG    1       10.893   2.131   1.949  0.00  0.00    +0.030 C 
ATOM     23  C   LIG    1       13.286  -2.707   0.135  0.00  0.00    +0.028 C 
ATOM     24  N   LIG    1       10.509  -3.526  -0.844  0.00  0.00    -0.255 NA
ATOM     25  C   LIG    1        7.658  -1.567   2.590  0.00  0.00    +0.028 C 
ATOM     26  C   LIG    1       10.255   0.874   1.571  0.00  0.00    +0.074 C 
ENDROOT
BRANCH   1  29
ATOM     27  C   LIG    1        6.668   3.046   3.523  0.00  0.00    +0.117 A 
ATOM     28  C   LIG    1        7.613   2.022   3.336  0.00  0.00    +0.054 A 
ATOM     29  C   LIG    1        7.920   1.553   2.051  0.00  0.00    -0.010 A 
ATOM     30  C   LIG    1        7.214   2.130   0.972  0.00  0.00    +0.009 A 
ATOM     31  C   LIG    1        6.253   3.143   1.170  0.00  0.00    +0.004 A 
ATOM     32  C   LIG    1        5.984   3.612   2.452  0.00  0.00    +0.045 A 
BRANCH  27  33
ATOM     33  O   LIG    1        6.441   3.477   4.801  0.00  0.00    -0.507 OA
ATOM     34  H   LIG    1        5.735   4.145   4.791  0.00  0.00    +0.292 HD
ENDBRANCH  27  33
ENDBRANCH   1  29
BRANCH   7  35
ATOM     35  C   LIG    1        8.674  -5.885   1.541  0.00  0.00    -0.011 C 
ATOM     36  C   LIG    1        8.495  -7.095   0.839  0.00  0.00    +0.054 C 
ATOM     37  C   LIG    1        8.211  -8.307   1.478  0.00  0.00    +0.117 C 
ATOM     38  C   LIG    1        7.940  -8.347   2.832  0.00  0.00    +0.045 C 
ATOM     39  C   LIG    1        8.012  -7.160   3.552  0.00  0.00    +0.004 C 
ATOM     40  C   LIG    1        8.421  -5.965   2.925  0.00  0.00    +0.009 C 
BRANCH  37  41
ATOM     41  O   LIG    1        8.221  -9.440   0.717  0.00  0.00    -0.507 OA
ATOM     42  H   LIG    1        8.104 -10.209   1.299  0.00  0.00    +0.292 HD
ENDBRANCH  37  41
ENDBRANCH   7  35
BRANCH  12  43
ATOM     43  C   LIG    1       12.378  -2.686  -3.609  0.00  0.00    -0.011 C 
ATOM     44  C   LIG    1       13.246  -3.241  -4.555  0.00  0.00    +0.054 C 
ATOM     45  C   LIG    1       13.092  -2.930  -5.903  0.00  0.00    +0.117 C 
ATOM     46  C   LIG    1       12.089  -2.063  -6.328  0.00  0.00    +0.045 C 
ATOM     47  C   LIG    1       11.231  -1.495  -5.386  0.00  0.00    +0.004 C 
ATOM     48  C   LIG    1       11.373  -1.806  -4.031  0.00  0.00    +0.009 C 
BRANCH  45  49
ATOM     49  O   LIG    1       13.951  -3.509  -6.790  0.00  0.00    -0.507 OA
ATOM     50  H   LIG    1       13.730  -3.200  -7.683  0.00  0.00    +0.292 HD
ENDBRANCH  45  49
ENDBRANCH  12  43
BRANCH  18  51
ATOM     51  C   LIG    1       13.785   1.760  -1.148  0.00  0.00    -0.010 A 
ATOM     52  C   LIG    1       12.931   2.024  -2.224  0.00  0.00    +0.054 A 
ATOM     53  C   LIG    1       13.292   2.969  -3.184  0.00  0.00    +0.117 A 
ATOM     54  C   LIG    1       14.498   3.658  -3.099  0.00  0.00    +0.045 A 
ATOM     55  C   LIG    1       15.358   3.397  -2.033  0.00  0.00    +0.004 A 
ATOM     56  C   LIG    1       15.004   2.450  -1.062  0.00  0.00    +0.009 A 
BRANCH  53  57
ATOM     57  O   LIG    1       12.421   3.198  -4.208  0.00  0.00    -0.507 OA
ATOM     58  H   LIG    1       12.767   3.923  -4.755  0.00  0.00    +0.292 HD
ENDBRANCH  53  57
ENDBRANCH  18  51
TORSDOF 8
