REMARK  Name = *****
REMARK                            x       y       z     vdW  Elec       q    Type
REMARK                         _______ _______ _______ _____ _____    ______ ____
ROOT
ATOM      1  O   LIG    1        2.994   0.442  -3.759  0.00  0.00    -0.459 OA
ENDROOT
BRANCH   1   6
ATOM      2  C   LIG    1        0.898  -0.104   0.419  0.00  0.00    +0.192 C 
ATOM      3  N   LIG    1        2.407  -0.012   0.179  0.00  0.00    +0.243 N 
ATOM      4  C   LIG    1        2.877   1.263  -0.540  0.00  0.00    +0.070 C 
ATOM      5  C   LIG    1        2.026   1.489  -1.794  0.00  0.00    +0.099 C 
ATOM      6  C   LIG    1        1.975   0.279  -2.747  0.00  0.00    +0.187 C 
ATOM      7  C   LIG    1        2.168  -1.098  -2.081  0.00  0.00    +0.099 C 
ATOM      8  C   LIG    1        4.335   0.944  -0.912  0.00  0.00    +0.060 C 
ATOM      9  C   LIG    1        4.406  -0.578  -1.040  0.00  0.00    +0.060 C 
ATOM     10  C   LIG    1        2.979  -1.075  -0.776  0.00  0.00    +0.070 C 
ATOM     11  C   LIG    1        3.035  -0.113   1.585  0.00  0.00    +0.192 C 
ENDBRANCH   1   6
BRANCH   1  12
ATOM     12  C   LIG    1        2.642   1.257  -4.809  0.00  0.00    +0.341 C 
ATOM     13  O   LIG    1        1.558   1.833  -4.894  0.00  0.00    -0.247 OA
BRANCH  12  14
ATOM     14  C   LIG    1        3.782   1.359  -5.838  0.00  0.00    +0.253 C 
BRANCH  14  15
ATOM     15  C   LIG    1        4.343   2.769  -5.919  0.00  0.00    -0.008 A 
ATOM     16  C   LIG    1        3.528   3.861  -6.269  0.00  0.00    +0.007 A 
ATOM     17  C   LIG    1        4.055   5.151  -6.353  0.00  0.00    +0.000 A 
ATOM     18  C   LIG    1        5.403   5.372  -6.088  0.00  0.00    +0.000 A 
ATOM     19  C   LIG    1        6.225   4.303  -5.736  0.00  0.00    +0.000 A 
ATOM     20  C   LIG    1        5.701   3.010  -5.653  0.00  0.00    +0.007 A 
ENDBRANCH  14  15
BRANCH  14  21
ATOM     21  O   LIG    1        3.342   0.930  -7.124  0.00  0.00    -0.376 OA
ATOM     22  H   LIG    1        2.850   1.662  -7.533  0.00  0.00    +0.211 HD
ENDBRANCH  14  21
ENDBRANCH  12  14
ENDBRANCH   1  12
TORSDOF 5
