REMARK  Name = *****
REMARK                            x       y       z     vdW  Elec       q    Type
REMARK                         _______ _______ _______ _____ _____    ______ ____
ROOT
ATOM      1  C   LIG    1        4.686  -3.528  -0.079  0.00  0.00    +0.129 C 
ATOM      2  C   LIG    1        4.769  -3.205  -1.574  0.00  0.00    +0.236 C 
ATOM      3  O   LIG    1        5.530  -2.367  -2.057  0.00  0.00    -0.274 OA
ATOM      4  N   LIG    1        3.995  -3.965  -2.406  0.00  0.00    -0.239 N 
ATOM      5  H   LIG    1        4.073  -3.756  -3.392  0.00  0.00    +0.159 HD
ATOM      6  C   LIG    1        2.847  -4.589  -2.035  0.00  0.00    +0.312 C 
ATOM      7  O   LIG    1        2.011  -4.938  -2.861  0.00  0.00    -0.252 OA
ATOM      8  N   LIG    1        2.626  -4.723  -0.702  0.00  0.00    -0.239 N 
ATOM      9  H   LIG    1        1.703  -5.054  -0.453  0.00  0.00    +0.159 HD
ATOM     10  C   LIG    1        3.276  -4.008   0.267  0.00  0.00    +0.236 C 
ATOM     11  O   LIG    1        2.736  -3.857   1.360  0.00  0.00    -0.274 OA
ENDROOT
BRANCH   1  12
ATOM     12  C   LIG    1        5.113  -2.270   0.770  0.00  0.00    +0.010 C 
ATOM     13  C   LIG    1        5.282  -2.542   2.276  0.00  0.00    +0.009 C 
BRANCH  12  14
ATOM     14  C   LIG    1        4.156  -1.066   0.547  0.00  0.00    +0.001 C 
ATOM     15  C   LIG    1        4.656   0.235   1.165  0.00  0.00    +0.004 C 
ENDBRANCH  12  14
ENDBRANCH   1  12
BRANCH   1  16
ATOM     16  C   LIG    1        5.615  -4.766   0.147  0.00  0.00    +0.052 C 
BRANCH  16  18
ATOM     17  C   LIG    1        8.046  -4.714   0.811  0.00  0.00    +0.004 C 
ATOM     18  C   LIG    1        7.085  -4.536  -0.103  0.00  0.00    -0.033 C 
ENDBRANCH  16  18
ENDBRANCH   1  16
TORSDOF 4
