REMARK  Name = *****
REMARK                            x       y       z     vdW  Elec       q    Type
REMARK                         _______ _______ _______ _____ _____    ______ ____
ROOT
ATOM      1  C   LIG    1        6.904   1.050   2.571  0.00  0.00    +0.113 C 
ENDROOT
BRANCH   1   2
ATOM      2  C   LIG    1        5.569   1.784   2.760  0.00  0.00    +0.233 C 
BRANCH   2   3
ATOM      3  N   LIG    1        5.532   3.052   2.019  0.00  0.00    -0.233 N 
ATOM      4  H   LIG    1        5.145   2.954   1.085  0.00  0.00    +0.291 HD
BRANCH   3   5
ATOM      5  C   LIG    1        5.249   4.320   2.521  0.00  0.00    +0.326 C 
ATOM      6  C   LIG    1        5.132   4.511   3.854  0.00  0.00    +0.474 C 
BRANCH   5   8
ATOM      7  C   LIG    1        5.113   5.301   0.173  0.00  0.00    +0.273 C 
ATOM      8  N   LIG    1        5.131   5.353   1.612  0.00  0.00    -0.236 N 
ATOM      9  H   LIG    1        4.944   6.277   2.006  0.00  0.00    +0.291 HD
ENDBRANCH   5   8
BRANCH   6  10
ATOM     10  N   LIG    1        4.746   5.763   4.446  0.00  0.00    +0.080 N 
ATOM     11  O   LIG    1        3.978   6.515   3.812  0.00  0.00    -0.576 OA
ATOM     12  O   LIG    1        5.167   5.978   5.578  0.00  0.00    +0.041 OA
ENDBRANCH   6  10
ENDBRANCH   3   5
ENDBRANCH   2   3
ENDBRANCH   1   2
BRANCH   1  13
ATOM     13  S   LIG    1        6.902  -0.528   3.505  0.00  0.00    -0.151 S 
BRANCH  13  14
ATOM     14  C   LIG    1        8.376  -1.320   2.780  0.00  0.00    +0.125 C 
BRANCH  14  15
ATOM     15  C   LIG    1        9.642  -0.558   3.013  0.00  0.00    +0.059 A 
ATOM     16  N   LIG    1       10.062   0.377   2.069  0.00  0.00    -0.247 NA
ATOM     17  C   LIG    1       11.200   0.932   2.449  0.00  0.00    +0.092 A 
ATOM     18  S   LIG    1       11.877   0.281   3.895  0.00  0.00    -0.079 S 
ATOM     19  C   LIG    1       10.494  -0.702   4.091  0.00  0.00    +0.071 A 
BRANCH  17  20
ATOM     20  C   LIG    1       11.905   2.066   1.726  0.00  0.00    +0.146 C 
BRANCH  20  21
ATOM     21  N   LIG    1       11.504   3.438   2.121  0.00  0.00    -0.302 NA
ATOM     22  C   LIG    1       11.812   3.729   3.520  0.00  0.00    +0.105 C 
ATOM     23  C   LIG    1       10.091   3.692   1.842  0.00  0.00    +0.105 C 
ENDBRANCH  20  21
ENDBRANCH  17  20
ENDBRANCH  14  15
ENDBRANCH  13  14
ENDBRANCH   1  13
TORSDOF 10
