REMARK  Name = *****
REMARK                            x       y       z     vdW  Elec       q    Type
REMARK                         _______ _______ _______ _____ _____    ______ ____
ROOT
ATOM      1  S   UNK A  1       -4.235   5.209   2.259  0.00  0.00    -0.091 S 
ENDROOT
BRANCH   1   2
ATOM      2  S   UNK A  1       -2.628   6.526   2.280  0.00  0.00    -0.091 S 
BRANCH   2   3
ATOM      3  C   UNK A  1       -1.510   6.079   0.849  0.00  0.00    +0.112 C 
BRANCH   3   4
ATOM      4  C   UNK A  1       -2.122   6.146  -0.575  0.00  0.00    +0.169 C 
BRANCH   4   5
ATOM      5  N   UNK A  1       -1.191   5.638  -1.665  0.00  0.00    -0.303 N 
ATOM      6  H   UNK A  1       -0.950   6.316  -2.381  0.00  0.00    +0.149 HD
ATOM      7  C   UNK A  1       -1.089   4.301  -2.014  0.00  0.00    +0.214 C 
ATOM      8  O   UNK A  1       -1.764   3.449  -1.435  0.00  0.00    -0.276 OA
BRANCH   7   9
ATOM      9  C   UNK A  1       -0.172   3.904  -3.213  0.00  0.00    +0.098 C 
BRANCH   9  10
ATOM     10  C   UNK A  1        0.966   2.837  -3.048  0.00  0.00    +0.039 C 
BRANCH  10  11
ATOM     11  C   UNK A  1        0.575   1.417  -2.578  0.00  0.00    +0.161 C 
BRANCH  11  12
ATOM     12  N   UNK A  1       -0.027   1.442  -1.221  0.00  0.00    -0.318 NA
ATOM     13  H   UNK A  1       -0.634   0.624  -1.115  0.00  0.00    +0.119 HD
ATOM     14  H   UNK A  1       -0.736   2.194  -1.217  0.00  0.00    +0.119 HD
ENDBRANCH  11  12
BRANCH  11  15
ATOM     15  C   UNK A  1        1.774   0.424  -2.513  0.00  0.00    +0.322 C 
ATOM     16  O   UNK A  1        2.507   0.119  -3.448  0.00  0.00    -0.249 OA
BRANCH  15  17
ATOM     17  O   UNK A  1        1.899  -0.140  -1.279  0.00  0.00    -0.479 OA
ATOM     18  H   UNK A  1        1.234   0.314  -0.704  0.00  0.00    +0.295 HD
ENDBRANCH  15  17
ENDBRANCH  11  15
ENDBRANCH  10  11
ENDBRANCH   9  10
ENDBRANCH   7   9
ENDBRANCH   4   5
BRANCH   4  19
ATOM     19  C   UNK A  1       -2.481   7.631  -0.853  0.00  0.00    +0.235 C 
ATOM     20  N   GLY A  2       -3.780   8.057  -0.883  0.00  0.00    -0.303 N 
ATOM     21  H   GLY A  2       -3.868   9.062  -0.979  0.00  0.00    +0.149 HD
ATOM     22  O   UNK A  1       -1.599   8.467  -1.085  0.00  0.00    -0.274 OA
BRANCH  20  23
ATOM     23  CA  GLY A  2       -4.995   7.330  -0.531  0.00  0.00    +0.224 C 
BRANCH  23  24
ATOM     24  C   GLY A  2       -5.354   6.203  -1.470  0.00  0.00    +0.322 C 
ATOM     25  O   GLY A  2       -6.004   5.177  -1.176  0.00  0.00    -0.249 OA
BRANCH  24  26
ATOM     26  OXT GLY A  2       -5.063   6.448  -2.754  0.00  0.00    -0.479 OA
ATOM     27  HXT GLY A  2       -5.519   5.733  -3.246  0.00  0.00    +0.295 HD
ENDBRANCH  24  26
ENDBRANCH  23  24
ENDBRANCH  20  23
ENDBRANCH   4  19
ENDBRANCH   3   4
ENDBRANCH   2   3
ENDBRANCH   1   2
BRANCH   1  28
ATOM     28  C   UNK A  1       -5.240   5.787   3.717  0.00  0.00    +0.112 C 
BRANCH  28  29
ATOM     29  C   UNK A  1       -6.614   5.090   3.997  0.00  0.00    +0.169 C 
BRANCH  29  31
ATOM     30  C   UNK A  1       -5.507   2.864   4.607  0.00  0.00    +0.214 C 
ATOM     31  N   UNK A  1       -6.624   3.640   4.366  0.00  0.00    -0.303 N 
ATOM     32  H   UNK A  1       -7.517   3.249   4.635  0.00  0.00    +0.149 HD
ATOM     33  O   UNK A  1       -4.365   3.305   4.572  0.00  0.00    -0.276 OA
BRANCH  30  34
ATOM     34  C   UNK A  1       -5.745   1.416   5.030  0.00  0.00    +0.098 C 
BRANCH  34  35
ATOM     35  C   UNK A  1       -4.732   0.391   4.437  0.00  0.00    +0.039 C 
BRANCH  35  36
ATOM     36  C   UNK A  1       -3.228   0.585   4.792  0.00  0.00    +0.161 C 
BRANCH  36  37
ATOM     37  N   UNK A  1       -2.375  -0.410   4.085  0.00  0.00    -0.318 NA
ATOM     38  H   UNK A  1       -1.403  -0.109   4.060  0.00  0.00    +0.119 HD
ATOM     39  H   UNK A  1       -2.402  -1.302   4.585  0.00  0.00    +0.119 HD
ENDBRANCH  36  37
BRANCH  36  40
ATOM     40  C   UNK A  1       -2.973   0.444   6.304  0.00  0.00    +0.322 C 
ATOM     41  O   UNK A  1       -3.841   0.216   7.146  0.00  0.00    -0.249 OA
BRANCH  40  42
ATOM     42  O   UNK A  1       -1.666   0.494   6.655  0.00  0.00    -0.479 OA
ATOM     43  H   UNK A  1       -1.064   0.481   5.889  0.00  0.00    +0.295 HD
ENDBRANCH  40  42
ENDBRANCH  36  40
ENDBRANCH  35  36
ENDBRANCH  34  35
ENDBRANCH  30  34
ENDBRANCH  29  31
BRANCH  29  44
ATOM     44  C   UNK A  1       -7.644   5.460   2.874  0.00  0.00    +0.235 C 
ATOM     45  N   GLY A  2       -8.785   4.679   2.794  0.00  0.00    -0.303 N 
ATOM     46  H   GLY A  2       -9.009   4.015   3.517  0.00  0.00    +0.149 HD
ATOM     47  O   UNK A  1       -7.532   6.476   2.186  0.00  0.00    -0.274 OA
BRANCH  45  48
ATOM     48  CA  GLY A  2       -9.805   4.913   1.769  0.00  0.00    +0.224 C 
BRANCH  48  49
ATOM     49  C   GLY A  2      -10.980   5.774   2.206  0.00  0.00    +0.322 C 
ATOM     50  O   GLY A  2      -11.710   6.429   1.469  0.00  0.00    -0.249 OA
BRANCH  49  51
ATOM     51  OXT GLY A  2      -11.335   5.585   3.496  0.00  0.00    -0.479 OA
ATOM     52  HXT GLY A  2      -12.186   6.070   3.573  0.00  0.00    +0.295 HD
ENDBRANCH  49  51
ENDBRANCH  48  49
ENDBRANCH  45  48
ENDBRANCH  29  44
ENDBRANCH  28  29
ENDBRANCH   1  28
TORSDOF 27
