REMARK  Name = *****
REMARK                            x       y       z     vdW  Elec       q    Type
REMARK                         _______ _______ _______ _____ _____    ______ ____
ROOT
ATOM      1  C   LIG    1        5.906  -2.113   6.013  0.00  0.00    +0.129 A 
ATOM      2  C   LIG    1        6.489  -3.056   6.858  0.00  0.00    +0.048 A 
ATOM      3  C   LIG    1        7.046  -2.671   8.091  0.00  0.00    +0.027 A 
ATOM      4  C   LIG    1        7.114  -1.325   8.482  0.00  0.00    +0.034 A 
ATOM      5  C   LIG    1        6.660  -0.371   7.559  0.00  0.00    +0.027 A 
ATOM      6  C   LIG    1        6.047  -0.761   6.338  0.00  0.00    +0.048 A 
ENDROOT
BRANCH   4   7
ATOM      7  N   LIG    1        7.634  -1.054   9.787  0.00  0.00    -0.285 N 
ATOM      8  H   LIG    1        7.900  -1.864  10.335  0.00  0.00    +0.155 HD
ATOM      9  C   LIG    1        7.813   0.185  10.401  0.00  0.00    +0.232 C 
ATOM     10  O   LIG    1        7.524   1.263   9.915  0.00  0.00    -0.274 OA
BRANCH   9  11
ATOM     11  C   LIG    1        8.442   0.156  11.806  0.00  0.00    +0.123 C 
ATOM     12  C   LIG    1        8.188   1.412  12.678  0.00  0.00    +0.027 C 
ATOM     13  C   LIG    1        7.515   0.133  13.041  0.00  0.00    +0.027 C 
BRANCH  11  14
ATOM     14  C   LIG    1        9.768  -0.545  11.988  0.00  0.00    +0.232 C 
ATOM     15  N   LIG    1       10.869   0.261  11.906  0.00  0.00    -0.285 N 
ATOM     16  H   LIG    1       10.721   1.195  11.520  0.00  0.00    +0.155 HD
ATOM     17  O   LIG    1        9.760  -1.781  12.167  0.00  0.00    -0.274 OA
BRANCH  15  18
ATOM     18  C   LIG    1       12.231  -0.106  12.053  0.00  0.00    +0.034 A 
ATOM     19  C   LIG    1       13.184   0.699  11.418  0.00  0.00    +0.026 A 
ATOM     20  C   LIG    1       14.536   0.344  11.408  0.00  0.00    +0.040 A 
ATOM     21  C   LIG    1       14.944  -0.803  12.072  0.00  0.00    +0.123 A 
ATOM     22  F   LIG    1       16.232  -1.171  12.024  0.00  0.00    -0.205 F 
ATOM     23  C   LIG    1       14.030  -1.571  12.784  0.00  0.00    +0.040 A 
ATOM     24  C   LIG    1       12.668  -1.220  12.783  0.00  0.00    +0.026 A 
ENDBRANCH  15  18
ENDBRANCH  11  14
ENDBRANCH   9  11
ENDBRANCH   4   7
BRANCH   1  25
ATOM     25  O   LIG    1        5.197  -2.474   4.871  0.00  0.00    -0.455 OA
BRANCH  25  34
ATOM     26  C   LIG    1        3.247  -5.898   1.550  0.00  0.00    +0.164 A 
ATOM     27  C   LIG    1        4.085  -4.792   1.369  0.00  0.00    +0.162 A 
ATOM     28  C   LIG    1        4.482  -4.028   2.479  0.00  0.00    +0.063 A 
ATOM     29  C   LIG    1        4.002  -4.309   3.782  0.00  0.00    +0.046 A 
ATOM     30  C   LIG    1        3.134  -5.417   3.943  0.00  0.00    +0.078 A 
ATOM     31  N   LIG    1        2.637  -5.785   5.133  0.00  0.00    -0.255 NA
ATOM     32  C   LIG    1        2.924  -5.029   6.208  0.00  0.00    +0.115 A 
ATOM     33  C   LIG    1        3.701  -3.895   6.159  0.00  0.00    +0.066 A 
ATOM     34  C   LIG    1        4.316  -3.558   4.952  0.00  0.00    +0.139 A 
ATOM     35  C   LIG    1        2.770  -6.175   2.836  0.00  0.00    +0.077 A 
BRANCH  26  37
ATOM     36  C   LIG    1        3.628  -6.935  -0.568  0.00  0.00    +0.277 C 
ATOM     37  O   LIG    1        2.781  -6.740   0.566  0.00  0.00    -0.491 OA
ENDBRANCH  26  37
BRANCH  27  38
ATOM     38  O   LIG    1        4.538  -4.540   0.107  0.00  0.00    -0.491 OA
ATOM     39  C   LIG    1        4.727  -3.190  -0.277  0.00  0.00    +0.277 C 
ENDBRANCH  27  38
ENDBRANCH  25  34
ENDBRANCH   1  25
TORSDOF 8
