REMARK  Name = *****
REMARK                            x       y       z     vdW  Elec       q    Type
REMARK                         _______ _______ _______ _____ _____    ______ ____
ROOT
ATOM      1  C   LIG    1       21.469  -6.644   4.400  0.00  0.00    +0.033 A 
ATOM      2  C   LIG    1       20.725  -5.461   4.435  0.00  0.00    +0.023 A 
ATOM      3  C   LIG    1       19.558  -5.334   3.660  0.00  0.00    +0.005 A 
ATOM      4  C   LIG    1       19.138  -6.380   2.826  0.00  0.00    -0.046 A 
ATOM      5  C   LIG    1       19.839  -7.583   2.864  0.00  0.00    +0.005 A 
ATOM      6  C   LIG    1       20.957  -7.725   3.681  0.00  0.00    +0.023 A 
ENDROOT
BRANCH   1   8
ATOM      7  C   LIG    1       23.653  -7.732   4.910  0.00  0.00    +0.223 C 
ATOM      8  N   LIG    1       22.767  -6.670   4.968  0.00  0.00    -0.285 N 
ATOM      9  H   LIG    1       23.124  -5.786   5.325  0.00  0.00    +0.155 HD
ATOM     10  O   LIG    1       23.385  -8.885   4.533  0.00  0.00    -0.275 OA
BRANCH   7  11
ATOM     11  C   LIG    1       25.080  -7.417   5.257  0.00  0.00    +0.152 C 
BRANCH  11  15
ATOM     12  C   LIG    1       26.127  -5.743   8.247  0.00  0.00    +0.156 A 
ATOM     13  S   LIG    1       25.529  -7.026   9.215  0.00  0.00    -0.061 S 
ATOM     14  C   LIG    1       25.022  -7.846   7.796  0.00  0.00    +0.072 A 
ATOM     15  C   LIG    1       25.284  -7.065   6.686  0.00  0.00    +0.059 A 
ATOM     16  N   LIG    1       25.883  -5.847   6.966  0.00  0.00    -0.230 NA
BRANCH  12  17
ATOM     17  N   LIG    1       26.803  -4.712   8.768  0.00  0.00    -0.338 N 
ATOM     18  H   LIG    1       26.770  -4.521   9.759  0.00  0.00    +0.144 HD
ATOM     19  H   LIG    1       26.989  -3.924   8.161  0.00  0.00    +0.144 HD
ENDBRANCH  12  17
ENDBRANCH  11  15
ENDBRANCH   7  11
ENDBRANCH   1   8
BRANCH   4  20
ATOM     20  C   LIG    1       17.958  -6.242   1.897  0.00  0.00    +0.050 C 
BRANCH  20  21
ATOM     21  C   LIG    1       18.312  -5.651   0.517  0.00  0.00    +0.085 C 
BRANCH  21  22
ATOM     22  N   LIG    1       17.164  -5.559  -0.414  0.00  0.00    -0.313 NA
ATOM     23  H   LIG    1       16.778  -6.495  -0.550  0.00  0.00    +0.122 HD
BRANCH  22  24
ATOM     24  C   LIG    1       16.107  -4.660   0.099  0.00  0.00    +0.117 C 
BRANCH  24  25
ATOM     25  C   LIG    1       14.882  -4.559  -0.850  0.00  0.00    +0.158 C 
BRANCH  25  26
ATOM     26  C   LIG    1       13.795  -3.668  -0.284  0.00  0.00    -0.018 A 
ATOM     27  C   LIG    1       12.531  -4.188   0.031  0.00  0.00    +0.006 A 
ATOM     28  C   LIG    1       11.518  -3.354   0.513  0.00  0.00    +0.000 A 
ATOM     29  C   LIG    1       11.756  -1.992   0.688  0.00  0.00    +0.000 A 
ATOM     30  C   LIG    1       13.011  -1.464   0.395  0.00  0.00    +0.000 A 
ATOM     31  C   LIG    1       14.023  -2.296  -0.085  0.00  0.00    +0.006 A 
ENDBRANCH  25  26
BRANCH  25  32
ATOM     32  O   LIG    1       15.275  -4.030  -2.117  0.00  0.00    -0.386 OA
ATOM     33  H   LIG    1       16.169  -4.381  -2.282  0.00  0.00    +0.210 HD
ENDBRANCH  25  32
ENDBRANCH  24  25
ENDBRANCH  22  24
ENDBRANCH  21  22
ENDBRANCH  20  21
ENDBRANCH   4  20
TORSDOF 11
