REMARK  Name = *****
REMARK                            x       y       z     vdW  Elec       q    Type
REMARK                         _______ _______ _______ _____ _____    ______ ____
ROOT
ATOM      1  C   LIG    1        5.092   1.296  -0.057  0.00  0.00    +0.282 C 
ENDROOT
BRANCH   1   2
ATOM      2  O   LIG    1        4.982   0.098  -0.849  0.00  0.00    -0.459 OA
BRANCH   2   4
ATOM      3  C   LIG    1        3.946  -1.146  -2.561  0.00  0.00    +0.136 C 
ATOM      4  C   LIG    1        4.182   0.205  -1.947  0.00  0.00    +0.304 C 
ATOM      5  O   LIG    1        3.731   1.251  -2.357  0.00  0.00    -0.251 OA
ENDBRANCH   2   4
ENDBRANCH   1   2
BRANCH   1   6
ATOM      6  C   LIG    1        6.128   2.302  -0.589  0.00  0.00    +0.174 C 
BRANCH   6   7
ATOM      7  N   LIG    1        7.613   1.836  -0.541  0.00  0.00    +0.239 N 
ATOM      8  C   LIG    1        7.855   0.624  -1.428  0.00  0.00    +0.192 C 
ATOM      9  C   LIG    1        8.066   1.486   0.871  0.00  0.00    +0.192 C 
ATOM     10  C   LIG    1        8.477   2.987  -1.079  0.00  0.00    +0.192 C 
ENDBRANCH   6   7
ENDBRANCH   1   6
TORSDOF 4
