REMARK  Name = *****
REMARK                            x       y       z     vdW  Elec       q    Type
REMARK                         _______ _______ _______ _____ _____    ______ ____
ROOT
ATOM      1  C   LIG    1        4.400   0.117  -3.602  0.00  0.00    -0.014 A 
ATOM      2  C   LIG    1        5.410  -0.503  -4.359  0.00  0.00    +0.055 A 
ATOM      3  C   LIG    1        5.122  -1.006  -5.622  0.00  0.00    +0.159 A 
ATOM      4  C   LIG    1        3.847  -0.897  -6.162  0.00  0.00    +0.158 A 
ATOM      5  C   LIG    1        2.831  -0.288  -5.437  0.00  0.00    +0.049 A 
ATOM      6  C   LIG    1        3.112   0.216  -4.161  0.00  0.00    +0.010 A 
ENDROOT
BRANCH   3   7
ATOM      7  O   LIG    1        6.119  -1.605  -6.340  0.00  0.00    -0.503 OA
ATOM      8  H   LIG    1        5.688  -1.863  -7.180  0.00  0.00    +0.292 HD
ENDBRANCH   3   7
BRANCH   4   9
ATOM      9  O   LIG    1        3.640  -1.398  -7.418  0.00  0.00    -0.503 OA
ATOM     10  H   LIG    1        2.717  -1.213  -7.664  0.00  0.00    +0.292 HD
ENDBRANCH   4   9
BRANCH   1  11
ATOM     11  C   LIG    1        4.730   0.700  -2.240  0.00  0.00    +0.158 C 
BRANCH  11  12
ATOM     12  O   LIG    1        3.581   1.319  -1.644  0.00  0.00    -0.386 OA
ATOM     13  H   LIG    1        3.781   1.332  -0.686  0.00  0.00    +0.210 HD
ENDBRANCH  11  12
BRANCH  11  14
ATOM     14  C   LIG    1        5.282  -0.352  -1.245  0.00  0.00    +0.116 C 
BRANCH  14  16
ATOM     15  C   LIG    1        6.100  -0.719   0.992  0.00  0.00    +0.101 C 
ATOM     16  N   LIG    1        5.553   0.273   0.070  0.00  0.00    -0.316 NA
ATOM     17  H   LIG    1        6.245   1.015  -0.052  0.00  0.00    +0.122 HD
ENDBRANCH  14  16
ENDBRANCH  11  14
ENDBRANCH   1  11
TORSDOF 6
