REMARK  Name = *****
REMARK                            x       y       z     vdW  Elec       q    Type
REMARK                         _______ _______ _______ _____ _____    ______ ____
ROOT
ATOM      1  N   LIG    1        3.359   0.345  -0.384  0.00  0.00    -0.140 N 
ATOM      2  C   LIG    1        4.731   0.595  -0.331  0.00  0.00    +0.324 C 
ATOM      3  N   LIG    1        5.293   1.185  -1.446  0.00  0.00    -0.295 N 
ATOM      4  H   LIG    1        4.781   1.146  -2.317  0.00  0.00    +0.151 HD
ATOM      5  O   LIG    1        5.405   0.350   0.680  0.00  0.00    -0.251 OA
ENDROOT
BRANCH   3   6
ATOM      6  C   LIG    1        6.700   1.567  -1.501  0.00  0.00    +0.074 C 
ATOM      7  C   LIG    1        7.591   0.382  -1.898  0.00  0.00    +0.022 C 
ATOM      8  C   LIG    1        7.488   0.041  -3.383  0.00  0.00    +0.002 C 
ATOM      9  C   LIG    1        7.807   1.256  -4.245  0.00  0.00    +0.000 C 
ATOM     10  C   LIG    1        6.873   2.416  -3.918  0.00  0.00    +0.002 C 
ATOM     11  C   LIG    1        6.910   2.772  -2.431  0.00  0.00    +0.022 C 
ENDBRANCH   3   6
BRANCH   1  13
ATOM     12  O   LIG    1        1.419   0.613  -1.418  0.00  0.00    -0.126 OA
ATOM     13  N   LIG    1        2.647   0.619  -1.559  0.00  0.00    +0.053 NA
ENDBRANCH   1  13
BRANCH   1  14
ATOM     14  C   LIG    1        2.671  -0.166   0.806  0.00  0.00    +0.155 C 
BRANCH  14  15
ATOM     15  C   LIG    1        2.631  -1.689   0.858  0.00  0.00    +0.130 C 
ATOM     16 CL   LIG    1        1.797  -2.236   2.338  0.00  0.00    -0.124 Cl
ENDBRANCH  14  15
ENDBRANCH   1  14
TORSDOF 4
