REMARK  Name = *****
REMARK                            x       y       z     vdW  Elec       q    Type
REMARK                         _______ _______ _______ _____ _____    ______ ____
ROOT
ATOM      1 CL   LIG    1        0.973  -0.061   0.207  0.00  0.00    -0.084 Cl
ATOM      2  C   LIG    1        2.689  -0.041   0.104  0.00  0.00    +0.042 A 
ATOM      3  C   LIG    1        3.384  -1.231  -0.099  0.00  0.00    +0.032 A 
ATOM      4  C   LIG    1        4.787  -1.228  -0.201  0.00  0.00    +0.026 A 
ATOM      5  C   LIG    1        5.445  -2.516  -0.604  0.00  0.00    +0.075 C 
ATOM      6  N   LIG    1        6.529  -2.993  -0.096  0.00  0.00    -0.275 NA
ATOM      7  C   LIG    1        7.249  -2.272   0.941  0.00  0.00    +0.218 C 
ATOM      8  C   LIG    1        7.744  -0.976   0.429  0.00  0.00    +0.159 A 
ATOM      9  N   LIG    1        6.899   0.027   0.016  0.00  0.00    -0.283 N 
ATOM     10  C   LIG    1        7.724   1.095  -0.223  0.00  0.00    +0.230 A 
ATOM     11  N   LIG    1        8.976   0.763  -0.009  0.00  0.00    -0.138 NA
ATOM     12  N   LIG    1        8.989  -0.543   0.407  0.00  0.00    -0.132 NA
ATOM     13  C   LIG    1        5.485  -0.016  -0.034  0.00  0.00    +0.059 A 
ATOM     14  C   LIG    1        4.768   1.182   0.138  0.00  0.00    +0.028 A 
ATOM     15  C   LIG    1        3.373   1.165   0.206  0.00  0.00    +0.022 A 
ENDROOT
BRANCH   5  16
ATOM     16  C   LIG    1        4.813  -3.324  -1.700  0.00  0.00    +0.001 A 
ATOM     17  C   LIG    1        4.249  -2.708  -2.825  0.00  0.00    +0.010 A 
ATOM     18  C   LIG    1        3.672  -3.486  -3.830  0.00  0.00    +0.001 A 
ATOM     19  C   LIG    1        3.668  -4.877  -3.722  0.00  0.00    +0.000 A 
ATOM     20  C   LIG    1        4.248  -5.495  -2.614  0.00  0.00    +0.001 A 
ATOM     21  C   LIG    1        4.825  -4.721  -1.606  0.00  0.00    +0.010 A 
ENDBRANCH   5  16
TORSDOF 1
