REMARK  Name = *****
REMARK                            x       y       z     vdW  Elec       q    Type
REMARK                         _______ _______ _______ _____ _____    ______ ____
ROOT
ATOM      1  C   LIG    1        4.324   1.035   1.623  0.00  0.00    +0.080 C 
ENDROOT
BRANCH   1   2
ATOM      2  C   LIG    1        4.712   1.611   3.037  0.00  0.00    -0.030 A 
ATOM      3  C   LIG    1        5.743   1.052   3.816  0.00  0.00    +0.005 A 
ATOM      4  C   LIG    1        6.097   1.587   5.058  0.00  0.00    +0.000 A 
ATOM      5  C   LIG    1        5.450   2.723   5.552  0.00  0.00    +0.000 A 
ATOM      6  C   LIG    1        4.457   3.323   4.792  0.00  0.00    +0.000 A 
ATOM      7  C   LIG    1        4.100   2.780   3.553  0.00  0.00    +0.005 A 
ENDBRANCH   1   2
BRANCH   1   8
ATOM      8  C   LIG    1        5.285   1.650   0.524  0.00  0.00    -0.030 A 
ATOM      9  C   LIG    1        5.744   2.979   0.603  0.00  0.00    +0.005 A 
ATOM     10  C   LIG    1        6.542   3.539  -0.403  0.00  0.00    +0.000 A 
ATOM     11  C   LIG    1        6.889   2.796  -1.525  0.00  0.00    +0.000 A 
ATOM     12  C   LIG    1        6.441   1.493  -1.645  0.00  0.00    +0.000 A 
ATOM     13  C   LIG    1        5.653   0.927  -0.638  0.00  0.00    +0.005 A 
ENDBRANCH   1   8
BRANCH   1  14
ATOM     14  C   LIG    1        2.834   1.416   1.248  0.00  0.00    +0.148 C 
ATOM     15  O   LIG    1        1.967   1.599   2.114  0.00  0.00    -0.296 OA
BRANCH  14  17
ATOM     16  C   LIG    1        1.151   2.341  -0.380  0.00  0.00    +0.012 C 
ATOM     17  C   LIG    1        2.405   1.481  -0.214  0.00  0.00    +0.072 C 
ENDBRANCH  14  17
ENDBRANCH   1  14
BRANCH   1  18
ATOM     18  C   LIG    1        4.498  -0.543   1.588  0.00  0.00    +0.042 C 
BRANCH  18  19
ATOM     19  C   LIG    1        3.816  -1.524   2.597  0.00  0.00    +0.054 C 
ATOM     20  C   LIG    1        2.291  -1.474   2.422  0.00  0.00    +0.024 C 
BRANCH  19  21
ATOM     21  N   LIG    1        4.303  -2.928   2.339  0.00  0.00    -0.306 NA
ATOM     22  C   LIG    1        3.598  -3.939   3.143  0.00  0.00    +0.105 C 
ATOM     23  C   LIG    1        5.743  -3.102   2.570  0.00  0.00    +0.105 C 
ENDBRANCH  19  21
ENDBRANCH  18  19
ENDBRANCH   1  18
TORSDOF 7
