REMARK  Name = *****
REMARK                            x       y       z     vdW  Elec       q    Type
REMARK                         _______ _______ _______ _____ _____    ______ ____
ROOT
ATOM      1  O   LIG    1        0.010  -2.894  -1.479  0.00  0.00    -0.270 OA
ATOM      2  C   LIG    1        0.453  -2.083  -0.677  0.00  0.00    +0.252 C 
ATOM      3  N   LIG    1        1.768  -1.664  -0.608  0.00  0.00    -0.280 N 
ATOM      4  H   LIG    1        1.985  -0.977   0.115  0.00  0.00    +0.155 HD
ENDROOT
BRANCH   2   5
ATOM      5  C   LIG    1       -0.499  -1.482   0.313  0.00  0.00    +0.080 A 
ATOM      6  C   LIG    1       -0.145  -0.542   1.294  0.00  0.00    +0.129 A 
ATOM      7  C   LIG    1       -1.109  -0.019   2.160  0.00  0.00    +0.048 A 
ATOM      8  C   LIG    1       -2.437  -0.438   2.058  0.00  0.00    +0.023 A 
ATOM      9  C   LIG    1       -2.796  -1.379   1.097  0.00  0.00    +0.042 A 
ATOM     10 CL   LIG    1       -4.430  -1.902   0.981  0.00  0.00    -0.084 Cl
ATOM     11  C   LIG    1       -1.840  -1.897   0.228  0.00  0.00    +0.036 A 
BRANCH   6  12
ATOM     12  O   LIG    1        1.151  -0.117   1.420  0.00  0.00    -0.506 OA
ATOM     13  H   LIG    1        1.211   0.531   2.146  0.00  0.00    +0.292 HD
ENDBRANCH   6  12
ENDBRANCH   2   5
BRANCH   3  14
ATOM     14  C   LIG    1        2.847  -2.050  -1.436  0.00  0.00    +0.052 A 
ATOM     15  C   LIG    1        4.125  -1.501  -1.192  0.00  0.00    +0.069 A 
ATOM     16 CL   LIG    1        4.402  -0.431   0.140  0.00  0.00    -0.081 Cl
ATOM     17  C   LIG    1        5.209  -1.800  -2.020  0.00  0.00    +0.106 A 
ATOM     18  C   LIG    1        5.004  -2.665  -3.095  0.00  0.00    +0.275 A 
ATOM     19  C   LIG    1        3.765  -3.251  -3.344  0.00  0.00    +0.086 A 
ATOM     20  C   LIG    1        2.692  -2.941  -2.507  0.00  0.00    +0.031 A 
BRANCH  18  21
ATOM     21  N   LIG    1        6.101  -2.942  -3.999  0.00  0.00    +0.080 N 
ATOM     22  O   LIG    1        6.624  -1.971  -4.560  0.00  0.00    -0.576 OA
ATOM     23  O   LIG    1        6.426  -4.127  -4.144  0.00  0.00    +0.041 OA
ENDBRANCH  18  21
ENDBRANCH   3  14
TORSDOF 4
