REMARK  Name = *****
REMARK                            x       y       z     vdW  Elec       q    Type
REMARK                         _______ _______ _______ _____ _____    ______ ____
ROOT
ATOM      1  C   LIG    1       -4.185   2.684   1.798  0.00  0.00    +0.036 C 
ATOM      2  C   LIG    1       -4.685   1.707   0.712  0.00  0.00    +0.004 C 
ATOM      3  C   LIG    1       -6.008   0.841   1.185  0.00  0.00    +0.039 C 
ATOM      4  C   LIG    1       -6.481   1.040   2.481  0.00  0.00    +0.066 C 
ATOM      5  C   LIG    1       -7.319  -0.477   1.986  0.00  0.00    +0.035 C 
ATOM      6  C   LIG    1       -7.807  -0.158   0.396  0.00  0.00    +0.045 C 
ATOM      7  C   LIG    1       -7.100   0.827  -0.771  0.00  0.00    +0.103 C 
ATOM      8  C   LIG    1       -6.588   2.499  -0.046  0.00  0.00    +0.081 C 
ATOM      9  N   LIG    1       -8.151   0.938  -1.830  0.00  0.00    -0.327 N 
ATOM     10  C   LIG    1       -7.703   1.224  -3.185  0.00  0.00    +0.130 C 
ATOM     11  C   LIG    1       -8.990  -0.202  -1.644  0.00  0.00    +0.034 A 
ATOM     12  C   LIG    1       -9.936  -0.678  -2.540  0.00  0.00    +0.023 A 
ATOM     13  C   LIG    1      -10.741  -1.762  -2.171  0.00  0.00    +0.002 A 
ATOM     14  C   LIG    1      -10.611  -2.356  -0.908  0.00  0.00    +0.000 A 
ATOM     15  C   LIG    1       -9.675  -1.875   0.008  0.00  0.00    +0.006 A 
ATOM     16  C   LIG    1       -8.885  -0.800  -0.365  0.00  0.00    -0.016 A 
ATOM     17  N   LIG    1       -6.613   2.591   1.796  0.00  0.00    -0.269 NA
ATOM     18  C   LIG    1       -7.987   1.089   1.046  0.00  0.00    +0.132 C 
ATOM     19  C   LIG    1       -5.149   2.550  -0.437  0.00  0.00    +0.025 C 
ATOM     20  C   LIG    1       -5.467   3.361   2.285  0.00  0.00    +0.189 C 
ENDROOT
BRANCH   1  22
ATOM     21  C   LIG    1       -1.944   1.666   2.445  0.00  0.00    +0.004 C 
ATOM     22  C   LIG    1       -3.358   2.004   2.905  0.00  0.00    +0.004 C 
ENDBRANCH   1  22
BRANCH  18  23
ATOM     23  O   LIG    1       -8.811   2.099   0.417  0.00  0.00    -0.391 OA
ATOM     24  H   LIG    1       -9.129   1.780  -0.453  0.00  0.00    +0.210 HD
ENDBRANCH  18  23
BRANCH  20  25
ATOM     25  O   LIG    1       -5.583   4.668   1.772  0.00  0.00    -0.377 OA
ATOM     26  H   LIG    1       -6.549   4.755   1.666  0.00  0.00    +0.211 HD
ENDBRANCH  20  25
TORSDOF 3
