REMARK  Name = *****
REMARK                            x       y       z     vdW  Elec       q    Type
REMARK                         _______ _______ _______ _____ _____    ______ ____
ROOT
ATOM      1  C   LIG    1        0.876  -0.214  -0.693  0.00  0.00    +0.105 C 
ATOM      2  N   LIG    1        2.114   0.526  -0.904  0.00  0.00    -0.301 NA
ATOM      3  C   LIG    1        1.960   1.830  -1.600  0.00  0.00    +0.069 C 
ATOM      4  C   LIG    1        3.217   2.741  -1.456  0.00  0.00    +0.043 C 
ATOM      5  C   LIG    1        3.310   3.029   0.070  0.00  0.00    +0.048 C 
ATOM      6  C   LIG    1        4.563   3.758   0.568  0.00  0.00    +0.217 C 
ATOM      7  O   LIG    1        4.338   5.205   0.453  0.00  0.00    -0.481 OA
ATOM      8  C   LIG    1        2.969   5.330   0.351  0.00  0.00    +0.166 A 
ATOM      9  C   LIG    1        2.290   6.510   0.169  0.00  0.00    +0.159 A 
ATOM     10  C   LIG    1        0.963   6.473  -0.265  0.00  0.00    +0.049 A 
ATOM     11  C   LIG    1        0.342   5.237  -0.595  0.00  0.00    +0.008 A 
ATOM     12  C   LIG    1        1.056   4.055  -0.446  0.00  0.00    -0.038 A 
ATOM     13  C   LIG    1        5.827   3.247  -0.163  0.00  0.00    +0.178 C 
ATOM     14  C   LIG    1        5.674   2.998  -1.636  0.00  0.00    +0.004 C 
ATOM     15  C   LIG    1        2.318   4.134   0.144  0.00  0.00    +0.012 A 
ATOM     16  C   LIG    1        2.890   1.884   1.012  0.00  0.00    +0.031 C 
ATOM     17  C   LIG    1        4.514   2.612  -2.193  0.00  0.00    -0.023 C 
ATOM     18  C   LIG    1        0.697   2.746  -1.181  0.00  0.00    +0.055 C 
ATOM     19  C   LIG    1        2.940   0.549   0.302  0.00  0.00    +0.085 C 
ENDROOT
BRANCH   9  20
ATOM     20  O   LIG    1        2.914   7.712   0.317  0.00  0.00    -0.503 OA
ATOM     21  H   LIG    1        3.841   7.503   0.535  0.00  0.00    +0.292 HD
ENDBRANCH   9  20
BRANCH  13  22
ATOM     22  O   LIG    1        6.206   1.974   0.385  0.00  0.00    -0.384 OA
ATOM     23  H   LIG    1        6.121   1.298  -0.311  0.00  0.00    +0.210 HD
ENDBRANCH  13  22
TORSDOF 2
