REMARK  Name = *****
REMARK                            x       y       z     vdW  Elec       q    Type
REMARK                         _______ _______ _______ _____ _____    ______ ____
ROOT
ATOM      1  N   LIG    1        3.121  -0.842  -1.242  0.00  0.00    -0.331 N 
ATOM      2  C   LIG    1        3.750  -0.581  -2.482  0.00  0.00    +0.145 A 
ATOM      3  C   LIG    1        4.025  -1.650  -3.342  0.00  0.00    +0.065 A 
ATOM      4  C   LIG    1        4.634  -1.415  -4.575  0.00  0.00    +0.017 A 
ATOM      5  C   LIG    1        4.957  -0.111  -4.929  0.00  0.00    +0.024 A 
ATOM      6  C   LIG    1        4.658   0.912  -4.036  0.00  0.00    +0.041 A 
ATOM      7  C   LIG    1        4.995   2.332  -4.380  0.00  0.00    +0.065 C 
ATOM      8  C   LIG    1        3.665  -3.026  -2.942  0.00  0.00    +0.205 A 
ATOM      9  O   LIG    1        3.890  -3.989  -3.674  0.00  0.00    -0.286 OA
ATOM     10  C   LIG    1        3.022  -3.235  -1.626  0.00  0.00    +0.122 A 
ATOM     11  N   LIG    1        4.074   0.688  -2.832  0.00  0.00    -0.234 NA
ATOM     12  C   LIG    1        2.805  -2.140  -0.882  0.00  0.00    +0.106 A 
ENDROOT
BRANCH   1  14
ATOM     13  C   LIG    1        4.047   0.595   0.533  0.00  0.00    +0.027 C 
ATOM     14  C   LIG    1        2.861   0.317  -0.379  0.00  0.00    +0.120 C 
ENDBRANCH   1  14
BRANCH  10  15
ATOM     15  C   LIG    1        2.614  -4.558  -1.112  0.00  0.00    +0.342 C 
ATOM     16  O   LIG    1        2.081  -4.720  -0.023  0.00  0.00    -0.245 OA
BRANCH  15  17
ATOM     17  O   LIG    1        2.874  -5.588  -1.944  0.00  0.00    -0.477 OA
ATOM     18  H   LIG    1        3.306  -5.322  -2.794  0.00  0.00    +0.295 HD
ENDBRANCH  15  17
ENDBRANCH  10  15
TORSDOF 3
