REMARK  Name = *****
REMARK                            x       y       z     vdW  Elec       q    Type
REMARK                         _______ _______ _______ _____ _____    ______ ____
ROOT
ATOM      1  C   LIG    1        6.730  -2.244   0.612  0.00  0.00    +0.353 C 
ENDROOT
BRANCH   1   2
ATOM      2  C   LIG    1        8.194  -2.506   1.029  0.00  0.00    +0.377 C 
BRANCH   2   3
ATOM      3  O   LIG    1        8.419  -2.014   2.352  0.00  0.00    -0.212 OA
BRANCH   3   5
ATOM      4  O   LIG    1        9.887  -0.568   1.421  0.00  0.00    +0.093 OA
ATOM      5  N   LIG    1        9.338  -0.945   2.450  0.00  0.00    +0.284 N 
ATOM      6  O   LIG    1        9.463  -0.537   3.609  0.00  0.00    -0.534 OA
ENDBRANCH   3   5
ENDBRANCH   2   3
ENDBRANCH   1   2
BRANCH   1   7
ATOM      7  C   LIG    1        6.428  -2.773  -0.817  0.00  0.00    +0.353 C 
BRANCH   7   8
ATOM      8  C   LIG    1        4.946  -2.585  -1.208  0.00  0.00    +0.377 C 
BRANCH   8   9
ATOM      9  O   LIG    1        4.581  -1.212  -1.141  0.00  0.00    -0.212 OA
BRANCH   9  10
ATOM     10  N   LIG    1        3.236  -0.996  -1.535  0.00  0.00    +0.284 N 
ATOM     11  O   LIG    1        2.689  -1.902  -2.175  0.00  0.00    -0.534 OA
ATOM     12  O   LIG    1        2.799   0.091  -1.177  0.00  0.00    +0.093 OA
ENDBRANCH   9  10
ENDBRANCH   8   9
ENDBRANCH   7   8
BRANCH   7  13
ATOM     13  O   LIG    1        6.701  -4.182  -0.873  0.00  0.00    -0.205 OA
BRANCH  13  14
ATOM     14  N   LIG    1        7.155  -4.620  -2.142  0.00  0.00    +0.285 N 
ATOM     15  O   LIG    1        7.710  -3.787  -2.851  0.00  0.00    -0.534 OA
ATOM     16  O   LIG    1        6.944  -5.818  -2.337  0.00  0.00    +0.093 OA
ENDBRANCH  13  14
ENDBRANCH   7  13
ENDBRANCH   1   7
BRANCH   1  17
ATOM     17  O   LIG    1        5.848  -2.889   1.534  0.00  0.00    -0.205 OA
BRANCH  17  18
ATOM     18  N   LIG    1        5.443  -2.074   2.625  0.00  0.00    +0.285 N 
ATOM     19  O   LIG    1        5.829  -0.912   2.643  0.00  0.00    -0.534 OA
ATOM     20  O   LIG    1        4.732  -2.692   3.412  0.00  0.00    +0.093 OA
ENDBRANCH  17  18
ENDBRANCH   1  17
TORSDOF 11
