REMARK  Name = *****
REMARK                            x       y       z     vdW  Elec       q    Type
REMARK                         _______ _______ _______ _____ _____    ______ ____
ROOT
ATOM      1  C   LIG    1        1.702  -0.491   2.397  0.00  0.00    +0.132 A 
ATOM      2  C   LIG    1        1.578   0.670   3.155  0.00  0.00    +0.050 A 
ATOM      3  C   LIG    1        1.156   0.602   4.491  0.00  0.00    -0.040 A 
ATOM      4  C   LIG    1        1.026   1.889   5.258  0.00  0.00    +0.036 C 
ATOM      5  C   LIG    1        0.917   1.687   6.766  0.00  0.00    +0.009 C 
ATOM      6  C   LIG    1       -0.120   0.600   7.093  0.00  0.00    +0.001 C 
ATOM      7  C   LIG    1        0.329  -0.755   6.494  0.00  0.00    +0.023 C 
ATOM      8  C   LIG    1        1.413  -1.408   7.365  0.00  0.00    +0.009 C 
ATOM      9  C   LIG    1        0.905  -1.675   8.776  0.00  0.00    +0.010 C 
ATOM     10  C   LIG    1        0.283  -0.468   9.499  0.00  0.00    -0.003 C 
ATOM     11  C   LIG    1       -0.644  -1.046  10.609  0.00  0.00    +0.014 C 
ATOM     12  C   LIG    1        1.286   0.485  10.210  0.00  0.00    +0.121 C 
ATOM     13  C   LIG    1        0.767   1.914  10.004  0.00  0.00    +0.032 C 
ATOM     14  C   LIG    1       -0.609   1.778   9.360  0.00  0.00    +0.007 C 
ATOM     15  C   LIG    1       -0.558   0.458   8.579  0.00  0.00    +0.001 C 
ATOM     16  C   LIG    1        0.807  -0.638   5.053  0.00  0.00    -0.041 A 
ATOM     17  C   LIG    1        0.912  -1.797   4.260  0.00  0.00    +0.008 A 
ATOM     18  C   LIG    1        1.356  -1.725   2.938  0.00  0.00    +0.046 A 
ENDROOT
BRANCH  12  19
ATOM     19  O   LIG    1        2.624   0.358   9.759  0.00  0.00    -0.391 OA
ATOM     20  H   LIG    1        2.701   0.752   8.877  0.00  0.00    +0.210 HD
ENDBRANCH  12  19
BRANCH   1  21
ATOM     21  O   LIG    1        2.067  -0.470   1.038  0.00  0.00    -0.426 OA
BRANCH  21  23
ATOM     22  C   LIG    1        3.152   0.328  -0.894  0.00  0.00    +0.136 C 
ATOM     23  C   LIG    1        3.055   0.410   0.599  0.00  0.00    +0.309 C 
ATOM     24  O   LIG    1        3.772   1.121   1.292  0.00  0.00    -0.251 OA
ENDBRANCH  21  23
ENDBRANCH   1  21
TORSDOF 3
