REMARK  Name = *****
REMARK                            x       y       z     vdW  Elec       q    Type
REMARK                         _______ _______ _______ _____ _____    ______ ____
ROOT
ATOM      1  C   LIG    1        5.052  -4.613   2.461  0.00  0.00    +0.211 C 
ATOM      2  O   LIG    1        5.578  -4.365   3.776  0.00  0.00    -0.483 OA
ATOM      3  C   LIG    1        6.309  -5.405   4.282  0.00  0.00    +0.139 A 
ATOM      4  C   LIG    1        6.157  -6.730   3.872  0.00  0.00    +0.101 A 
ATOM      5  C   LIG    1        6.935  -7.736   4.458  0.00  0.00    +0.134 A 
ATOM      6  C   LIG    1        7.855  -7.423   5.456  0.00  0.00    +0.091 A 
ATOM      7  C   LIG    1        7.985  -6.099   5.868  0.00  0.00    +0.124 A 
ATOM      8  C   LIG    1        5.131  -7.035   2.858  0.00  0.00    +0.174 C 
ATOM      9  O   LIG    1        4.988  -8.188   2.462  0.00  0.00    -0.292 OA
ATOM     10  C   LIG    1        7.218  -5.091   5.292  0.00  0.00    +0.092 A 
ATOM     11  C   LIG    1        4.241  -5.901   2.428  0.00  0.00    +0.129 C 
ENDROOT
BRANCH   1  15
ATOM     12  C   LIG    1        2.641  -1.190   1.253  0.00  0.00    +0.161 A 
ATOM     13  C   LIG    1        2.692  -1.577   2.595  0.00  0.00    +0.159 A 
ATOM     14  C   LIG    1        3.461  -2.683   2.987  0.00  0.00    +0.056 A 
ATOM     15  C   LIG    1        4.204  -3.421   2.049  0.00  0.00    -0.003 A 
ATOM     16  C   LIG    1        4.138  -3.038   0.704  0.00  0.00    +0.011 A 
ATOM     17  C   LIG    1        3.369  -1.936   0.318  0.00  0.00    +0.050 A 
BRANCH  12  19
ATOM     18  C   LIG    1        1.198   0.699   1.538  0.00  0.00    +0.277 C 
ATOM     19  O   LIG    1        1.958  -0.148   0.688  0.00  0.00    -0.491 OA
ENDBRANCH  12  19
BRANCH  13  20
ATOM     20  O   LIG    1        2.003  -0.896   3.561  0.00  0.00    -0.503 OA
ATOM     21  H   LIG    1        2.187  -1.296   4.426  0.00  0.00    +0.292 HD
ENDBRANCH  13  20
ENDBRANCH   1  15
BRANCH   7  22
ATOM     22  O   LIG    1        8.862  -5.745   6.849  0.00  0.00    -0.506 OA
ATOM     23  H   LIG    1        9.321  -6.541   7.165  0.00  0.00    +0.292 HD
ENDBRANCH   7  22
BRANCH   5  24
ATOM     24  O   LIG    1        6.833  -9.056   4.110  0.00  0.00    -0.506 OA
ATOM     25  H   LIG    1        6.141  -9.139   3.415  0.00  0.00    +0.292 HD
ENDBRANCH   5  24
TORSDOF 5
