REMARK  Name = *****
REMARK                            x       y       z     vdW  Elec       q    Type
REMARK                         _______ _______ _______ _____ _____    ______ ____
ROOT
ATOM      1  O   LIG    1        6.751  -1.952  -4.220  0.00  0.00    -0.489 OA
ENDROOT
BRANCH   1   2
ATOM      2  C   LIG    1        7.861  -2.763  -4.251  0.00  0.00    +0.126 A 
ATOM      3  C   LIG    1        8.086  -3.534  -5.407  0.00  0.00    +0.016 A 
ATOM      4  C   LIG    1        7.149  -3.552  -6.590  0.00  0.00    +0.050 C 
ATOM      5  C   LIG    1        7.881  -3.874  -7.885  0.00  0.00    +0.101 C 
ATOM      6  C   LIG    1        8.787  -5.079  -7.757  0.00  0.00    +0.217 C 
ATOM      7  N   LIG    1        9.407  -5.232  -6.543  0.00  0.00    -0.285 N 
ATOM      8  H   LIG    1       10.111  -5.958  -6.510  0.00  0.00    +0.155 HD
ATOM      9  O   LIG    1        9.052  -5.814  -8.695  0.00  0.00    -0.276 OA
ATOM     10  C   LIG    1        9.171  -4.429  -5.425  0.00  0.00    +0.040 A 
ATOM     11  C   LIG    1       10.021  -4.557  -4.331  0.00  0.00    +0.024 A 
ATOM     12  C   LIG    1        9.830  -3.749  -3.217  0.00  0.00    +0.005 A 
ATOM     13  C   LIG    1        8.769  -2.843  -3.185  0.00  0.00    +0.046 A 
ENDBRANCH   1   2
BRANCH   1  14
ATOM     14  C   LIG    1        6.214  -1.682  -2.913  0.00  0.00    +0.261 C 
BRANCH  14  15
ATOM     15  C   LIG    1        4.699  -1.449  -2.987  0.00  0.00    +0.166 C 
BRANCH  15  16
ATOM     16  O   LIG    1        4.181  -1.184  -1.677  0.00  0.00    -0.387 OA
ATOM     17  H   LIG    1        3.923  -2.054  -1.310  0.00  0.00    +0.210 HD
ENDBRANCH  15  16
BRANCH  15  18
ATOM     18  C   LIG    1        3.964  -2.659  -3.606  0.00  0.00    +0.116 C 
BRANCH  18  19
ATOM     19  N   LIG    1        4.118  -3.887  -2.793  0.00  0.00    -0.309 NA
ATOM     20  H   LIG    1        5.114  -4.093  -2.693  0.00  0.00    +0.122 HD
BRANCH  19  22
ATOM     21  C   LIG    1        1.954  -4.921  -3.450  0.00  0.00    +0.027 C 
ATOM     22  C   LIG    1        3.477  -5.093  -3.366  0.00  0.00    +0.011 C 
ATOM     23  C   LIG    1        4.048  -5.458  -4.748  0.00  0.00    +0.027 C 
ATOM     24  C   LIG    1        3.772  -6.269  -2.410  0.00  0.00    +0.027 C 
ENDBRANCH  19  22
ENDBRANCH  18  19
ENDBRANCH  15  18
ENDBRANCH  14  15
ENDBRANCH   1  14
TORSDOF 7
