REMARK  Name = *****
REMARK                            x       y       z     vdW  Elec       q    Type
REMARK                         _______ _______ _______ _____ _____    ______ ____
ROOT
ATOM      1  C   LIG    1        1.505  -0.614   1.360  0.00  0.00    +0.105 C 
ATOM      2  N   LIG    1        2.924  -0.997   1.679  0.00  0.00    -0.299 NA
ATOM      3  C   LIG    1        3.684   0.247   1.218  0.00  0.00    +0.093 C 
ATOM      4  C   LIG    1        4.611  -0.641   1.819  0.00  0.00    +0.096 C 
ATOM      5  C   LIG    1        4.222  -1.975   0.473  0.00  0.00    +0.075 C 
ATOM      6  C   LIG    1        2.583  -2.861   0.433  0.00  0.00    +0.253 C 
ATOM      7  O   LIG    1        2.808  -3.632  -0.784  0.00  0.00    -0.476 OA
ATOM      8  C   LIG    1        3.429  -2.665  -1.613  0.00  0.00    +0.167 A 
ATOM      9  C   LIG    1        3.240  -2.498  -2.961  0.00  0.00    +0.159 A 
ATOM     10  C   LIG    1        3.678  -1.298  -3.542  0.00  0.00    +0.049 A 
ATOM     11  C   LIG    1        4.082  -0.206  -2.728  0.00  0.00    +0.008 A 
ATOM     12  C   LIG    1        4.153  -0.371  -1.352  0.00  0.00    -0.038 A 
ATOM     13  C   LIG    1        1.805  -3.082   2.141  0.00  0.00    +0.174 C 
ATOM     14  O   LIG    1        0.880  -3.903   2.318  0.00  0.00    -0.293 OA
ATOM     15  C   LIG    1        2.467  -2.137   3.616  0.00  0.00    +0.081 C 
ATOM     16  C   LIG    1        4.098  -1.661  -0.921  0.00  0.00    +0.014 A 
ATOM     17  C   LIG    1        5.058  -2.997   0.976  0.00  0.00    +0.034 C 
ATOM     18  C   LIG    1        3.857  -0.899   3.569  0.00  0.00    +0.045 C 
ATOM     19  C   LIG    1        4.099   0.689  -0.266  0.00  0.00    +0.057 C 
ATOM     20  C   LIG    1        4.048  -2.599   2.038  0.00  0.00    +0.085 C 
ENDROOT
BRANCH   4  21
ATOM     21  O   LIG    1        5.954  -0.224   1.882  0.00  0.00    -0.386 OA
ATOM     22  H   LIG    1        6.004   0.481   2.549  0.00  0.00    +0.210 HD
ENDBRANCH   4  21
BRANCH   9  23
ATOM     23  O   LIG    1        2.577  -3.412  -3.716  0.00  0.00    -0.503 OA
ATOM     24  H   LIG    1        2.211  -4.064  -3.089  0.00  0.00    +0.292 HD
ENDBRANCH   9  23
TORSDOF 2
