REMARK  Name = *****
REMARK                            x       y       z     vdW  Elec       q    Type
REMARK                         _______ _______ _______ _____ _____    ______ ____
ROOT
ATOM      1  C   UNK    1        9.981  -1.055   2.284  0.00  0.00    +0.039 C 
ENDROOT
BRANCH   1   2
ATOM      2  C   UNK    1       11.430  -0.557   2.370  0.00  0.00    +0.196 C 
BRANCH   2   3
ATOM      3  N   UNK    1       11.902  -0.039   1.093  0.00  0.00    -0.276 N 
ATOM      4  H   UNK    1       12.354   0.875   1.179  0.00  0.00    +0.258 HD
BRANCH   3   5
ATOM      5  C   UNK    1       12.569  -0.769   0.160  0.00  0.00    +0.378 C 
ATOM      6  N   UNK    1       13.296  -0.122  -0.676  0.00  0.00    -0.130 NA
ATOM      7  H   UNK    1       13.665  -0.769  -1.375  0.00  0.00    +0.306 HD
BRANCH   5   9
ATOM      8  C   UNK    1       12.617  -3.040  -0.872  0.00  0.00    +0.239 C 
ATOM      9  N   UNK    1       12.259  -2.078   0.131  0.00  0.00    -0.279 N 
ATOM     10  H   UNK    1       11.410  -2.334   0.606  0.00  0.00    +0.258 HD
ENDBRANCH   5   9
ENDBRANCH   3   5
ENDBRANCH   2   3
ENDBRANCH   1   2
BRANCH   1  11
ATOM     11  C   UNK    1        8.894   0.020   2.163  0.00  0.00    +0.033 C 
BRANCH  11  12
ATOM     12  C   UNK    1        8.954   0.928   0.926  0.00  0.00    +0.161 C 
BRANCH  12  13
ATOM     13  N   UNK    1        7.871   1.939   1.036  0.00  0.00    -0.318 NA
ATOM     14  H   UNK    1        7.869   2.484   0.169  0.00  0.00    +0.119 HD
ATOM     15  H   UNK    1        6.979   1.436   0.995  0.00  0.00    +0.119 HD
ENDBRANCH  12  13
BRANCH  12  16
ATOM     16  C   UNK    1        8.760   0.149  -0.386  0.00  0.00    +0.322 C 
ATOM     17  O   UNK    1        7.658  -0.086  -0.884  0.00  0.00    -0.249 OA
BRANCH  16  18
ATOM     18  O   UNK    1        9.894  -0.248  -0.978  0.00  0.00    -0.479 OA
ATOM     19  H   UNK    1       10.696   0.050  -0.479  0.00  0.00    +0.295 HD
ENDBRANCH  16  18
ENDBRANCH  12  16
ENDBRANCH  11  12
ENDBRANCH   1  11
TORSDOF 9
