REMARK  Name = *****
REMARK                            x       y       z     vdW  Elec       q    Type
REMARK                         _______ _______ _______ _____ _____    ______ ____
ROOT
ATOM      1  N   LIG    1        5.334  -4.645   4.000  0.00  0.00    -0.294 N 
ENDROOT
BRANCH   1   2
ATOM      2  C   LIG    1        6.223  -5.449   4.718  0.00  0.00    +0.218 A 
ATOM      3  N   LIG    1        6.280  -6.753   4.407  0.00  0.00    -0.223 NA
ATOM      4  C   LIG    1        7.177  -7.519   5.061  0.00  0.00    +0.116 A 
ATOM      5  C   LIG    1        8.011  -7.037   6.032  0.00  0.00    +0.039 A 
ATOM      6  C   LIG    1        7.867  -5.707   6.310  0.00  0.00    +0.116 A 
ATOM      7  N   LIG    1        6.993  -4.897   5.667  0.00  0.00    -0.223 NA
ENDBRANCH   1   2
BRANCH   1   8
ATOM      8  C   LIG    1        5.292  -3.236   4.370  0.00  0.00    +0.143 C 
BRANCH   8  12
ATOM      9  C   LIG    1        2.700  -1.024   1.693  0.00  0.00    +0.120 A 
ATOM     10  C   LIG    1        2.195  -1.605   2.854  0.00  0.00    +0.046 A 
ATOM     11  C   LIG    1        3.046  -2.273   3.733  0.00  0.00    +0.009 A 
ATOM     12  C   LIG    1        4.412  -2.410   3.448  0.00  0.00    -0.030 A 
ATOM     13  C   LIG    1        4.910  -1.854   2.261  0.00  0.00    +0.009 A 
ATOM     14  C   LIG    1        4.056  -1.166   1.390  0.00  0.00    +0.046 A 
BRANCH   9  16
ATOM     15  C   LIG    1        0.825   0.349   1.324  0.00  0.00    +0.277 C 
ATOM     16  O   LIG    1        1.940  -0.350   0.775  0.00  0.00    -0.495 OA
ENDBRANCH   9  16
ENDBRANCH   8  12
ENDBRANCH   1   8
BRANCH   1  17
ATOM     17  C   LIG    1        4.186  -5.339   3.415  0.00  0.00    +0.123 C 
BRANCH  17  18
ATOM     18  C   LIG    1        3.182  -5.877   4.471  0.00  0.00    +0.103 C 
BRANCH  18  19
ATOM     19  N   LIG    1        1.970  -6.556   3.964  0.00  0.00    -0.307 NA
ATOM     20  C   LIG    1        2.301  -7.795   3.263  0.00  0.00    +0.104 C 
ATOM     21  C   LIG    1        1.151  -5.684   3.124  0.00  0.00    +0.104 C 
ENDBRANCH  18  19
ENDBRANCH  17  18
ENDBRANCH   1  17
TORSDOF 7
