REMARK  Name = *****
REMARK                            x       y       z     vdW  Elec       q    Type
REMARK                         _______ _______ _______ _____ _____    ______ ____
ROOT
ATOM      1  C   LIG    1        6.801  -2.728  -0.993  0.00  0.00    +0.050 C 
ATOM      2  C   LIG    1        7.226  -4.032  -0.314  0.00  0.00    -0.033 A 
ATOM      3  C   LIG    1        6.548  -5.230  -0.633  0.00  0.00    -0.021 A 
ATOM      4  C   LIG    1        6.849  -6.408   0.068  0.00  0.00    +0.008 A 
ATOM      5  C   LIG    1        7.852  -6.426   1.036  0.00  0.00    +0.001 A 
ATOM      6  C   LIG    1        8.582  -5.272   1.292  0.00  0.00    +0.000 A 
ATOM      7  C   LIG    1        5.516  -5.304  -1.684  0.00  0.00    +0.009 C 
ATOM      8  C   LIG    1        5.538  -4.654  -2.857  0.00  0.00    +0.009 C 
ATOM      9  C   LIG    1        6.576  -3.714  -3.326  0.00  0.00    -0.021 A 
ATOM     10  C   LIG    1        6.920  -3.751  -4.686  0.00  0.00    +0.008 A 
ATOM     11  C   LIG    1        7.878  -2.880  -5.205  0.00  0.00    +0.001 A 
ATOM     12  C   LIG    1        8.498  -1.958  -4.371  0.00  0.00    +0.000 A 
ATOM     13  C   LIG    1        8.162  -1.904  -3.017  0.00  0.00    +0.005 A 
ATOM     14  C   LIG    1        8.283  -4.090   0.612  0.00  0.00    +0.005 A 
ATOM     15  C   LIG    1        7.193  -2.767  -2.474  0.00  0.00    -0.033 A 
ENDROOT
BRANCH   1  16
ATOM     16  C   LIG    1        7.194  -1.418  -0.256  0.00  0.00    +0.014 C 
BRANCH  16  17
ATOM     17  C   LIG    1        6.559  -1.275   1.138  0.00  0.00    +0.016 C 
BRANCH  17  18
ATOM     18  C   LIG    1        6.936   0.040   1.834  0.00  0.00    +0.080 C 
BRANCH  18  20
ATOM     19  C   LIG    1        8.708   1.421   2.705  0.00  0.00    +0.101 C 
ATOM     20  N   LIG    1        8.381   0.169   2.032  0.00  0.00    -0.319 NA
ATOM     21  H   LIG    1        8.725  -0.612   2.590  0.00  0.00    +0.122 HD
ENDBRANCH  18  20
ENDBRANCH  17  18
ENDBRANCH  16  17
ENDBRANCH   1  16
TORSDOF 4
