REMARK  Name = *****
REMARK                            x       y       z     vdW  Elec       q    Type
REMARK                         _______ _______ _______ _____ _____    ______ ____
ROOT
ATOM      1  C   LIG    1       10.005   5.916  -5.240  0.00  0.00    +0.307 C 
ATOM      2  O   LIG    1        9.886   4.738  -5.553  0.00  0.00    -0.251 OA
ENDROOT
BRANCH   1   3
ATOM      3  C   LIG    1        9.522   6.472  -3.930  0.00  0.00    +0.120 C 
BRANCH   3   4
ATOM      4  C   LIG    1        8.468   7.554  -4.136  0.00  0.00    +0.011 C 
BRANCH   4   5
ATOM      5  C   LIG    1        7.950   8.116  -2.808  0.00  0.00    +0.000 C 
BRANCH   5   6
ATOM      6  C   LIG    1        6.886   9.203  -2.991  0.00  0.00    -0.000 C 
BRANCH   6   7
ATOM      7  C   LIG    1        7.398  10.450  -3.720  0.00  0.00    -0.000 C 
BRANCH   7   9
ATOM      8  C   LIG    1        5.133  11.062  -4.699  0.00  0.00    +0.004 C 
ATOM      9  C   LIG    1        6.325  11.530  -3.877  0.00  0.00    -0.003 C 
ENDBRANCH   7   9
ENDBRANCH   6   7
ENDBRANCH   5   6
ENDBRANCH   4   5
ENDBRANCH   3   4
ENDBRANCH   1   3
BRANCH   1  10
ATOM     10  O   LIG    1       10.622   6.851  -5.998  0.00  0.00    -0.462 OA
BRANCH  10  11
ATOM     11  C   LIG    1       11.095   6.401  -7.286  0.00  0.00    +0.265 C 
BRANCH  11  12
ATOM     12  C   LIG    1       12.457   5.716  -7.133  0.00  0.00    +0.177 C 
BRANCH  12  13
ATOM     13  O   LIG    1       13.419   6.634  -6.581  0.00  0.00    -0.386 OA
ATOM     14  H   LIG    1       13.031   6.981  -5.757  0.00  0.00    +0.210 HD
ENDBRANCH  12  13
BRANCH  12  15
ATOM     15  C   LIG    1       13.001   5.235  -8.477  0.00  0.00    +0.190 C 
BRANCH  15  16
ATOM     16  O   LIG    1       14.241   4.558  -8.267  0.00  0.00    -0.392 OA
ATOM     17  H   LIG    1       14.748   5.139  -7.664  0.00  0.00    +0.209 HD
ENDBRANCH  15  16
ENDBRANCH  12  15
ENDBRANCH  11  12
ENDBRANCH  10  11
ENDBRANCH   1  10
TORSDOF 12
