REMARK  Name = *****
REMARK                            x       y       z     vdW  Elec       q    Type
REMARK                         _______ _______ _______ _____ _____    ______ ____
ROOT
ATOM      1  C   LIG    1        0.218   1.518  -0.443  0.00  0.00    +0.076 C 
ATOM      2  C   LIG    1       -0.501   2.350   0.632  0.00  0.00    +0.037 C 
ATOM      3  C   LIG    1       -0.623   1.625   1.977  0.00  0.00    +0.086 C 
ATOM      4  N   LIG    1       -1.227   0.304   1.798  0.00  0.00    -0.302 NA
ATOM      5  C   LIG    1       -0.463  -0.560   0.886  0.00  0.00    +0.086 C 
ATOM      6  C   LIG    1        0.619   0.137   0.063  0.00  0.00    +0.037 C 
ENDROOT
BRANCH   1   9
ATOM      7  O   LIG    1        0.816   2.755  -2.896  0.00  0.00    -0.270 OA
ATOM      8  C   LIG    1       -0.191   2.084  -2.844  0.00  0.00    +0.245 C 
ATOM      9  N   LIG    1       -0.572   1.416  -1.676  0.00  0.00    -0.308 N 
ATOM     10  H   LIG    1       -1.391   0.839  -1.658  0.00  0.00    +0.149 HD
BRANCH   8  11
ATOM     11  C   LIG    1       -1.103   1.960  -4.038  0.00  0.00    +0.044 A 
ATOM     12  C   LIG    1       -0.666   2.046  -5.394  0.00  0.00    -0.006 A 
ATOM     13  C   LIG    1       -1.687   2.030  -6.385  0.00  0.00    +0.009 A 
ATOM     14  C   LIG    1       -3.048   1.968  -6.077  0.00  0.00    +0.001 A 
ATOM     15  C   LIG    1       -3.449   1.886  -4.756  0.00  0.00    +0.001 A 
ATOM     16  C   LIG    1       -2.486   1.881  -3.749  0.00  0.00    +0.013 A 
BRANCH  12  17
ATOM     17  C   LIG    1        0.752   2.173  -5.875  0.00  0.00    -0.017 A 
ATOM     18  C   LIG    1        1.837   1.548  -5.242  0.00  0.00    +0.009 A 
ATOM     19  C   LIG    1        3.162   1.752  -5.661  0.00  0.00    +0.013 A 
ATOM     20  C   LIG    1        3.450   2.528  -6.789  0.00  0.00    +0.055 A 
ATOM     21  C   LIG    1        2.382   3.091  -7.490  0.00  0.00    +0.013 A 
ATOM     22  C   LIG    1        1.068   2.932  -7.027  0.00  0.00    +0.009 A 
BRANCH  20  23
ATOM     23  C   LIG    1        4.879   2.752  -7.214  0.00  0.00    +0.417 C 
ATOM     24  F   LIG    1        5.530   1.587  -7.492  0.00  0.00    -0.166 F 
ATOM     25  F   LIG    1        5.622   3.372  -6.255  0.00  0.00    -0.166 F 
ATOM     26  F   LIG    1        5.003   3.521  -8.333  0.00  0.00    -0.166 F 
ENDBRANCH  20  23
ENDBRANCH  12  17
ENDBRANCH   8  11
ENDBRANCH   1   9
BRANCH   4  27
ATOM     27  C   LIG    1       -1.480  -0.352   3.093  0.00  0.00    +0.084 C 
BRANCH  27  28
ATOM     28  C   LIG    1       -2.294  -1.657   2.981  0.00  0.00    +0.015 C 
BRANCH  28  29
ATOM     29  C   LIG    1       -3.679  -1.470   2.334  0.00  0.00    +0.003 C 
BRANCH  29  30
ATOM     30  C   LIG    1       -4.403  -2.819   2.175  0.00  0.00    +0.026 C 
BRANCH  30  31
ATOM     31  C   LIG    1       -5.821  -2.815   1.525  0.00  0.00    +0.098 C 
ATOM     32  C   LIG    1       -5.802  -2.418   0.036  0.00  0.00    -0.020 A 
ATOM     33  C   LIG    1       -6.288  -3.478  -0.760  0.00  0.00    -0.013 A 
ATOM     34  C   LIG    1       -6.341  -3.365  -2.139  0.00  0.00    +0.009 A 
ATOM     35  C   LIG    1       -5.918  -2.173  -2.726  0.00  0.00    +0.001 A 
ATOM     36  C   LIG    1       -5.483  -1.100  -1.934  0.00  0.00    +0.000 A 
ATOM     37  C   LIG    1       -6.618  -4.604   0.079  0.00  0.00    -0.013 A 
ATOM     38  C   LIG    1       -7.108  -5.854  -0.273  0.00  0.00    +0.009 A 
ATOM     39  C   LIG    1       -7.196  -6.839   0.711  0.00  0.00    +0.001 A 
ATOM     40  C   LIG    1       -6.799  -6.564   2.028  0.00  0.00    +0.000 A 
ATOM     41  C   LIG    1       -6.360  -5.284   2.394  0.00  0.00    +0.005 A 
ATOM     42  C   LIG    1       -5.437  -1.211  -0.544  0.00  0.00    +0.005 A 
ATOM     43  C   LIG    1       -6.295  -4.296   1.415  0.00  0.00    -0.020 A 
BRANCH  31  44
ATOM     44  C   LIG    1       -6.884  -1.996   2.332  0.00  0.00    +0.228 C 
ATOM     45  N   LIG    1       -7.968  -1.488   1.625  0.00  0.00    -0.306 N 
ATOM     46  H   LIG    1       -7.944  -1.467   0.609  0.00  0.00    +0.149 HD
ATOM     47  O   LIG    1       -6.818  -1.859   3.556  0.00  0.00    -0.275 OA
BRANCH  45  48
ATOM     48  C   LIG    1       -9.053  -0.769   2.303  0.00  0.00    +0.217 C 
BRANCH  48  49
ATOM     49  C   LIG    1      -10.210  -0.261   1.430  0.00  0.00    +0.405 C 
ATOM     50  F   LIG    1      -10.349   1.081   1.537  0.00  0.00    -0.169 F 
ATOM     51  F   LIG    1      -11.387  -0.819   1.795  0.00  0.00    -0.169 F 
ATOM     52  F   LIG    1      -10.016  -0.541   0.120  0.00  0.00    -0.169 F 
ENDBRANCH  48  49
ENDBRANCH  45  48
ENDBRANCH  31  44
ENDBRANCH  30  31
ENDBRANCH  29  30
ENDBRANCH  28  29
ENDBRANCH  27  28
ENDBRANCH   4  27
TORSDOF 12
