REMARK  Name = *****
REMARK                            x       y       z     vdW  Elec       q    Type
REMARK                         _______ _______ _______ _____ _____    ______ ____
ROOT
ATOM      1  C   LIG    1        0.911  -0.114  -0.068  0.00  0.00    +0.069 C 
ATOM      2  C   LIG    1        2.405   0.025  -0.096  0.00  0.00    +0.080 A 
ATOM      3  C   LIG    1        3.009   1.277  -0.022  0.00  0.00    +0.148 A 
ATOM      4  C   LIG    1        4.411   1.351  -0.040  0.00  0.00    +0.064 A 
ATOM      5  C   LIG    1        5.175   0.178  -0.137  0.00  0.00    +0.010 A 
ATOM      6  C   LIG    1        4.469  -1.018  -0.216  0.00  0.00    +0.117 A 
ATOM      7  N   LIG    1        3.123  -1.121  -0.192  0.00  0.00    -0.256 NA
ENDROOT
BRANCH   3   8
ATOM      8  O   LIG    1        2.206   2.384   0.075  0.00  0.00    -0.504 OA
ATOM      9  H   LIG    1        2.783   3.181   0.107  0.00  0.00    +0.292 HD
ENDBRANCH   3   8
BRANCH   4  10
ATOM     10  C   LIG    1        5.067   2.676   0.055  0.00  0.00    +0.262 C 
ATOM     11  O   LIG    1        4.398   3.703   0.151  0.00  0.00    -0.296 OA
ENDBRANCH   4  10
BRANCH   5  12
ATOM     12  C   LIG    1        6.672   0.141  -0.142  0.00  0.00    +0.193 C 
BRANCH  12  13
ATOM     13  O   LIG    1        7.152   0.877  -1.254  0.00  0.00    -0.390 OA
ATOM     14  H   LIG    1        8.109   0.709  -1.320  0.00  0.00    +0.210 HD
ENDBRANCH  12  13
ENDBRANCH   5  12
TORSDOF 4
