REMARK  Name = *****
REMARK                            x       y       z     vdW  Elec       q    Type
REMARK                         _______ _______ _______ _____ _____    ______ ____
ROOT
ATOM      1  C   LIG    1        3.207  -1.735   0.537  0.00  0.00    -0.034 A 
ATOM      2  C   LIG    1        3.786  -1.881   1.808  0.00  0.00    +0.009 A 
ATOM      3  C   LIG    1        4.428  -3.076   2.177  0.00  0.00    -0.026 A 
ATOM      4  C   LIG    1        4.975  -3.247   3.569  0.00  0.00    +0.115 C 
ATOM      5  C   LIG    1        4.055  -4.051   4.457  0.00  0.00    +0.169 C 
ATOM      6  C   LIG    1        3.668  -5.466   4.125  0.00  0.00    +0.031 A 
ATOM      7  C   LIG    1        4.112  -6.218   3.019  0.00  0.00    +0.023 A 
ATOM      8  S   LIG    1        5.235  -5.684   1.728  0.00  0.00    -0.088 S 
ATOM      9  C   LIG    1        3.663  -7.548   2.877  0.00  0.00    +0.016 A 
ATOM     10  C   LIG    1        2.785  -8.126   3.795  0.00  0.00    +0.001 A 
ATOM     11  C   LIG    1        2.338  -7.385   4.878  0.00  0.00    +0.001 A 
ATOM     12  C   LIG    1        2.776  -6.071   5.040  0.00  0.00    +0.012 A 
ATOM     13  O   LIG    1        3.619  -3.541   5.494  0.00  0.00    -0.292 OA
ATOM     14  C   LIG    1        4.500  -4.132   1.262  0.00  0.00    +0.016 A 
ATOM     15  C   LIG    1        3.978  -3.973  -0.023  0.00  0.00    +0.015 A 
ATOM     16  C   LIG    1        3.332  -2.787  -0.382  0.00  0.00    +0.005 A 
ENDROOT
BRANCH   1  18
ATOM     17  C   LIG    1        3.324   0.742   0.092  0.00  0.00    +0.024 C 
ATOM     18  C   LIG    1        2.415  -0.488   0.161  0.00  0.00    +0.124 C 
BRANCH  18  19
ATOM     19  C   LIG    1        1.213  -0.203   1.064  0.00  0.00    +0.312 C 
ATOM     20  O   LIG    1        0.769   0.921   1.270  0.00  0.00    -0.250 OA
BRANCH  19  21
ATOM     21  O   LIG    1        0.597  -1.294   1.574  0.00  0.00    -0.480 OA
ATOM     22  H   LIG    1        1.024  -2.145   1.355  0.00  0.00    +0.295 HD
ENDBRANCH  19  21
ENDBRANCH  18  19
ENDBRANCH   1  18
TORSDOF 3
