REMARK  Name = *****
REMARK                            x       y       z     vdW  Elec       q    Type
REMARK                         _______ _______ _______ _____ _____    ______ ____
ROOT
ATOM      1  C   LIG    1        2.516   2.413   0.103  0.00  0.00    +0.027 C 
ATOM      2  C   LIG    1        2.084   3.130  -1.213  0.00  0.00    +0.086 C 
ENDROOT
BRANCH   2   3
ATOM      3  N   LIG    1        3.045   2.739  -2.292  0.00  0.00    -0.297 NA
ATOM      4  C   LIG    1        2.748   3.175  -3.656  0.00  0.00    +0.085 C 
ATOM      5  C   LIG    1        2.885   4.670  -3.940  0.00  0.00    +0.019 C 
ATOM      6  C   LIG    1        4.171   5.320  -3.418  0.00  0.00    -0.004 C 
ATOM      7  C   LIG    1        4.842   4.539  -2.255  0.00  0.00    +0.019 C 
ATOM      8  C   LIG    1        4.460   3.063  -2.077  0.00  0.00    +0.085 C 
BRANCH   6   9
ATOM      9  C   LIG    1        3.914   6.782  -2.951  0.00  0.00    +0.038 C 
BRANCH   9  10
ATOM     10  C   LIG    1        3.253   7.784  -3.880  0.00  0.00    -0.047 A 
ATOM     11  C   LIG    1        3.892   8.268  -5.029  0.00  0.00    +0.003 A 
ATOM     12  C   LIG    1        3.341   9.335  -5.754  0.00  0.00    +0.000 A 
ATOM     13  C   LIG    1        2.145   9.926  -5.346  0.00  0.00    +0.000 A 
ATOM     14  C   LIG    1        1.480   9.431  -4.229  0.00  0.00    +0.000 A 
ATOM     15  C   LIG    1        2.028   8.367  -3.507  0.00  0.00    +0.003 A 
ENDBRANCH   9  10
ENDBRANCH   6   9
ENDBRANCH   2   3
BRANCH   2  16
ATOM     16  C   LIG    1        0.521   2.785  -1.413  0.00  0.00    +0.161 C 
BRANCH  16  17
ATOM     17  C   LIG    1       -0.231   3.609  -2.453  0.00  0.00    -0.017 A 
ATOM     18  C   LIG    1       -0.472   3.130  -3.747  0.00  0.00    +0.010 A 
ATOM     19  C   LIG    1       -0.880   3.964  -4.782  0.00  0.00    +0.046 A 
ATOM     20  C   LIG    1       -1.201   5.290  -4.473  0.00  0.00    +0.117 A 
ATOM     21  C   LIG    1       -1.125   5.745  -3.171  0.00  0.00    +0.046 A 
ATOM     22  C   LIG    1       -0.637   4.922  -2.153  0.00  0.00    +0.010 A 
BRANCH  20  23
ATOM     23  O   LIG    1       -1.556   6.099  -5.508  0.00  0.00    -0.507 OA
ATOM     24  H   LIG    1       -1.664   7.010  -5.166  0.00  0.00    +0.292 HD
ENDBRANCH  20  23
ENDBRANCH  16  17
BRANCH  16  25
ATOM     25  O   LIG    1        0.296   1.391  -1.671  0.00  0.00    -0.386 OA
ATOM     26  H   LIG    1        1.032   0.894  -1.277  0.00  0.00    +0.210 HD
ENDBRANCH  16  25
ENDBRANCH   2  16
TORSDOF 7
