REMARK  Name = *****
REMARK                            x       y       z     vdW  Elec       q    Type
REMARK                         _______ _______ _______ _____ _____    ______ ____
ROOT
ATOM      1  O   LIG    1        5.017   1.797   2.040  0.00  0.00    -0.458 OA
ENDROOT
BRANCH   1   3
ATOM      2  C   LIG    1        3.194   1.045   0.618  0.00  0.00    +0.032 C 
ATOM      3  C   LIG    1        4.707   0.914   0.931  0.00  0.00    +0.180 C 
ATOM      4  C   LIG    1        5.565   1.275  -0.289  0.00  0.00    +0.048 C 
ATOM      5  C   LIG    1        5.252   2.635  -0.939  0.00  0.00    -0.011 C 
ATOM      6  C   LIG    1        6.039   3.781  -0.299  0.00  0.00    +0.007 C 
ATOM      7  C   LIG    1        3.752   2.959  -1.020  0.00  0.00    +0.004 C 
ATOM      8  C   LIG    1        2.911   2.496   0.170  0.00  0.00    +0.007 C 
BRANCH   2  10
ATOM      9  C   LIG    1        2.930  -1.468   0.063  0.00  0.00    +0.007 C 
ATOM     10  C   LIG    1        2.650  -0.026  -0.389  0.00  0.00    -0.011 C 
ATOM     11  C   LIG    1        1.134   0.104  -0.609  0.00  0.00    +0.007 C 
ENDBRANCH   2  10
ENDBRANCH   1   3
BRANCH   1  12
ATOM     12  C   LIG    1        6.084   1.450   2.819  0.00  0.00    +0.343 C 
ATOM     13  O   LIG    1        6.814   0.498   2.631  0.00  0.00    -0.245 OA
BRANCH  12  14
ATOM     14  C   LIG    1        6.205   2.428   3.943  0.00  0.00    +0.100 A 
ATOM     15  C   LIG    1        6.689   2.039   5.199  0.00  0.00    +0.131 A 
ATOM     16  C   LIG    1        6.792   2.969   6.241  0.00  0.00    +0.046 A 
ATOM     17  C   LIG    1        6.420   4.297   6.032  0.00  0.00    +0.004 A 
ATOM     18  C   LIG    1        5.951   4.700   4.786  0.00  0.00    +0.001 A 
ATOM     19  C   LIG    1        5.844   3.771   3.749  0.00  0.00    +0.019 A 
BRANCH  15  20
ATOM     20  O   LIG    1        7.036   0.740   5.444  0.00  0.00    -0.506 OA
ATOM     21  H   LIG    1        7.442   0.668   6.323  0.00  0.00    +0.292 HD
ENDBRANCH  15  20
ENDBRANCH  12  14
ENDBRANCH   1  12
TORSDOF 5
