REMARK  Name = *****
REMARK                            x       y       z     vdW  Elec       q    Type
REMARK                         _______ _______ _______ _____ _____    ______ ____
ROOT
ATOM      1  C   LIG    1        3.717   5.821  -7.308  0.00  0.00    +0.147 C 
ATOM      2  C   LIG    1        4.286   4.512  -6.708  0.00  0.00    +0.068 C 
ATOM      3  C   LIG    1        3.349   3.436  -6.137  0.00  0.00    +0.141 C 
ATOM      4  O   LIG    1        3.178   2.465  -7.178  0.00  0.00    -0.344 OA
ATOM      5  C   LIG    1        2.099   1.555  -7.058  0.00  0.00    +0.172 C 
ATOM      6  C   LIG    1        1.623   1.388  -5.615  0.00  0.00    +0.097 C 
ATOM      7  C   LIG    1        1.182   2.745  -5.042  0.00  0.00    +0.136 C 
ATOM      8  C   LIG    1        2.471   0.230  -7.758  0.00  0.00    +0.096 C 
ATOM      9  C   LIG    1        3.946  -0.220  -7.829  0.00  0.00    +0.122 C 
ATOM     10  C   LIG    1        4.535  -0.937  -6.607  0.00  0.00    +0.066 C 
ATOM     11  C   LIG    1        5.101  -0.079  -5.512  0.00  0.00    +0.154 C 
ATOM     12  C   LIG    1        6.566   0.303  -5.344  0.00  0.00    +0.171 C 
ATOM     13  C   LIG    1        7.448   0.198  -6.508  0.00  0.00    +0.014 C 
ATOM     14  C   LIG    1        7.768   1.224  -7.310  0.00  0.00    +0.090 C 
ATOM     15  C   LIG    1        8.471   0.995  -8.586  0.00  0.00    +0.332 C 
ATOM     16  O   LIG    1        8.943  -0.071  -8.959  0.00  0.00    -0.246 OA
ATOM     17  O   LIG    1        8.397   2.145  -9.296  0.00  0.00    -0.458 OA
ATOM     18  C   LIG    1        8.665   2.037 -10.713  0.00  0.00    +0.177 C 
ATOM     19  C   LIG    1       10.161   2.198 -10.945  0.00  0.00    +0.052 C 
ATOM     20  C   LIG    1        7.876   3.158 -11.422  0.00  0.00    +0.071 C 
ATOM     21  C   LIG    1        6.392   2.995 -11.231  0.00  0.00    -0.023 C 
ATOM     22  C   LIG    1        5.429   3.365 -12.091  0.00  0.00    -0.004 C 
ATOM     23  C   LIG    1        4.053   3.203 -11.693  0.00  0.00    -0.000 C 
ATOM     24  C   LIG    1        2.995   3.895 -12.148  0.00  0.00    +0.000 C 
ATOM     25  C   LIG    1        1.758   3.865 -11.346  0.00  0.00    +0.000 C 
ATOM     26  C   LIG    1        1.651   4.861 -10.434  0.00  0.00    -0.000 C 
ATOM     27  C   LIG    1        2.418   4.741  -9.193  0.00  0.00    -0.002 C 
ATOM     28  O   LIG    1        6.000  -0.827  -4.674  0.00  0.00    -0.364 OA
ATOM     29  C   LIG    1        2.034   3.921  -5.530  0.00  0.00    +0.155 C 
ATOM     30  C   LIG    1        2.607   5.748  -8.331  0.00  0.00    +0.004 C 
ENDROOT
BRANCH   7  31
ATOM     31  O   LIG    1       -0.174   3.015  -5.429  0.00  0.00    -0.391 OA
ATOM     32  H   LIG    1       -0.235   2.799  -6.387  0.00  0.00    +0.210 HD
ENDBRANCH   7  31
BRANCH   5  33
ATOM     33  O   LIG    1        0.985   2.128  -7.752  0.00  0.00    -0.364 OA
ATOM     34  H   LIG    1        1.244   2.185  -8.689  0.00  0.00    +0.213 HD
ENDBRANCH   5  33
BRANCH   9  35
ATOM     35  O   LIG    1        4.805   0.802  -8.323  0.00  0.00    -0.392 OA
ATOM     36  H   LIG    1        4.537   1.639  -7.896  0.00  0.00    +0.210 HD
ENDBRANCH   9  35
BRANCH  29  37
ATOM     37  C   LIG    1        2.313   4.828  -4.356  0.00  0.00    +0.313 C 
ATOM     38  O   LIG    1        3.294   4.725  -3.634  0.00  0.00    -0.251 OA
BRANCH  37  39
ATOM     39  O   LIG    1        1.376   5.782  -4.178  0.00  0.00    -0.480 OA
ATOM     40  H   LIG    1        0.603   5.701  -4.774  0.00  0.00    +0.295 HD
ENDBRANCH  37  39
ENDBRANCH  29  37
BRANCH   1  41
ATOM     41  O   LIG    1        4.755   6.529  -8.025  0.00  0.00    -0.341 OA
BRANCH  41  47
ATOM     42  C   LIG    1        6.254   8.646  -4.119  0.00  0.00    +0.040 C 
ATOM     43  C   LIG    1        6.761   7.900  -5.346  0.00  0.00    +0.148 C 
ATOM     44  C   LIG    1        7.765   8.734  -6.154  0.00  0.00    +0.162 C 
ATOM     45  C   LIG    1        8.179   7.962  -7.426  0.00  0.00    +0.116 C 
ATOM     46  C   LIG    1        6.934   7.530  -8.217  0.00  0.00    +0.189 C 
ATOM     47  C   LIG    1        5.943   6.797  -7.279  0.00  0.00    +0.281 C 
ATOM     48  O   LIG    1        5.616   7.584  -6.144  0.00  0.00    -0.343 OA
BRANCH  45  49
ATOM     49  N   LIG    1        9.102   8.808  -8.224  0.00  0.00    -0.323 NA
ATOM     50  H   LIG    1        9.406   8.278  -9.042  0.00  0.00    +0.119 HD
ATOM     51  H   LIG    1        8.523   9.556  -8.627  0.00  0.00    +0.119 HD
ENDBRANCH  45  49
BRANCH  44  52
ATOM     52  O   LIG    1        8.938   9.015  -5.387  0.00  0.00    -0.388 OA
ATOM     53  H   LIG    1        9.582   9.347  -6.047  0.00  0.00    +0.210 HD
ENDBRANCH  44  52
BRANCH  46  54
ATOM     54  O   LIG    1        6.319   8.693  -8.803  0.00  0.00    -0.385 OA
ATOM     55  H   LIG    1        5.372   8.459  -8.893  0.00  0.00    +0.210 HD
ENDBRANCH  46  54
ENDBRANCH  41  47
ENDBRANCH   1  41
TORSDOF 10
