REMARK  Name = *****
REMARK                            x       y       z     vdW  Elec       q    Type
REMARK                         _______ _______ _______ _____ _____    ______ ____
ROOT
ATOM      1  S   LIG    1        6.477   0.090  -0.602  0.00  0.00    +0.074 S 
ATOM      2  O   LIG    1        6.806  -1.212  -0.070  0.00  0.00    -0.150 OA
ATOM      3  O   LIG    1        7.112   1.298  -0.111  0.00  0.00    -0.150 OA
ENDROOT
BRANCH   1   7
ATOM      4  C   LIG    1        1.961   0.630  -0.164  0.00  0.00    +0.025 A 
ATOM      5  C   LIG    1        2.524  -0.650  -0.199  0.00  0.00    +0.024 A 
ATOM      6  C   LIG    1        3.901  -0.821  -0.351  0.00  0.00    +0.030 A 
ATOM      7  C   LIG    1        4.724   0.303  -0.432  0.00  0.00    +0.109 A 
ATOM      8  C   LIG    1        4.189   1.588  -0.323  0.00  0.00    +0.030 A 
ATOM      9  C   LIG    1        2.810   1.743  -0.174  0.00  0.00    +0.024 A 
BRANCH   4  10
ATOM     10  N   LIG    1        0.600   0.790   0.114  0.00  0.00    -0.358 N 
ATOM     11  H   LIG    1        0.024   0.011  -0.191  0.00  0.00    +0.142 HD
ATOM     12  H   LIG    1        0.221   1.685  -0.179  0.00  0.00    +0.142 HD
ENDBRANCH   4  10
ENDBRANCH   1   7
BRANCH   1  13
ATOM     13  N   LIG    1        6.616   0.121  -2.295  0.00  0.00    -0.194 N 
ATOM     14  H   LIG    1        6.894   1.079  -2.515  0.00  0.00    +0.176 HD
BRANCH  13  15
ATOM     15  C   LIG    1        7.710  -0.680  -2.696  0.00  0.00    +0.177 A 
ATOM     16  S   LIG    1        7.619  -2.356  -3.004  0.00  0.00    -0.059 S 
ATOM     17  C   LIG    1        9.298  -2.348  -3.362  0.00  0.00    +0.068 A 
ATOM     18  C   LIG    1        9.785  -1.061  -3.260  0.00  0.00    +0.120 A 
ATOM     19  N   LIG    1        8.852  -0.093  -2.944  0.00  0.00    -0.232 NA
ENDBRANCH  13  15
ENDBRANCH   1  13
TORSDOF 4
