REMARK  Name = *****
REMARK                            x       y       z     vdW  Elec       q    Type
REMARK                         _______ _______ _______ _____ _____    ______ ____
ROOT
ATOM      1  C   LIG    1        5.359   1.535  -2.299  0.00  0.00    +0.196 A 
ATOM      2  C   LIG    1        5.892   0.888  -3.409  0.00  0.00    +0.355 A 
ATOM      3  N   LIG    1        6.377   1.602  -4.449  0.00  0.00    -0.203 N 
ATOM      4  C   LIG    1        6.933   0.870  -5.597  0.00  0.00    +0.438 C 
ATOM      5  C   LIG    1        6.351   2.954  -4.438  0.00  0.00    +0.309 A 
ATOM      6  C   LIG    1        5.799   3.639  -3.358  0.00  0.00    +0.073 A 
ATOM      7  C   LIG    1        5.288   2.923  -2.280  0.00  0.00    +0.058 A 
ENDROOT
BRANCH   1   8
ATOM      8  O   LIG    1        4.820   0.851  -1.196  0.00  0.00    -0.405 OA
BRANCH   8  11
ATOM      9  C   LIG    1        3.562  -0.243   0.944  0.00  0.00    +0.135 C 
ATOM     10  N   LIG    1        4.646  -0.938   0.269  0.00  0.00    -0.273 N 
ATOM     11  C   LIG    1        5.325  -0.399  -0.808  0.00  0.00    +0.408 C 
ATOM     12  O   LIG    1        6.268  -0.940  -1.373  0.00  0.00    -0.226 OA
ATOM     13  C   LIG    1        5.170  -2.123   0.924  0.00  0.00    +0.135 C 
ENDBRANCH   8  11
ENDBRANCH   1   8
TORSDOF 2
