REMARK  Name = *****
REMARK                            x       y       z     vdW  Elec       q    Type
REMARK                         _______ _______ _______ _____ _____    ______ ____
ROOT
ATOM      1  C   LIG    1        6.896   0.052  -0.735  0.00  0.00    +0.063 C 
ATOM      2  C   LIG    1        7.349  -1.285  -0.119  0.00  0.00    -0.030 A 
ATOM      3  C   LIG    1        6.725  -2.506  -0.514  0.00  0.00    -0.020 A 
ATOM      4  C   LIG    1        7.176  -3.725   0.042  0.00  0.00    +0.089 A 
ATOM      5  C   LIG    1        8.210  -3.734   0.981  0.00  0.00    +0.177 A 
ATOM      6  C   LIG    1        8.803  -2.546   1.371  0.00  0.00    +0.160 A 
ATOM      7 CL   LIG    1        6.504  -5.260  -0.409  0.00  0.00    -0.079 Cl
ATOM      8  C   LIG    1        5.599  -2.472  -1.530  0.00  0.00    +0.052 C 
ATOM      9  C   LIG    1        6.078  -2.037  -2.918  0.00  0.00    +0.085 C 
ATOM     10  N   LIG    1        6.116  -0.585  -3.096  0.00  0.00    -0.315 NA
ATOM     11  H   LIG    1        6.312  -0.384  -4.077  0.00  0.00    +0.122 HD
ATOM     12  C   LIG    1        8.387  -1.336   0.835  0.00  0.00    +0.053 A 
ATOM     13  C   LIG    1        7.138   0.085  -2.275  0.00  0.00    +0.093 C 
ENDROOT
BRANCH   1  17
ATOM     14  C   LIG    1        8.463   3.579   1.244  0.00  0.00    +0.117 A 
ATOM     15  C   LIG    1        9.209   2.981   0.236  0.00  0.00    +0.045 A 
ATOM     16  C   LIG    1        8.716   1.846  -0.411  0.00  0.00    +0.008 A 
ATOM     17  C   LIG    1        7.467   1.305  -0.057  0.00  0.00    -0.038 A 
ATOM     18  C   LIG    1        6.737   1.923   0.975  0.00  0.00    +0.008 A 
ATOM     19  C   LIG    1        7.231   3.059   1.621  0.00  0.00    +0.045 A 
BRANCH  14  20
ATOM     20  O   LIG    1        8.984   4.685   1.848  0.00  0.00    -0.507 OA
ATOM     21  H   LIG    1        8.367   4.979   2.538  0.00  0.00    +0.292 HD
ENDBRANCH  14  20
ENDBRANCH   1  17
BRANCH   6  22
ATOM     22  O   LIG    1        9.814  -2.554   2.289  0.00  0.00    -0.503 OA
ATOM     23  H   LIG    1        9.934  -3.497   2.522  0.00  0.00    +0.292 HD
ENDBRANCH   6  22
BRANCH   5  24
ATOM     24  O   LIG    1        8.686  -4.888   1.553  0.00  0.00    -0.502 OA
ATOM     25  H   LIG    1        8.163  -5.622   1.175  0.00  0.00    +0.292 HD
ENDBRANCH   5  24
TORSDOF 4
