REMARK  Name = *****
REMARK                            x       y       z     vdW  Elec       q    Type
REMARK                         _______ _______ _______ _____ _____    ______ ____
ROOT
ATOM      1  C   LIG    1        7.104   3.136   0.079  0.00  0.00    +0.129 C 
ATOM      2  C   LIG    1        7.626   4.524   0.211  0.00  0.00    +0.032 A 
ATOM      3  C   LIG    1        8.349   5.190  -0.802  0.00  0.00    +0.024 A 
ATOM      4  C   LIG    1        8.796   6.508  -0.602  0.00  0.00    +0.017 A 
ATOM      5  C   LIG    1        8.553   7.164   0.604  0.00  0.00    +0.021 A 
ATOM      6  C   LIG    1        7.851   6.509   1.610  0.00  0.00    +0.042 A 
ATOM      7 CL   LIG    1        7.572   7.306   3.109  0.00  0.00    -0.084 Cl
ATOM      8  S   LIG    1        8.783   4.421  -2.362  0.00  0.00    -0.088 S 
ATOM      9  C   LIG    1        9.777   3.079  -1.719  0.00  0.00    +0.020 A 
ATOM     10  C   LIG    1        9.267   2.145  -0.801  0.00  0.00    -0.008 A 
ATOM     11  C   LIG    1       10.107   1.124  -0.330  0.00  0.00    +0.009 A 
ATOM     12  C   LIG    1       11.432   1.031  -0.757  0.00  0.00    +0.001 A 
ATOM     13  C   LIG    1       11.931   1.952  -1.673  0.00  0.00    +0.001 A 
ATOM     14  C   LIG    1       11.108   2.973  -2.152  0.00  0.00    +0.015 A 
ATOM     15  C   LIG    1        7.383   5.209   1.417  0.00  0.00    +0.032 A 
ATOM     16  C   LIG    1        7.858   2.112  -0.361  0.00  0.00    +0.055 C 
ENDROOT
BRANCH   1  17
ATOM     17  O   LIG    1        5.785   3.026   0.512  0.00  0.00    -0.490 OA
BRANCH  17  18
ATOM     18  C   LIG    1        5.182   1.724   0.499  0.00  0.00    +0.244 C 
BRANCH  18  19
ATOM     19  C   LIG    1        3.751   1.804   1.072  0.00  0.00    +0.124 C 
BRANCH  19  21
ATOM     20  C   LIG    1        3.718  -0.449   1.992  0.00  0.00    +0.104 C 
ATOM     21  N   LIG    1        3.041   0.505   1.111  0.00  0.00    -0.305 NA
ATOM     22  C   LIG    1        1.659   0.686   1.572  0.00  0.00    +0.104 C 
ENDBRANCH  19  21
ENDBRANCH  18  19
ENDBRANCH  17  18
ENDBRANCH   1  17
TORSDOF 4
