REMARK  Name = *****
REMARK                            x       y       z     vdW  Elec       q    Type
REMARK                         _______ _______ _______ _____ _____    ______ ____
ROOT
ATOM      1  N   LIG    1        6.892   1.848  -0.242  0.00  0.00    -0.297 NA
ATOM      2  C   LIG    1        7.518   0.555  -0.592  0.00  0.00    +0.089 C 
ATOM      3  C   LIG    1        7.325   0.135  -2.057  0.00  0.00    +0.047 C 
ATOM      4  C   LIG    1        7.843   1.203  -3.012  0.00  0.00    -0.057 C 
ATOM      5  C   LIG    1        8.687   0.961  -4.053  0.00  0.00    +0.007 C 
ATOM      6  C   LIG    1        9.189  -0.411  -4.334  0.00  0.00    +0.075 A 
ATOM      7  C   LIG    1        8.961  -1.063  -5.553  0.00  0.00    -0.021 A 
ATOM      8  C   LIG    1        9.514  -2.348  -5.700  0.00  0.00    +0.007 A 
ATOM      9  C   LIG    1       10.256  -2.921  -4.674  0.00  0.00    +0.020 A 
ATOM     10  C   LIG    1       10.440  -2.189  -3.519  0.00  0.00    +0.111 A 
ATOM     11  C   LIG    1        8.216  -0.498  -6.747  0.00  0.00    +0.042 C 
ATOM     12  C   LIG    1        7.451   0.827  -6.617  0.00  0.00    +0.040 C 
ATOM     13  C   LIG    1        8.364   1.984  -6.287  0.00  0.00    -0.038 A 
ATOM     14  C   LIG    1        8.635   2.984  -7.231  0.00  0.00    +0.024 A 
ATOM     15  C   LIG    1        9.527   4.012  -6.919  0.00  0.00    +0.041 A 
ATOM     16 CL   LIG    1        9.857   5.233  -8.085  0.00  0.00    -0.084 Cl
ATOM     17  C   LIG    1       10.161   4.051  -5.678  0.00  0.00    +0.020 A 
ATOM     18  C   LIG    1        9.895   3.060  -4.732  0.00  0.00    +0.010 A 
ATOM     19  N   LIG    1        9.932  -0.955  -3.331  0.00  0.00    -0.255 NA
ATOM     20  C   LIG    1        8.984   2.038  -5.025  0.00  0.00    -0.013 A 
ATOM     21  C   LIG    1        7.248   2.563  -2.663  0.00  0.00    +0.047 C 
ATOM     22  C   LIG    1        7.401   2.887  -1.161  0.00  0.00    +0.089 C 
ENDROOT
BRANCH   1  23
ATOM     23  C   LIG    1        5.418   1.811  -0.249  0.00  0.00    +0.121 C 
BRANCH  23  27
ATOM     24  C   LIG    1        4.822  -0.040   4.423  0.00  0.00    +0.045 C 
ATOM     25  C   LIG    1        4.509  -0.049   2.961  0.00  0.00    -0.032 A 
ATOM     26  C   LIG    1        5.091   0.880   2.094  0.00  0.00    +0.011 A 
ATOM     27  C   LIG    1        4.816   0.828   0.724  0.00  0.00    -0.015 A 
ATOM     28  C   LIG    1        3.951  -0.169   0.284  0.00  0.00    +0.115 A 
ATOM     29  N   LIG    1        3.375  -1.089   1.089  0.00  0.00    -0.263 NA
ATOM     30  C   LIG    1        3.673  -1.010   2.405  0.00  0.00    +0.114 A 
ENDBRANCH  23  27
ENDBRANCH   1  23
TORSDOF 2
