REMARK  Name = *****
REMARK                            x       y       z     vdW  Elec       q    Type
REMARK                         _______ _______ _______ _____ _____    ______ ____
ROOT
ATOM      1  C   LIG    1        6.231  -1.819  -1.297  0.00  0.00    +0.012 C 
ATOM      2  C   LIG    1        7.227  -2.339  -2.342  0.00  0.00    +0.039 C 
ATOM      3  C   LIG    1        8.691  -2.733  -1.919  0.00  0.00    +0.189 C 
ATOM      4  C   LIG    1        9.089  -3.726  -3.120  0.00  0.00    +0.022 C 
ATOM      5  C   LIG    1        7.788  -4.530  -3.402  0.00  0.00    +0.006 C 
ATOM      6  C   LIG    1        7.637  -5.945  -2.800  0.00  0.00    +0.037 C 
ATOM      7  C   LIG    1        8.935  -6.789  -2.869  0.00  0.00    +0.153 C 
ATOM      8  C   LIG    1       10.024  -5.968  -2.135  0.00  0.00    +0.154 C 
ATOM      9  F   LIG    1        9.298  -6.826  -4.202  0.00  0.00    -0.238 F 
ATOM     10  C   LIG    1        8.758  -8.311  -2.404  0.00  0.00    +0.047 C 
ATOM     11  C   LIG    1        7.394  -8.920  -2.854  0.00  0.00    -0.020 C 
ATOM     12  C   LIG    1        7.088 -10.171  -2.433  0.00  0.00    +0.054 C 
ATOM     13  C   LIG    1        6.978 -10.155  -0.925  0.00  0.00    +0.179 C 
ATOM     14  C   LIG    1        8.015  -9.351  -0.209  0.00  0.00    +0.047 C 
ATOM     15  O   LIG    1        6.165 -10.849  -0.334  0.00  0.00    -0.288 OA
ATOM     16  C   LIG    1        6.209  -7.981  -2.920  0.00  0.00    +0.194 C 
ATOM     17  F   LIG    1        5.766  -7.689  -1.662  0.00  0.00    -0.241 F 
ATOM     18  C   LIG    1        9.912  -9.166  -3.009  0.00  0.00    +0.023 C 
ATOM     19  C   LIG    1        8.841  -8.530  -0.886  0.00  0.00    -0.009 C 
ATOM     20  C   LIG    1        6.533  -6.671  -3.588  0.00  0.00    +0.048 C 
ATOM     21  C   LIG    1        9.342  -3.027  -4.500  0.00  0.00    +0.016 C 
ATOM     22  C   LIG    1       10.301  -4.640  -2.851  0.00  0.00    +0.046 C 
ATOM     23  C   LIG    1        6.633  -3.578  -3.039  0.00  0.00    +0.012 C 
ENDROOT
BRANCH   3  24
ATOM     24  C   LIG    1        9.513  -1.400  -1.661  0.00  0.00    +0.236 C 
ATOM     25  O   LIG    1        9.601  -0.909  -0.536  0.00  0.00    -0.281 OA
BRANCH  24  26
ATOM     26  S   LIG    1       10.154  -0.449  -2.995  0.00  0.00    -0.051 S 
BRANCH  26  27
ATOM     27  C   LIG    1       11.785  -1.198  -3.169  0.00  0.00    +0.290 C 
ATOM     28  F   LIG    1       12.623  -0.787  -2.190  0.00  0.00    -0.237 F 
ENDBRANCH  26  27
ENDBRANCH  24  26
ENDBRANCH   3  24
BRANCH   8  29
ATOM     29  O   LIG    1       11.264  -6.654  -1.989  0.00  0.00    -0.389 OA
ATOM     30  H   LIG    1       11.710  -6.678  -2.855  0.00  0.00    +0.210 HD
ENDBRANCH   8  29
BRANCH   3  31
ATOM     31  O   LIG    1        8.563  -3.438  -0.631  0.00  0.00    -0.443 OA
BRANCH  31  32
ATOM     32  C   LIG    1        9.680  -3.515   0.189  0.00  0.00    +0.376 C 
ATOM     33  O   LIG    1       10.819  -3.390  -0.221  0.00  0.00    -0.241 OA
BRANCH  32  34
ATOM     34  C   LIG    1        9.328  -3.736   1.587  0.00  0.00    +0.211 A 
ATOM     35  O   LIG    1        8.024  -3.879   1.986  0.00  0.00    -0.456 OA
ATOM     36  C   LIG    1        8.029  -3.988   3.342  0.00  0.00    +0.196 A 
ATOM     37  C   LIG    1        9.314  -3.929   3.834  0.00  0.00    +0.042 A 
ATOM     38  C   LIG    1       10.147  -3.788   2.698  0.00  0.00    +0.056 A 
ENDBRANCH  32  34
ENDBRANCH  31  32
ENDBRANCH   3  31
TORSDOF 7
