REMARK  Name = *****
REMARK                            x       y       z     vdW  Elec       q    Type
REMARK                         _______ _______ _______ _____ _____    ______ ____
ROOT
ATOM      1  C   LIG    1        0.817   0.125   0.042  0.00  0.00    +0.138 C 
ATOM      2  N   LIG    1        2.264   0.042   0.187  0.00  0.00    -0.270 N 
ATOM      3  C   LIG    1        2.826  -1.241   0.200  0.00  0.00    +0.271 C 
ATOM      4  O   LIG    1        2.134  -2.266   0.211  0.00  0.00    -0.270 OA
ATOM      5  C   LIG    1        4.376  -1.334   0.140  0.00  0.00    +0.320 C 
ATOM      6  N   LIG    1        4.880  -0.943   1.448  0.00  0.00    -0.243 NA
ATOM      7  C   LIG    1        4.792   0.301   1.780  0.00  0.00    +0.079 C 
ATOM      8  C   LIG    1        4.255   1.379   0.897  0.00  0.00    +0.023 A 
ATOM      9  C   LIG    1        4.985   2.582   0.843  0.00  0.00    +0.032 A 
ATOM     10  C   LIG    1        4.487   3.670   0.136  0.00  0.00    +0.042 A 
ATOM     11 CL   LIG    1        5.379   5.138   0.083  0.00  0.00    -0.084 Cl
ATOM     12  C   LIG    1        3.267   3.577  -0.519  0.00  0.00    +0.022 A 
ATOM     13  C   LIG    1        2.546   2.379  -0.482  0.00  0.00    +0.025 A 
ATOM     14  C   LIG    1        3.032   1.249   0.205  0.00  0.00    +0.045 A 
ENDROOT
BRANCH   7  15
ATOM     15  C   LIG    1        5.314   0.672   3.128  0.00  0.00    +0.019 A 
ATOM     16  C   LIG    1        4.571   1.393   4.072  0.00  0.00    +0.050 A 
ATOM     17 CL   LIG    1        2.931   1.872   3.814  0.00  0.00    -0.083 Cl
ATOM     18  C   LIG    1        5.146   1.716   5.306  0.00  0.00    +0.021 A 
ATOM     19  C   LIG    1        6.450   1.313   5.604  0.00  0.00    +0.002 A 
ATOM     20  C   LIG    1        7.181   0.575   4.677  0.00  0.00    +0.001 A 
ATOM     21  C   LIG    1        6.615   0.249   3.444  0.00  0.00    +0.011 A 
ENDBRANCH   7  15
BRANCH   5  22
ATOM     22  O   LIG    1        4.778  -2.648  -0.216  0.00  0.00    -0.364 OA
ATOM     23  H   LIG    1        4.346  -3.209   0.453  0.00  0.00    +0.212 HD
ENDBRANCH   5  22
TORSDOF 2
