REMARK  Name = *****
REMARK                            x       y       z     vdW  Elec       q    Type
REMARK                         _______ _______ _______ _____ _____    ______ ____
ROOT
ATOM      1  N   LIG    1       11.367  -1.021  -1.887  0.00  0.00    -0.299 NA
ATOM      2  C   LIG    1       12.313  -2.124  -1.627  0.00  0.00    +0.103 C 
ATOM      3  C   LIG    1       13.493  -2.293  -2.619  0.00  0.00    +0.122 C 
ATOM      4  N   LIG    1       13.647  -1.126  -3.510  0.00  0.00    -0.312 N 
ATOM      5  C   LIG    1       13.423   0.165  -2.858  0.00  0.00    +0.122 C 
ATOM      6  C   LIG    1       12.178   0.209  -1.946  0.00  0.00    +0.103 C 
ENDROOT
BRANCH   4   7
ATOM      7  C   LIG    1       14.421  -1.250  -4.647  0.00  0.00    +0.138 A 
ATOM      8  C   LIG    1       14.560  -0.211  -5.689  0.00  0.00    +0.031 A 
ATOM      9  C   LIG    1       15.402  -0.667  -6.711  0.00  0.00    +0.041 A 
ATOM     10  C   LIG    1       15.722   0.114  -7.842  0.00  0.00    +0.017 A 
ATOM     11  C   LIG    1       15.180   1.395  -7.961  0.00  0.00    +0.001 A 
ATOM     12  C   LIG    1       14.338   1.884  -6.986  0.00  0.00    +0.001 A 
ATOM     13  S   LIG    1       15.905  -2.256  -6.326  0.00  0.00    +0.014 S 
ATOM     14  C   LIG    1       14.022   1.094  -5.883  0.00  0.00    +0.012 A 
ATOM     15  N   LIG    1       15.080  -2.382  -4.913  0.00  0.00    -0.194 NA
ENDBRANCH   4   7
BRANCH   1  16
ATOM     16  C   LIG    1       10.579  -1.193  -3.131  0.00  0.00    +0.089 C 
BRANCH  16  17
ATOM     17  C   LIG    1        9.635  -2.412  -3.145  0.00  0.00    +0.052 C 
BRANCH  17  25
ATOM     18  O   LIG    1        6.200  -3.487   3.237  0.00  0.00    -0.275 OA
ATOM     19  C   LIG    1        6.630  -3.214   2.116  0.00  0.00    +0.222 C 
ATOM     20  N   LIG    1        5.923  -2.558   1.119  0.00  0.00    -0.285 N 
ATOM     21  H   LIG    1        4.972  -2.244   1.236  0.00  0.00    +0.155 HD
ATOM     22  C   LIG    1        6.694  -2.414  -0.025  0.00  0.00    +0.038 A 
ATOM     23  C   LIG    1        7.940  -2.990   0.181  0.00  0.00    -0.017 A 
ATOM     24  C   LIG    1        8.883  -3.001  -0.825  0.00  0.00    +0.011 A 
ATOM     25  C   LIG    1        8.576  -2.398  -2.061  0.00  0.00    -0.028 A 
ATOM     26  C   LIG    1        7.306  -1.796  -2.234  0.00  0.00    +0.046 A 
ATOM     27 CL   LIG    1        6.866  -1.015  -3.714  0.00  0.00    -0.083 Cl
ATOM     28  C   LIG    1        6.346  -1.812  -1.212  0.00  0.00    +0.044 A 
ATOM     29  C   LIG    1        8.025  -3.528   1.576  0.00  0.00    +0.133 C 
ENDBRANCH  17  25
ENDBRANCH  16  17
ENDBRANCH   1  16
TORSDOF 4
