REMARK  Name = *****
REMARK                            x       y       z     vdW  Elec       q    Type
REMARK                         _______ _______ _______ _____ _____    ______ ____
ROOT
ATOM      1  C   LIG    1       -4.030  -2.864   4.277  0.00  0.00    +0.176 C 
ATOM      2  C   LIG    1       -3.479  -3.830   3.151  0.00  0.00    +0.018 C 
ATOM      3  C   LIG    1       -2.374  -3.169   2.307  0.00  0.00    +0.016 C 
ATOM      4  C   LIG    1       -4.734  -4.146   2.306  0.00  0.00    +0.007 C 
ATOM      5  C   LIG    1       -4.576  -5.317   1.294  0.00  0.00    +0.021 C 
ATOM      6  C   LIG    1       -3.738  -6.556   1.725  0.00  0.00    +0.007 C 
ATOM      7  C   LIG    1       -2.628  -6.237   2.743  0.00  0.00    +0.006 C 
ATOM      8  C   LIG    1       -4.558  -7.883   1.982  0.00  0.00    +0.001 C 
ATOM      9  C   LIG    1       -5.478  -7.821   3.225  0.00  0.00    +0.017 C 
ATOM     10  C   LIG    1       -5.469  -8.119   0.756  0.00  0.00    -0.020 C 
ATOM     11  C   LIG    1       -5.533  -9.292   0.092  0.00  0.00    +0.052 C 
ATOM     12  C   LIG    1       -4.721 -10.478   0.430  0.00  0.00    +0.160 C 
ATOM     13  O   LIG    1       -4.843 -11.535  -0.176  0.00  0.00    -0.292 OA
ATOM     14  C   LIG    1       -3.721 -10.335   1.505  0.00  0.00    +0.064 C 
ATOM     15  C   LIG    1       -2.509  -9.463   1.277  0.00  0.00    +0.016 C 
ATOM     16  C   LIG    1       -6.250  -6.954   0.338  0.00  0.00    +0.041 C 
ATOM     17 CL   LIG    1       -7.759  -7.187  -0.492  0.00  0.00    -0.084 Cl
ATOM     18  C   LIG    1       -3.579  -9.038   2.255  0.00  0.00    +0.011 C 
ATOM     19  C   LIG    1       -5.865  -5.696   0.606  0.00  0.00    -0.003 C 
ATOM     20  C   LIG    1       -5.874  -4.222   3.333  0.00  0.00    +0.009 C 
ATOM     21  C   LIG    1       -2.940  -5.150   3.762  0.00  0.00    +0.011 C 
ATOM     22  C   LIG    1       -5.383  -3.530   4.614  0.00  0.00    +0.057 C 
ENDROOT
BRANCH   1  23
ATOM     23  C   LIG    1       -4.264  -1.401   3.771  0.00  0.00    +0.174 C 
ATOM     24  O   LIG    1       -5.276  -1.084   3.139  0.00  0.00    -0.293 OA
ATOM     25  C   LIG    1       -3.184  -0.364   4.016  0.00  0.00    +0.090 C 
ENDBRANCH   1  23
BRANCH   1  26
ATOM     26  O   LIG    1       -3.120  -2.892   5.402  0.00  0.00    -0.450 OA
BRANCH  26  28
ATOM     27  C   LIG    1       -2.351  -2.210   7.533  0.00  0.00    +0.136 C 
ATOM     28  C   LIG    1       -3.474  -2.222   6.536  0.00  0.00    +0.305 C 
ATOM     29  O   LIG    1       -4.530  -1.644   6.707  0.00  0.00    -0.251 OA
ENDBRANCH  26  28
ENDBRANCH   1  26
TORSDOF 3
