REMARK  Name = *****
REMARK                            x       y       z     vdW  Elec       q    Type
REMARK                         _______ _______ _______ _____ _____    ______ ____
ROOT
ATOM      1  C   LIG    1        5.942  -0.298   2.665  0.00  0.00    -0.017 C 
ATOM      2  C   LIG    1        7.163  -0.418   3.234  0.00  0.00    -0.014 C 
ATOM      3  C   LIG    1        7.233  -0.886   4.644  0.00  0.00    -0.014 A 
ATOM      4  C   LIG    1        8.020  -1.986   5.046  0.00  0.00    -0.039 A 
ATOM      5  C   LIG    1        8.053  -2.327   6.416  0.00  0.00    +0.004 A 
ATOM      6  C   LIG    1        7.328  -1.607   7.366  0.00  0.00    +0.000 A 
ATOM      7  C   LIG    1        6.560  -0.522   6.968  0.00  0.00    +0.001 A 
ATOM      8  C   LIG    1        8.896  -2.832   4.136  0.00  0.00    +0.040 C 
ATOM      9  C   LIG    1        8.743  -2.730   2.614  0.00  0.00    +0.040 C 
ATOM     10  C   LIG    1        9.146  -1.376   2.085  0.00  0.00    -0.039 A 
ATOM     11  C   LIG    1       10.284  -1.224   1.282  0.00  0.00    +0.004 A 
ATOM     12  C   LIG    1       10.652   0.038   0.812  0.00  0.00    +0.000 A 
ATOM     13  C   LIG    1        9.897   1.159   1.149  0.00  0.00    +0.001 A 
ATOM     14  C   LIG    1        8.766   1.019   1.953  0.00  0.00    +0.009 A 
ATOM     15  C   LIG    1        6.517  -0.164   5.621  0.00  0.00    +0.009 A 
ATOM     16  C   LIG    1        8.376  -0.246   2.407  0.00  0.00    -0.014 A 
ENDROOT
BRANCH   1  17
ATOM     17  C   LIG    1        5.615   0.056   1.233  0.00  0.00    +0.043 C 
BRANCH  17  18
ATOM     18  C   LIG    1        5.506  -1.169   0.310  0.00  0.00    +0.085 C 
BRANCH  18  20
ATOM     19  C   LIG    1        4.333  -3.215  -0.176  0.00  0.00    +0.101 C 
ATOM     20  N   LIG    1        4.420  -2.068   0.718  0.00  0.00    -0.319 NA
ATOM     21  H   LIG    1        4.609  -2.399   1.664  0.00  0.00    +0.122 HD
ENDBRANCH  18  20
ENDBRANCH  17  18
ENDBRANCH   1  17
TORSDOF 3
