REMARK  Name = *****
REMARK                            x       y       z     vdW  Elec       q    Type
REMARK                         _______ _______ _______ _____ _____    ______ ____
ROOT
ATOM      1  C   LIG    1        2.262  -0.228   4.853  0.00  0.00    +0.350 C 
ATOM      2  O   LIG    1        3.273  -0.859   5.128  0.00  0.00    -0.247 OA
ENDROOT
BRANCH   1   3
ATOM      3  O   LIG    1        2.027   0.320   3.620  0.00  0.00    -0.458 OA
BRANCH   3  12
ATOM      4  C   LIG    1        1.172   0.143  -0.148  0.00  0.00    +0.193 C 
ATOM      5  N   LIG    1        2.686   0.098  -0.304  0.00  0.00    +0.247 N 
ATOM      6  C   LIG    1        2.950  -0.011  -1.815  0.00  0.00    +0.193 C 
ATOM      7  C   LIG    1        3.463   1.300   0.298  0.00  0.00    +0.102 C 
ATOM      8  C   LIG    1        4.922   0.870   0.262  0.00  0.00    +0.201 C 
ATOM      9  C   LIG    1        4.908  -0.641   0.363  0.00  0.00    +0.201 C 
ATOM     10  O   LIG    1        5.477   0.183   1.377  0.00  0.00    -0.357 OA
ATOM     11  C   LIG    1        2.964   1.518   1.738  0.00  0.00    +0.102 C 
ATOM     12  C   LIG    1        3.075   0.260   2.637  0.00  0.00    +0.187 C 
ATOM     13  C   LIG    1        2.948  -1.083   1.896  0.00  0.00    +0.102 C 
ATOM     14  C   LIG    1        3.440  -1.038   0.446  0.00  0.00    +0.102 C 
ENDBRANCH   3  12
ENDBRANCH   1   3
BRANCH   1  15
ATOM     15  C   LIG    1        1.106   0.101   5.860  0.00  0.00    +0.226 C 
BRANCH  15  16
ATOM     16  C   LIG    1       -0.186  -0.582   5.411  0.00  0.00    +0.037 A 
ATOM     17  S   LIG    1       -0.920  -0.232   3.886  0.00  0.00    -0.098 S 
ATOM     18  C   LIG    1       -2.162  -1.375   4.119  0.00  0.00    +0.045 A 
ATOM     19  C   LIG    1       -2.071  -1.990   5.344  0.00  0.00    +0.008 A 
ATOM     20  C   LIG    1       -0.942  -1.534   6.086  0.00  0.00    +0.015 A 
ENDBRANCH  15  16
BRANCH  15  21
ATOM     21  C   LIG    1        0.977   1.606   6.127  0.00  0.00    +0.037 A 
ATOM     22  S   LIG    1        1.375   2.803   4.946  0.00  0.00    -0.098 S 
ATOM     23  C   LIG    1        1.042   4.097   5.990  0.00  0.00    +0.045 A 
ATOM     24  C   LIG    1        0.585   3.661   7.209  0.00  0.00    +0.008 A 
ATOM     25  C   LIG    1        0.545   2.236   7.289  0.00  0.00    +0.015 A 
ENDBRANCH  15  21
BRANCH  15  26
ATOM     26  O   LIG    1        1.433  -0.487   7.134  0.00  0.00    -0.369 OA
ATOM     27  H   LIG    1        2.341  -0.210   7.348  0.00  0.00    +0.212 HD
ENDBRANCH  15  26
ENDBRANCH   1  15
TORSDOF 6
