REMARK  Name = *****
REMARK                            x       y       z     vdW  Elec       q    Type
REMARK                         _______ _______ _______ _____ _____    ______ ____
ROOT
ATOM      1  N   LIG    1        4.949   1.038   0.763  0.00  0.00    -0.298 N 
ATOM      2  C   LIG    1        5.600   2.017  -0.053  0.00  0.00    +0.048 A 
ATOM      3  C   LIG    1        6.996   2.222  -0.011  0.00  0.00    +0.034 A 
ATOM      4  C   LIG    1        7.608   3.252  -0.755  0.00  0.00    +0.017 A 
ATOM      5  C   LIG    1        6.875   4.071  -1.599  0.00  0.00    +0.001 A 
ATOM      6  C   LIG    1        5.513   3.847  -1.720  0.00  0.00    +0.002 A 
ATOM      7  S   LIG    1        8.113   1.220   0.927  0.00  0.00    -0.086 S 
ATOM      8  C   LIG    1        7.032  -0.002   1.621  0.00  0.00    +0.034 A 
ATOM      9  C   LIG    1        7.690  -1.056   2.286  0.00  0.00    +0.017 A 
ATOM     10  C   LIG    1        6.982  -2.023   2.979  0.00  0.00    +0.001 A 
ATOM     11  C   LIG    1        5.601  -1.921   3.040  0.00  0.00    +0.002 A 
ATOM     12  C   LIG    1        4.943  -0.892   2.352  0.00  0.00    +0.024 A 
ATOM     13  C   LIG    1        4.903   2.846  -0.955  0.00  0.00    +0.024 A 
ATOM     14  C   LIG    1        5.621   0.074   1.576  0.00  0.00    +0.048 A 
ENDROOT
BRANCH   1  15
ATOM     15  C   LIG    1        3.452   1.061   0.784  0.00  0.00    +0.115 C 
BRANCH  15  17
ATOM     16  C   LIG    1        3.236  -1.205  -0.439  0.00  0.00    +0.010 C 
ATOM     17  C   LIG    1        2.791   0.263  -0.372  0.00  0.00    +0.018 C 
BRANCH  17  18
ATOM     18  C   LIG    1        1.243   0.282  -0.263  0.00  0.00    +0.088 C 
BRANCH  18  19
ATOM     19  N   LIG    1        0.579   1.599  -0.328  0.00  0.00    -0.308 NA
ATOM     20  C   LIG    1       -0.873   1.416  -0.182  0.00  0.00    +0.104 C 
ATOM     21  C   LIG    1        0.840   2.290  -1.593  0.00  0.00    +0.104 C 
ENDBRANCH  18  19
ENDBRANCH  17  18
ENDBRANCH  15  17
ENDBRANCH   1  15
TORSDOF 4
