REMARK  Name = *****
REMARK                            x       y       z     vdW  Elec       q    Type
REMARK                         _______ _______ _______ _____ _____    ______ ____
ROOT
ATOM      1  C   LIG    1       -3.314   1.013   0.613  0.00  0.00    +0.129 C 
ATOM      2  C   LIG    1       -4.810   0.695   0.292  0.00  0.00    +0.007 C 
ATOM      3  C   LIG    1       -5.070   0.563  -1.222  0.00  0.00    +0.014 C 
ATOM      4  C   LIG    1       -5.552   1.919   0.882  0.00  0.00    +0.005 C 
ATOM      5  C   LIG    1       -7.074   1.722   1.100  0.00  0.00    +0.019 C 
ATOM      6  C   LIG    1       -7.512   0.370   1.709  0.00  0.00    +0.004 C 
ATOM      7  C   LIG    1       -6.785  -0.788   1.009  0.00  0.00    +0.005 C 
ATOM      8  C   LIG    1       -7.418   0.372   3.260  0.00  0.00    +0.024 C 
ATOM      9  C   LIG    1       -8.172   1.567   3.864  0.00  0.00    -0.038 C 
ATOM     10  C   LIG    1       -8.790   1.474   5.057  0.00  0.00    +0.050 C 
ATOM     11  C   LIG    1       -8.741   0.244   5.881  0.00  0.00    +0.156 C 
ATOM     12  O   LIG    1       -9.291   0.233   6.980  0.00  0.00    -0.293 OA
ATOM     13  C   LIG    1       -7.942  -0.925   5.375  0.00  0.00    +0.079 C 
ATOM     14  C   LIG    1       -8.187   2.819   3.090  0.00  0.00    -0.051 C 
ATOM     15  C   LIG    1       -8.763   4.072   3.705  0.00  0.00    +0.044 C 
ATOM     16  C   LIG    1       -7.931  -0.956   3.856  0.00  0.00    +0.016 C 
ATOM     17  C   LIG    1       -7.671   2.880   1.849  0.00  0.00    -0.019 C 
ATOM     18  C   LIG    1       -4.722   2.347   2.111  0.00  0.00    +0.008 C 
ATOM     19  C   LIG    1       -5.270  -0.615   0.992  0.00  0.00    +0.010 C 
ATOM     20  C   LIG    1       -3.380   1.619   2.023  0.00  0.00    +0.043 C 
ENDROOT
BRANCH   1  22
ATOM     21  C   LIG    1       -1.773   1.486  -1.452  0.00  0.00    +0.089 C 
ATOM     22  C   LIG    1       -2.662   2.034  -0.361  0.00  0.00    +0.162 C 
ATOM     23  O   LIG    1       -2.841   3.250  -0.262  0.00  0.00    -0.295 OA
ENDBRANCH   1  22
BRANCH   1  24
ATOM     24  O   LIG    1       -2.537  -0.181   0.653  0.00  0.00    -0.381 OA
ATOM     25  H   LIG    1       -1.728   0.004   1.163  0.00  0.00    +0.211 HD
ENDBRANCH   1  24
TORSDOF 2
