REMARK  Name = *****
REMARK                            x       y       z     vdW  Elec       q    Type
REMARK                         _______ _______ _______ _____ _____    ______ ____
ROOT
ATOM      1  C   LIG    1        1.202  -1.196  -0.099  0.00  0.00    +0.025 C 
ATOM      2  C   LIG    1        2.693  -0.813  -0.059  0.00  0.00    +0.042 C 
ATOM      3  CA  LIG    1        3.365  -1.049  -1.437  0.00  0.00    +0.201 C 
ATOM      4  N   LIG    1        3.236   0.199  -2.209  0.00  0.00    -0.271 N 
ATOM      5  C   LIG    1        3.228   1.461  -1.449  0.00  0.00    +0.165 C 
ATOM      6  CA  LIG    1        2.067   1.948  -2.352  0.00  0.00    +0.190 C 
ATOM      7  C   LIG    1        2.047   0.476  -2.846  0.00  0.00    +0.240 C 
ATOM      8  O   LIG    1        1.285  -0.281  -3.402  0.00  0.00    -0.273 OA
ATOM      9  S   LIG    1        2.799   1.011   0.274  0.00  0.00    -0.127 S 
ATOM     10  C   LIG    1        3.336  -1.542   1.127  0.00  0.00    +0.025 C 
ENDROOT
BRANCH   6  11
ATOM     11  N   LIG    1        0.866   2.456  -1.643  0.00  0.00    -0.301 N 
ATOM     12  H   LIG    1        0.770   2.304  -0.641  0.00  0.00    +0.149 HD
ATOM     13  C   LIG    1       -0.214   2.967  -2.327  0.00  0.00    +0.218 C 
ATOM     14  O   LIG    1       -0.234   3.057  -3.551  0.00  0.00    -0.275 OA
BRANCH  13  15
ATOM     15  C   LIG    1       -1.320   3.527  -1.451  0.00  0.00    +0.131 C 
BRANCH  15  16
ATOM     16  C   LIG    1       -1.875   2.547  -0.446  0.00  0.00    -0.039 A 
ATOM     17  C   LIG    1       -2.534   1.388  -0.877  0.00  0.00    +0.004 A 
ATOM     18  C   LIG    1       -3.074   0.495   0.049  0.00  0.00    +0.000 A 
ATOM     19  C   LIG    1       -2.962   0.752   1.414  0.00  0.00    +0.000 A 
ATOM     20  C   LIG    1       -2.309   1.901   1.855  0.00  0.00    +0.000 A 
ATOM     21  C   LIG    1       -1.768   2.796   0.930  0.00  0.00    +0.004 A 
ENDBRANCH  15  16
ENDBRANCH  13  15
ENDBRANCH   6  11
BRANCH   3  22
ATOM     22  C   LIG    1        4.847  -1.457  -1.395  0.00  0.00    +0.327 C 
ATOM     23  O   LIG    1        5.286  -2.426  -0.793  0.00  0.00    -0.249 OA
BRANCH  22  24
ATOM     24  OXT LIG    1        5.653  -0.670  -2.151  0.00  0.00    -0.479 OA
ATOM     25  HXT LIG    1        5.117  -0.024  -2.655  0.00  0.00    +0.295 HD
ENDBRANCH  22  24
ENDBRANCH   3  22
TORSDOF 5
