REMARK  Name = *****
REMARK                            x       y       z     vdW  Elec       q    Type
REMARK                         _______ _______ _______ _____ _____    ______ ____
ROOT
ATOM      1  C   LIG    1        4.930  -1.171  -2.690  0.00  0.00    +0.267 C 
ENDROOT
BRANCH   1   2
ATOM      2  P   LIG    1        6.760  -1.171  -2.690  0.00  0.00    +0.371 P 
ATOM      3  O   LIG    1        6.843  -1.949  -1.371  0.00  0.00    -0.255 OA
BRANCH   2   4
ATOM      4  O   LIG    1        8.490  -1.171  -2.690  0.00  0.00    -0.322 OA
ATOM      5  H   LIG    1        8.742  -1.844  -2.025  0.00  0.00    +0.220 HD
ENDBRANCH   2   4
BRANCH   2   6
ATOM      6  O   LIG    1        6.815  -2.357  -3.828  0.00  0.00    -0.322 OA
ATOM      7  H   LIG    1        7.053  -3.206  -3.405  0.00  0.00    +0.220 HD
ENDBRANCH   2   6
ENDBRANCH   1   2
BRANCH   1   8
ATOM      8  P   LIG    1        4.331  -0.285  -4.198  0.00  0.00    +0.371 P 
ATOM      9  O   LIG    1        5.164   0.836  -4.705  0.00  0.00    -0.255 OA
BRANCH   8  10
ATOM     10  O   LIG    1        2.813   0.171  -3.929  0.00  0.00    -0.322 OA
ATOM     11  H   LIG    1        2.472   0.810  -4.579  0.00  0.00    +0.220 HD
ENDBRANCH   8  10
BRANCH   8  12
ATOM     12  O   LIG    1        4.086  -1.417  -5.319  0.00  0.00    -0.322 OA
ATOM     13  H   LIG    1        3.932  -1.054  -6.206  0.00  0.00    +0.220 HD
ENDBRANCH   8  12
ENDBRANCH   1   8
BRANCH   1  14
ATOM     14  O   LIG    1        4.430  -2.537  -2.763  0.00  0.00    -0.367 OA
ATOM     15  H   LIG    1        4.752  -2.861  -3.630  0.00  0.00    +0.212 HD
ENDBRANCH   1  14
BRANCH   1  16
ATOM     16  C   LIG    1        4.352  -0.496  -1.399  0.00  0.00    +0.061 C 
BRANCH  16  17
ATOM     17  C   LIG    1        4.803   0.964  -1.171  0.00  0.00    +0.019 C 
BRANCH  17  18
ATOM     18  C   LIG    1        4.279   1.625   0.120  0.00  0.00    +0.078 C 
BRANCH  18  19
ATOM     19  N   LIG    1        2.826   1.717   0.194  0.00  0.00    -0.330 NA
ATOM     20  H   LIG    1        2.411   0.786   0.186  0.00  0.00    +0.118 HD
ATOM     21  H   LIG    1        2.565   2.121   1.096  0.00  0.00    +0.118 HD
ENDBRANCH  18  19
ENDBRANCH  17  18
ENDBRANCH  16  17
ENDBRANCH   1  16
TORSDOF 11
