REMARK  Name = *****
REMARK                            x       y       z     vdW  Elec       q    Type
REMARK                         _______ _______ _______ _____ _____    ______ ____
ROOT
ATOM      1  N   LIG    1       13.835  -3.693   0.181  0.00  0.00    -0.313 NA
ATOM      2  H   LIG    1       13.342  -4.528   0.503  0.00  0.00    +0.122 HD
ENDROOT
BRANCH   1   3
ATOM      3  C   LIG    1       14.697  -3.199   1.277  0.00  0.00    +0.081 C 
BRANCH   3   4
ATOM      4  C   LIG    1       15.760  -4.224   1.698  0.00  0.00    +0.015 C 
BRANCH   4   5
ATOM      5  C   LIG    1       16.648  -3.695   2.842  0.00  0.00    +0.006 C 
BRANCH   5   6
ATOM      6  C   LIG    1       17.748  -4.671   3.291  0.00  0.00    +0.035 C 
BRANCH   6  10
ATOM      7  C   LIG    1       20.627  -5.524   0.203  0.00  0.00    +0.117 A 
ATOM      8  C   LIG    1       19.511  -6.343   0.353  0.00  0.00    +0.045 A 
ATOM      9  C   LIG    1       18.594  -6.073   1.368  0.00  0.00    +0.007 A 
ATOM     10  C   LIG    1       18.773  -4.981   2.227  0.00  0.00    -0.047 A 
ATOM     11  C   LIG    1       19.910  -4.172   2.065  0.00  0.00    +0.007 A 
ATOM     12  C   LIG    1       20.837  -4.449   1.056  0.00  0.00    +0.045 A 
BRANCH   7  13
ATOM     13  O   LIG    1       21.493  -5.817  -0.807  0.00  0.00    -0.507 OA
ATOM     14  H   LIG    1       22.192  -5.142  -0.817  0.00  0.00    +0.292 HD
ENDBRANCH   7  13
ENDBRANCH   6  10
ENDBRANCH   5   6
ENDBRANCH   4   5
ENDBRANCH   3   4
ENDBRANCH   1   3
BRANCH   1  15
ATOM     15  C   LIG    1       12.843  -2.642  -0.169  0.00  0.00    +0.117 C 
BRANCH  15  16
ATOM     16  C   LIG    1       11.869  -3.040  -1.316  0.00  0.00    +0.158 C 
BRANCH  16  17
ATOM     17  C   LIG    1       10.882  -1.923  -1.643  0.00  0.00    -0.014 A 
ATOM     18  C   LIG    1        9.954  -1.495  -0.675  0.00  0.00    +0.055 A 
ATOM     19  C   LIG    1        9.065  -0.464  -0.966  0.00  0.00    +0.159 A 
ATOM     20  C   LIG    1        9.060   0.147  -2.215  0.00  0.00    +0.158 A 
ATOM     21  C   LIG    1        9.952  -0.265  -3.193  0.00  0.00    +0.049 A 
ATOM     22  C   LIG    1       10.857  -1.296  -2.905  0.00  0.00    +0.010 A 
BRANCH  19  23
ATOM     23  O   LIG    1        8.184  -0.051  -0.006  0.00  0.00    -0.503 OA
ATOM     24  H   LIG    1        7.678   0.667  -0.436  0.00  0.00    +0.292 HD
ENDBRANCH  19  23
BRANCH  20  25
ATOM     25  O   LIG    1        8.153   1.148  -2.433  0.00  0.00    -0.503 OA
ATOM     26  H   LIG    1        8.247   1.441  -3.356  0.00  0.00    +0.292 HD
ENDBRANCH  20  25
ENDBRANCH  16  17
BRANCH  16  27
ATOM     27  O   LIG    1       12.634  -3.397  -2.473  0.00  0.00    -0.386 OA
ATOM     28  H   LIG    1       13.425  -3.852  -2.126  0.00  0.00    +0.210 HD
ENDBRANCH  16  27
ENDBRANCH  15  16
ENDBRANCH   1  15
TORSDOF 12
