REMARK  Name = *****
REMARK                            x       y       z     vdW  Elec       q    Type
REMARK                         _______ _______ _______ _____ _____    ______ ____
ROOT
ATOM      1  C   LIG    1        0.910  -0.037   0.378  0.00  0.00    +0.065 C 
ATOM      2  C   LIG    1        2.396   0.007   0.257  0.00  0.00    +0.038 C 
ATOM      3  N   LIG    1        3.155  -1.155   0.071  0.00  0.00    -0.284 N 
ATOM      4  C   LIG    1        2.791  -2.040  -1.049  0.00  0.00    +0.171 C 
ATOM      5  N   LIG    1        4.514  -0.716   0.040  0.00  0.00    -0.217 N 
ATOM      6  C   LIG    1        4.543   0.681   0.142  0.00  0.00    +0.272 C 
ATOM      7  O   LIG    1        5.477   1.465   0.185  0.00  0.00    -0.266 OA
ATOM      8  C   LIG    1        3.140   1.120   0.293  0.00  0.00    +0.094 C 
ENDROOT
BRANCH   5   9
ATOM      9  C   LIG    1        5.589  -1.589   0.349  0.00  0.00    +0.067 A 
ATOM     10  C   LIG    1        5.359  -2.888   0.829  0.00  0.00    +0.028 A 
ATOM     11  C   LIG    1        6.422  -3.745   1.133  0.00  0.00    +0.002 A 
ATOM     12  C   LIG    1        7.734  -3.315   0.964  0.00  0.00    +0.000 A 
ATOM     13  C   LIG    1        7.983  -2.028   0.498  0.00  0.00    +0.002 A 
ATOM     14  C   LIG    1        6.919  -1.172   0.196  0.00  0.00    +0.028 A 
ENDBRANCH   5   9
TORSDOF 1
