REMARK  Name = *****
REMARK                            x       y       z     vdW  Elec       q    Type
REMARK                         _______ _______ _______ _____ _____    ______ ____
ROOT
ATOM      1  N   LIG    1        3.020   0.850  -0.984  0.00  0.00    -0.272 N 
ATOM      2  H   LIG    1        2.748   0.828  -1.960  0.00  0.00    +0.258 HD
ENDROOT
BRANCH   1   5
ATOM      3  N   LIG    1        2.824  -0.751   0.709  0.00  0.00    -0.130 NA
ATOM      4  H   LIG    1        2.095  -1.345   1.100  0.00  0.00    +0.306 HD
ATOM      5  C   LIG    1        2.333  -0.034  -0.233  0.00  0.00    +0.377 C 
BRANCH   5   6
ATOM      6  N   LIG    1        1.033  -0.055  -0.588  0.00  0.00    -0.289 N 
ATOM      7  H   LIG    1        0.702   0.863  -0.869  0.00  0.00    +0.255 HD
ATOM      8  H   LIG    1        0.412  -0.466   0.096  0.00  0.00    +0.255 HD
ENDBRANCH   5   6
ENDBRANCH   1   5
BRANCH   1   9
ATOM      9  C   LIG    1        4.449   1.032  -0.817  0.00  0.00    +0.231 C 
BRANCH   9  10
ATOM     10  C   LIG    1        4.918   2.108  -1.772  0.00  0.00    -0.013 A 
ATOM     11  C   LIG    1        4.455   3.428  -1.633  0.00  0.00    +0.021 A 
ATOM     12  C   LIG    1        4.901   4.425  -2.501  0.00  0.00    +0.014 A 
ATOM     13  I   LIG    1        4.231   6.378  -2.263  0.00  0.00    -0.044 I 
ATOM     14  C   LIG    1        5.802   4.120  -3.520  0.00  0.00    +0.014 A 
ATOM     15  C   LIG    1        6.254   2.810  -3.675  0.00  0.00    +0.001 A 
ATOM     16  C   LIG    1        5.814   1.808  -2.807  0.00  0.00    +0.007 A 
ENDBRANCH   9  10
ENDBRANCH   1   9
TORSDOF 4
