REMARK  Name = *****
REMARK                            x       y       z     vdW  Elec       q    Type
REMARK                         _______ _______ _______ _____ _____    ______ ____
ROOT
ATOM      1  C   LIG    1        6.004  -3.407  -4.193  0.00  0.00    +0.064 A 
ATOM      2  C   LIG    1        5.141  -4.184  -4.998  0.00  0.00    +0.049 A 
ATOM      3  I   LIG    1        4.469  -3.265  -6.834  0.00  0.00    -0.041 I 
ATOM      4  C   LIG    1        4.312  -5.188  -4.452  0.00  0.00    +0.065 A 
ATOM      5  C   LIG    1        4.239  -5.307  -3.058  0.00  0.00    +0.040 A 
ATOM      6  I   LIG    1        3.566  -7.094  -2.149  0.00  0.00    -0.042 I 
ATOM      7  C   LIG    1        4.746  -4.251  -2.278  0.00  0.00    +0.065 A 
ATOM      8  C   LIG    1        5.681  -3.338  -2.819  0.00  0.00    +0.049 A 
ATOM      9  I   LIG    1        6.533  -1.862  -1.474  0.00  0.00    -0.041 I 
ENDROOT
BRANCH   4  10
ATOM     10  C   LIG    1        3.729  -6.186  -5.366  0.00  0.00    +0.246 C 
ATOM     11  N   LIG    1        2.433  -6.027  -5.779  0.00  0.00    -0.309 N 
ATOM     12  H   LIG    1        2.107  -5.069  -5.840  0.00  0.00    +0.149 HD
ATOM     13  O   LIG    1        4.483  -7.086  -5.787  0.00  0.00    -0.270 OA
BRANCH  11  14
ATOM     14  C   LIG    1        1.876  -6.913  -6.809  0.00  0.00    +0.138 C 
BRANCH  14  15
ATOM     15  C   LIG    1        2.000  -6.255  -8.192  0.00  0.00    +0.157 C 
BRANCH  15  16
ATOM     16  O   LIG    1        1.247  -5.031  -8.208  0.00  0.00    -0.388 OA
ATOM     17  H   LIG    1        0.312  -5.249  -8.045  0.00  0.00    +0.210 HD
ENDBRANCH  15  16
BRANCH  15  18
ATOM     18  C   LIG    1        1.531  -7.176  -9.320  0.00  0.00    +0.188 C 
BRANCH  18  19
ATOM     19  O   LIG    1        2.226  -8.412  -9.325  0.00  0.00    -0.392 OA
ATOM     20  H   LIG    1        3.149  -8.235  -9.582  0.00  0.00    +0.209 HD
ENDBRANCH  18  19
ENDBRANCH  15  18
ENDBRANCH  14  15
ENDBRANCH  11  14
ENDBRANCH   4  10
BRANCH   1  23
ATOM     21  C   LIG    1        9.059  -1.186  -4.601  0.00  0.00    +0.110 C 
ATOM     22  C   LIG    1        7.592  -1.580  -4.657  0.00  0.00    +0.217 C 
ATOM     23  N   LIG    1        7.283  -2.939  -4.716  0.00  0.00    -0.267 N 
ATOM     24  O   LIG    1        6.726  -0.709  -4.562  0.00  0.00    -0.276 OA
BRANCH  23  25
ATOM     25  C   LIG    1        8.335  -3.962  -4.942  0.00  0.00    +0.147 C 
BRANCH  25  26
ATOM     26  C   LIG    1        8.956  -4.585  -3.668  0.00  0.00    +0.158 C 
BRANCH  26  27
ATOM     27  O   LIG    1        9.961  -5.537  -4.056  0.00  0.00    -0.388 OA
ATOM     28  H   LIG    1       10.771  -5.046  -4.293  0.00  0.00    +0.210 HD
ENDBRANCH  26  27
BRANCH  26  29
ATOM     29  C   LIG    1        9.635  -3.616  -2.690  0.00  0.00    +0.188 C 
BRANCH  29  30
ATOM     30  O   LIG    1       10.110  -4.290  -1.529  0.00  0.00    -0.392 OA
ATOM     31  H   LIG    1       10.104  -5.245  -1.720  0.00  0.00    +0.209 HD
ENDBRANCH  29  30
ENDBRANCH  26  29
ENDBRANCH  25  26
ENDBRANCH  23  25
ENDBRANCH   1  23
BRANCH   7  32
ATOM     32  C   LIG    1        4.262  -4.062  -0.887  0.00  0.00    +0.246 C 
ATOM     33  N   LIG    1        3.356  -3.039  -0.656  0.00  0.00    -0.309 N 
ATOM     34  H   LIG    1        3.196  -2.901   0.337  0.00  0.00    +0.149 HD
ATOM     35  O   LIG    1        4.669  -4.747   0.013  0.00  0.00    -0.270 OA
BRANCH  33  36
ATOM     36  C   LIG    1        2.799  -2.050  -1.560  0.00  0.00    +0.138 C 
BRANCH  36  37
ATOM     37  C   LIG    1        1.496  -2.463  -2.247  0.00  0.00    +0.157 C 
BRANCH  37  38
ATOM     38  O   LIG    1        1.114  -1.374  -3.097  0.00  0.00    -0.388 OA
ATOM     39  H   LIG    1        0.592  -1.742  -3.832  0.00  0.00    +0.210 HD
ENDBRANCH  37  38
BRANCH  37  40
ATOM     40  C   LIG    1        0.394  -2.761  -1.225  0.00  0.00    +0.188 C 
BRANCH  40  41
ATOM     41  O   LIG    1       -0.816  -3.122  -1.891  0.00  0.00    -0.392 OA
ATOM     42  H   LIG    1       -0.867  -4.093  -1.908  0.00  0.00    +0.209 HD
ENDBRANCH  40  41
ENDBRANCH  37  40
ENDBRANCH  36  37
ENDBRANCH  33  36
ENDBRANCH   7  32
TORSDOF 18
