REMARK  Name = *****
REMARK                            x       y       z     vdW  Elec       q    Type
REMARK                         _______ _______ _______ _____ _____    ______ ____
ROOT
ATOM      1  C   LIG    1       11.258  -1.905  -7.283  0.00  0.00    +0.106 C 
ENDROOT
BRANCH   1   5
ATOM      2  C   LIG    1        7.960  -4.362  -8.744  0.00  0.00    +0.008 A 
ATOM      3  C   LIG    1        9.211  -4.856  -8.646  0.00  0.00    +0.015 A 
ATOM      4  C   LIG    1       10.286  -4.026  -8.322  0.00  0.00    +0.006 A 
ATOM      5  C   LIG    1       10.096  -2.704  -7.861  0.00  0.00    -0.030 A 
ATOM      6  C   LIG    1        8.816  -2.207  -7.963  0.00  0.00    +0.006 A 
ATOM      7  C   LIG    1        7.751  -3.005  -8.416  0.00  0.00    +0.015 A 
BRANCH   2   8
ATOM      8  S   LIG    1        6.664  -5.394  -9.384  0.00  0.00    -0.125 S 
BRANCH   8   9
ATOM      9  C   LIG    1        6.568  -4.728 -11.088  0.00  0.00    +0.074 C 
BRANCH   9  10
ATOM     10  C   LIG    1        6.036  -3.297 -11.190  0.00  0.00    +0.011 C 
BRANCH  10  12
ATOM     11  C   LIG    1        4.103  -1.720 -10.841  0.00  0.00    +0.004 C 
ATOM     12  C   LIG    1        4.676  -3.089 -10.517  0.00  0.00    -0.003 C 
ENDBRANCH  10  12
ENDBRANCH   9  10
ENDBRANCH   8   9
ENDBRANCH   2   8
ENDBRANCH   1   5
BRANCH   1  13
ATOM     13  C   LIG    1       12.441  -1.675  -8.214  0.00  0.00    -0.030 A 
ATOM     14  C   LIG    1       13.242  -2.731  -8.680  0.00  0.00    +0.005 A 
ATOM     15  C   LIG    1       14.362  -2.515  -9.474  0.00  0.00    +0.000 A 
ATOM     16  C   LIG    1       14.722  -1.222  -9.810  0.00  0.00    +0.000 A 
ATOM     17  C   LIG    1       13.928  -0.153  -9.400  0.00  0.00    +0.000 A 
ATOM     18  C   LIG    1       12.785  -0.378  -8.624  0.00  0.00    +0.005 A 
ENDBRANCH   1  13
BRANCH   1  19
ATOM     19  S   LIG    1       11.786  -2.341  -5.531  0.00  0.00    -0.147 S 
BRANCH  19  20
ATOM     20  C   LIG    1       12.450  -4.071  -5.589  0.00  0.00    +0.085 C 
BRANCH  20  21
ATOM     21  C   LIG    1       11.340  -5.132  -5.685  0.00  0.00    +0.094 C 
BRANCH  21  22
ATOM     22  N   LIG    1       11.676  -6.519  -6.075  0.00  0.00    -0.308 NA
ATOM     23  C   LIG    1       12.666  -6.689  -7.136  0.00  0.00    +0.104 C 
ATOM     24  C   LIG    1       10.449  -7.265  -6.402  0.00  0.00    +0.104 C 
ENDBRANCH  21  22
ENDBRANCH  20  21
ENDBRANCH  19  20
ENDBRANCH   1  19
TORSDOF 10
