REMARK  Name = *****
REMARK                            x       y       z     vdW  Elec       q    Type
REMARK                         _______ _______ _______ _____ _____    ______ ____
ROOT
ATOM      1  C   LIG    1        9.921   1.427   7.866  0.00  0.00    +0.027 C 
ATOM      2  C   LIG    1       10.872   0.231   8.011  0.00  0.00    +0.121 C 
ATOM      3  C   LIG    1       12.058   0.845   8.742  0.00  0.00    +0.063 C 
ATOM      4  C   LIG    1       12.255   2.175   8.015  0.00  0.00    +0.120 C 
ATOM      5  C   LIG    1       10.851   2.640   7.574  0.00  0.00    +0.024 C 
ENDROOT
BRANCH   2   6
ATOM      6  O   LIG    1       11.308  -0.248   6.740  0.00  0.00    -0.391 OA
ATOM      7  H   LIG    1       11.822  -1.060   6.907  0.00  0.00    +0.210 HD
ENDBRANCH   2   6
BRANCH   4   8
ATOM      8  O   LIG    1       13.052   1.950   6.849  0.00  0.00    -0.391 OA
ATOM      9  H   LIG    1       12.590   1.258   6.331  0.00  0.00    +0.210 HD
ENDBRANCH   4   8
BRANCH   1  10
ATOM     10  C   LIG    1        8.831   1.270   6.799  0.00  0.00    +0.033 C 
BRANCH  10  12
ATOM     11  C   LIG    1        6.784   0.122   7.780  0.00  0.00    -0.031 C 
ATOM     12  C   LIG    1        7.920   0.103   7.064  0.00  0.00    -0.031 C 
BRANCH  11  13
ATOM     13  C   LIG    1        6.198   1.306   8.499  0.00  0.00    +0.027 C 
BRANCH  13  14
ATOM     14  C   LIG    1        6.058   1.028   9.995  0.00  0.00    +0.015 C 
BRANCH  14  15
ATOM     15  C   LIG    1        5.460   2.225  10.733  0.00  0.00    +0.121 C 
BRANCH  15  16
ATOM     16  C   LIG    1        5.308   1.930  12.213  0.00  0.00    +0.307 C 
ATOM     17  O   LIG    1        6.017   1.185  12.854  0.00  0.00    -0.251 OA
BRANCH  16  18
ATOM     18  O   LIG    1        4.277   2.679  12.713  0.00  0.00    -0.462 OA
BRANCH  18  20
ATOM     19  C   LIG    1        5.013   3.405  14.904  0.00  0.00    +0.051 C 
ATOM     20  C   LIG    1        4.030   2.535  14.127  0.00  0.00    +0.170 C 
ATOM     21  C   LIG    1        2.596   2.976  14.397  0.00  0.00    +0.051 C 
ENDBRANCH  18  20
ENDBRANCH  16  18
ENDBRANCH  15  16
ENDBRANCH  14  15
ENDBRANCH  13  14
ENDBRANCH  11  13
ENDBRANCH  10  12
ENDBRANCH   1  10
BRANCH   5  22
ATOM     22  C   LIG    1       10.355   3.905   8.305  0.00  0.00    +0.009 C 
BRANCH  22  23
ATOM     23  C   LIG    1       11.201   5.173   8.087  0.00  0.00    +0.032 C 
BRANCH  23  24
ATOM     24  C   LIG    1       11.321   5.587   6.617  0.00  0.00    +0.115 C 
BRANCH  24  25
ATOM     25  O   LIG    1       10.021   5.893   6.114  0.00  0.00    -0.392 OA
ATOM     26  H   LIG    1        9.650   6.608   6.658  0.00  0.00    +0.210 HD
ENDBRANCH  24  25
BRANCH  24  27
ATOM     27  C   LIG    1       12.253   6.789   6.426  0.00  0.00    +0.036 C 
BRANCH  27  28
ATOM     28  C   LIG    1       12.337   7.181   4.946  0.00  0.00    +0.037 C 
BRANCH  28  29
ATOM     29  C   LIG    1       13.282   8.334   4.729  0.00  0.00    -0.047 A 
ATOM     30  C   LIG    1       14.644   8.102   4.496  0.00  0.00    +0.003 A 
ATOM     31  C   LIG    1       15.518   9.174   4.312  0.00  0.00    +0.000 A 
ATOM     32  C   LIG    1       15.038  10.482   4.363  0.00  0.00    +0.000 A 
ATOM     33  C   LIG    1       13.686  10.721   4.599  0.00  0.00    +0.000 A 
ATOM     34  C   LIG    1       12.810   9.651   4.783  0.00  0.00    +0.003 A 
ENDBRANCH  28  29
ENDBRANCH  27  28
ENDBRANCH  24  27
ENDBRANCH  23  24
ENDBRANCH  22  23
ENDBRANCH   5  22
TORSDOF 17
