REMARK  Name = *****
REMARK                            x       y       z     vdW  Elec       q    Type
REMARK                         _______ _______ _______ _____ _____    ______ ____
ROOT
ATOM      1  C   LIG    1       -5.577  -5.347  -0.082  0.00  0.00    +0.132 C 
ATOM      2  C   LIG    1       -5.155  -5.100  -1.575  0.00  0.00    +0.090 C 
ATOM      3  C   LIG    1       -4.034  -4.058  -1.682  0.00  0.00    +0.192 C 
ATOM      4  C   LIG    1       -3.447  -3.962  -3.072  0.00  0.00    +0.141 C 
ATOM      5  C   LIG    1       -3.560  -4.944  -3.989  0.00  0.00    +0.049 C 
ATOM      6  C   LIG    1       -4.286  -6.250  -3.745  0.00  0.00    +0.091 C 
ATOM      7  C   LIG    1       -3.436  -7.450  -4.289  0.00  0.00    +0.098 C 
ATOM      8  C   LIG    1       -4.094  -8.810  -3.997  0.00  0.00    +0.047 C 
ATOM      9  C   LIG    1       -3.138  -7.228  -5.774  0.00  0.00    -0.001 A 
ATOM     10  C   LIG    1       -2.884  -5.924  -6.250  0.00  0.00    +0.069 A 
ATOM     11  C   LIG    1       -2.559  -5.712  -7.602  0.00  0.00    +0.128 A 
ATOM     12  C   LIG    1       -2.501  -6.775  -8.495  0.00  0.00    +0.046 A 
ATOM     13  C   LIG    1       -2.752  -8.064  -8.043  0.00  0.00    +0.004 A 
ATOM     14  C   LIG    1       -3.059  -8.290  -6.698  0.00  0.00    +0.007 A 
ATOM     15  C   LIG    1       -2.948  -4.761  -5.335  0.00  0.00    +0.197 C 
ATOM     16  O   LIG    1       -2.528  -3.663  -5.702  0.00  0.00    -0.287 OA
ATOM     17  C   LIG    1       -2.943  -4.443  -0.662  0.00  0.00    +0.211 C 
ATOM     18  O   LIG    1       -1.847  -4.905  -0.970  0.00  0.00    -0.288 OA
ATOM     19  C   LIG    1       -3.364  -4.375   0.759  0.00  0.00    +0.121 C 
ATOM     20  C   LIG    1       -4.734  -6.422  -2.265  0.00  0.00    +0.134 C 
ATOM     21  C   LIG    1       -4.614  -4.818   0.992  0.00  0.00    +0.127 C 
ENDROOT
BRANCH  19  22
ATOM     22  C   LIG    1       -2.442  -3.796   1.768  0.00  0.00    +0.248 C 
ATOM     23  O   LIG    1       -1.492  -3.086   1.462  0.00  0.00    -0.270 OA
ATOM     24  N   LIG    1       -2.715  -4.064   3.074  0.00  0.00    -0.325 N 
ATOM     25  H   LIG    1       -3.596  -4.499   3.331  0.00  0.00    +0.145 HD
ATOM     26  H   LIG    1       -2.160  -3.605   3.781  0.00  0.00    +0.145 HD
ENDBRANCH  19  22
BRANCH   1  28
ATOM     27  C   LIG    1       -7.988  -5.781  -0.266  0.00  0.00    +0.105 C 
ATOM     28  N   LIG    1       -6.956  -4.920   0.316  0.00  0.00    -0.298 NA
ATOM     29  C   LIG    1       -7.252  -3.511   0.034  0.00  0.00    +0.105 C 
ENDBRANCH   1  28
BRANCH   3  30
ATOM     30  O   LIG    1       -4.580  -2.770  -1.379  0.00  0.00    -0.373 OA
ATOM     31  H   LIG    1       -3.933  -2.131  -1.749  0.00  0.00    +0.211 HD
ENDBRANCH   3  30
BRANCH   4  32
ATOM     32  O   LIG    1       -2.837  -2.739  -3.327  0.00  0.00    -0.507 OA
ATOM     33  H   LIG    1       -2.476  -2.753  -4.243  0.00  0.00    +0.292 HD
ENDBRANCH   4  32
BRANCH   7  34
ATOM     34  O   LIG    1       -2.183  -7.464  -3.597  0.00  0.00    -0.384 OA
ATOM     35  H   LIG    1       -1.525  -7.927  -4.146  0.00  0.00    +0.211 HD
ENDBRANCH   7  34
BRANCH  11  36
ATOM     36  O   LIG    1       -2.284  -4.478  -8.130  0.00  0.00    -0.506 OA
ATOM     37  H   LIG    1       -2.249  -3.829  -7.393  0.00  0.00    +0.292 HD
ENDBRANCH  11  36
BRANCH  20  38
ATOM     38  O   LIG    1       -5.870  -7.304  -2.230  0.00  0.00    -0.391 OA
ATOM     39  H   LIG    1       -6.592  -6.912  -2.752  0.00  0.00    +0.210 HD
ENDBRANCH  20  38
BRANCH  21  40
ATOM     40  O   LIG    1       -5.176  -4.788   2.268  0.00  0.00    -0.509 OA
ATOM     41  H   LIG    1       -6.142  -4.913   2.106  0.00  0.00    +0.292 HD
ENDBRANCH  21  40
TORSDOF 8
