REMARK  Name = *****
REMARK                            x       y       z     vdW  Elec       q    Type
REMARK                         _______ _______ _______ _____ _____    ______ ____
ROOT
ATOM      1  C   LIG    1        3.526  -0.823   0.716  0.00  0.00    +0.053 C 
ATOM      2  C   LIG    1        2.645   0.216   0.022  0.00  0.00    +0.187 C 
ENDROOT
BRANCH   2   3
ATOM      3  C   LIG    1        1.135  -0.028   0.272  0.00  0.00    +0.125 C 
BRANCH   3   4
ATOM      4  N   LIG    1        0.602  -1.214  -0.416  0.00  0.00    -0.310 NA
ATOM      5  H   LIG    1        1.118  -2.043  -0.123  0.00  0.00    +0.122 HD
BRANCH   4   6
ATOM      6  C   LIG    1       -0.839  -1.427  -0.197  0.00  0.00    +0.054 C 
ATOM      7  C   LIG    1       -1.733  -0.266  -0.675  0.00  0.00    +0.019 C 
ATOM      8  C   LIG    1       -1.681  -0.071  -2.191  0.00  0.00    +0.002 C 
ATOM      9  C   LIG    1       -2.061  -1.352  -2.927  0.00  0.00    +0.000 C 
ATOM     10  C   LIG    1       -1.229  -2.546  -2.465  0.00  0.00    +0.002 C 
ATOM     11  C   LIG    1       -1.266  -2.708  -0.942  0.00  0.00    +0.019 C 
ENDBRANCH   4   6
ENDBRANCH   3   4
ENDBRANCH   2   3
BRANCH   2  12
ATOM     12  O   LIG    1        2.956   0.161  -1.385  0.00  0.00    -0.457 OA
BRANCH  12  13
ATOM     13  C   LIG    1        2.382   1.095  -2.182  0.00  0.00    +0.340 C 
ATOM     14  O   LIG    1        1.756   2.079  -1.822  0.00  0.00    -0.245 OA
BRANCH  13  15
ATOM     15  C   LIG    1        2.678   0.763  -3.599  0.00  0.00    +0.059 A 
ATOM     16  C   LIG    1        2.571   1.774  -4.558  0.00  0.00    +0.015 A 
ATOM     17  C   LIG    1        2.832   1.492  -5.905  0.00  0.00    +0.001 A 
ATOM     18  C   LIG    1        3.190   0.201  -6.290  0.00  0.00    +0.000 A 
ATOM     19  C   LIG    1        3.293  -0.812  -5.337  0.00  0.00    +0.001 A 
ATOM     20  C   LIG    1        3.037  -0.534  -3.993  0.00  0.00    +0.015 A 
ENDBRANCH  13  15
ENDBRANCH  12  13
ENDBRANCH   2  12
TORSDOF 6
