REMARK  Name = *****
REMARK                            x       y       z     vdW  Elec       q    Type
REMARK                         _______ _______ _______ _____ _____    ______ ____
ROOT
ATOM      1  C   LIG    1        2.113  -2.737  -0.365  0.00  0.00    +0.121 C 
ATOM      2  C   LIG    1        3.464  -2.390  -0.515  0.00  0.00    +0.056 C 
ATOM      3  C   LIG    1        4.460  -3.376  -0.337  0.00  0.00    +0.006 C 
ATOM      4  C   LIG    1        4.058  -4.692  -0.113  0.00  0.00    +0.047 C 
ATOM      5  N   LIG    1        5.191  -5.464  -0.051  0.00  0.00    -0.360 NA
ATOM      6  H   LIG    1        5.189  -6.468   0.067  0.00  0.00    +0.165 HD
ATOM      7  C   LIG    1        6.303  -4.672  -0.133  0.00  0.00    +0.087 C 
ATOM      8  C   LIG    1        2.721  -5.066   0.010  0.00  0.00    +0.030 C 
ATOM      9  C   LIG    1        5.893  -3.359  -0.281  0.00  0.00    -0.021 C 
ATOM     10  C   LIG    1        1.762  -4.060  -0.093  0.00  0.00    +0.048 C 
ENDROOT
BRANCH   1  12
ATOM     11  C   LIG    1       -0.152  -2.072  -0.267  0.00  0.00    +0.277 C 
ATOM     12  O   LIG    1        1.211  -1.708  -0.479  0.00  0.00    -0.495 OA
ENDBRANCH   1  12
BRANCH   9  13
ATOM     13  C   LIG    1        6.778  -2.149  -0.352  0.00  0.00    +0.056 C 
BRANCH  13  14
ATOM     14  C   LIG    1        7.082  -1.525   1.019  0.00  0.00    +0.109 C 
BRANCH  14  15
ATOM     15  N   LIG    1        5.915  -1.061   1.750  0.00  0.00    -0.315 N 
ATOM     16  H   LIG    1        5.383  -1.750   2.267  0.00  0.00    +0.149 HD
ATOM     17  C   LIG    1        5.393   0.202   1.585  0.00  0.00    +0.210 C 
ATOM     18  O   LIG    1        5.861   1.038   0.832  0.00  0.00    -0.276 OA
ATOM     19  C   LIG    1        4.212   0.494   2.481  0.00  0.00    +0.109 C 
ENDBRANCH  14  15
ENDBRANCH  13  14
ENDBRANCH   9  13
TORSDOF 4
