REMARK  Name = *****
REMARK                            x       y       z     vdW  Elec       q    Type
REMARK                         _______ _______ _______ _____ _____    ______ ____
ROOT
ATOM      1  C   LIG    1        4.383  -2.579  -1.250  0.00  0.00    -0.032 A 
ATOM      2  C   LIG    1        4.603  -3.594  -0.308  0.00  0.00    +0.006 A 
ATOM      3  C   LIG    1        4.846  -4.906  -0.721  0.00  0.00    +0.013 A 
ATOM      4  C   LIG    1        4.897  -5.223  -2.085  0.00  0.00    +0.037 A 
ATOM      5  C   LIG    1        4.654  -4.225  -3.032  0.00  0.00    +0.013 A 
ATOM      6  C   LIG    1        4.405  -2.909  -2.615  0.00  0.00    +0.006 A 
ENDROOT
BRANCH   4   7
ATOM      7  C   LIG    1        5.207  -6.613  -2.534  0.00  0.00    +0.244 C 
ATOM      8  N   LIG    1        6.018  -7.326  -1.675  0.00  0.00    -0.309 N 
ATOM      9  H   LIG    1        6.515  -6.814  -0.960  0.00  0.00    +0.149 HD
ATOM     10  O   LIG    1        4.776  -7.045  -3.593  0.00  0.00    -0.270 OA
BRANCH   8  11
ATOM     11  C   LIG    1        6.453  -8.690  -1.924  0.00  0.00    +0.067 C 
ATOM     12  C   LIG    1        6.612  -9.405  -0.585  0.00  0.00    +0.027 C 
ATOM     13  C   LIG    1        7.766  -8.700  -2.700  0.00  0.00    +0.027 C 
ENDBRANCH   8  11
ENDBRANCH   4   7
BRANCH   1  14
ATOM     14  C   LIG    1        4.122  -1.158  -0.789  0.00  0.00    +0.133 C 
BRANCH  14  15
ATOM     15  N   LIG    1        5.367  -0.372  -0.681  0.00  0.00    -0.253 NA
ATOM     16  H   LIG    1        5.977  -0.853  -0.013  0.00  0.00    +0.141 HD
BRANCH  15  18
ATOM     17  C   LIG    1        6.271   1.758  -0.072  0.00  0.00    +0.120 C 
ATOM     18  N   LIG    1        5.040   0.972  -0.199  0.00  0.00    -0.259 NA
ATOM     19  H   LIG    1        4.436   1.454  -0.872  0.00  0.00    +0.140 HD
ENDBRANCH  15  18
ENDBRANCH  14  15
ENDBRANCH   1  14
TORSDOF 5
