REMARK  Name = *****
REMARK                            x       y       z     vdW  Elec       q    Type
REMARK                         _______ _______ _______ _____ _____    ______ ____
ROOT
ATOM      1  O   LIG    1        1.651   0.022  -0.620  0.00  0.00    -0.252 OA
ATOM      2  C   LIG    1        2.638   0.316   0.032  0.00  0.00    +0.306 C 
ATOM      3  N   LIG    1        3.412   1.476  -0.096  0.00  0.00    -0.271 N 
ATOM      4  C   LIG    1        4.275   1.616   1.075  0.00  0.00    +0.155 C 
ATOM      5  C   LIG    1        4.426   0.168   1.548  0.00  0.00    +0.152 C 
ATOM      6  C   LIG    1        5.661  -0.428   0.864  0.00  0.00    +0.302 C 
ATOM      7  S   LIG    1        6.792   0.894   0.302  0.00  0.00    -0.004 S 
ATOM      8  C   LIG    1        7.826   1.003   1.798  0.00  0.00    +0.278 C 
ATOM      9  C   LIG    1        7.028   1.708   2.873  0.00  0.00    +0.059 C 
ATOM     10  C   LIG    1        6.269   2.811   2.159  0.00  0.00    +0.064 C 
ATOM     11  C   LIG    1        5.658   2.231   0.877  0.00  0.00    +0.230 C 
ATOM     12  N   LIG    1        3.191  -0.433   1.068  0.00  0.00    -0.272 N 
ENDROOT
BRANCH   3  13
ATOM     13  C   LIG    1        2.979   2.591  -0.921  0.00  0.00    +0.145 C 
BRANCH  13  14
ATOM     14  C   LIG    1        3.947   2.966  -2.019  0.00  0.00    -0.030 A 
ATOM     15  C   LIG    1        4.753   2.011  -2.657  0.00  0.00    +0.005 A 
ATOM     16  C   LIG    1        5.630   2.383  -3.677  0.00  0.00    +0.000 A 
ATOM     17  C   LIG    1        5.692   3.709  -4.096  0.00  0.00    +0.000 A 
ATOM     18  C   LIG    1        4.871   4.664  -3.498  0.00  0.00    +0.000 A 
ATOM     19  C   LIG    1        4.002   4.294  -2.470  0.00  0.00    +0.005 A 
ENDBRANCH  13  14
ENDBRANCH   3  13
BRANCH  12  20
ATOM     20  C   LIG    1        2.720  -1.746   1.460  0.00  0.00    +0.145 C 
BRANCH  20  21
ATOM     21  C   LIG    1        2.229  -1.779   2.885  0.00  0.00    -0.030 A 
ATOM     22  C   LIG    1        1.173  -0.947   3.289  0.00  0.00    +0.005 A 
ATOM     23  C   LIG    1        0.690  -0.997   4.598  0.00  0.00    +0.000 A 
ATOM     24  C   LIG    1        1.250  -1.886   5.514  0.00  0.00    +0.000 A 
ATOM     25  C   LIG    1        2.296  -2.721   5.122  0.00  0.00    +0.000 A 
ATOM     26  C   LIG    1        2.783  -2.670   3.814  0.00  0.00    +0.005 A 
ENDBRANCH  20  21
ENDBRANCH  12  20
TORSDOF 4
