REMARK  Name = *****
REMARK                            x       y       z     vdW  Elec       q    Type
REMARK                         _______ _______ _______ _____ _____    ______ ____
ROOT
ATOM      1  N   LIG    1        5.953  -2.739  -7.145  0.00  0.00    -0.295 N 
ATOM      2  H   LIG    1        5.180  -3.068  -6.589  0.00  0.00    +0.151 HD
ATOM      3  C   LIG    1        6.566  -3.616  -7.998  0.00  0.00    +0.303 C 
ATOM      4  N   LIG    1        6.194  -4.972  -7.885  0.00  0.00    -0.278 N 
ATOM      5  O   LIG    1        7.430  -3.232  -8.809  0.00  0.00    -0.253 OA
ENDROOT
BRANCH   4   6
ATOM      6  C   LIG    1        6.774  -5.939  -8.871  0.00  0.00    +0.080 C 
ATOM      7  C   LIG    1        8.218  -6.384  -8.569  0.00  0.00    +0.038 C 
ATOM      8  C   LIG    1        8.371  -7.747  -7.888  0.00  0.00    +0.086 C 
ATOM      9  N   LIG    1        7.526  -8.820  -8.417  0.00  0.00    -0.305 NA
ATOM     10  C   LIG    1        8.016  -9.387  -9.667  0.00  0.00    +0.105 C 
ATOM     11  C   LIG    1        6.126  -8.418  -8.482  0.00  0.00    +0.086 C 
ATOM     12  C   LIG    1        5.870  -7.125  -9.266  0.00  0.00    +0.038 C 
ENDBRANCH   4   6
BRANCH   1  13
ATOM     13  C   LIG    1        6.205  -1.304  -7.073  0.00  0.00    +0.141 C 
BRANCH  13  17
ATOM     14  C   LIG    1        9.127  -0.136  -4.069  0.00  0.00    +0.120 A 
ATOM     15  C   LIG    1        7.773  -0.229  -3.728  0.00  0.00    +0.046 A 
ATOM     16  C   LIG    1        6.827  -0.641  -4.689  0.00  0.00    +0.009 A 
ATOM     17  C   LIG    1        7.210  -0.909  -6.013  0.00  0.00    -0.030 A 
ATOM     18  C   LIG    1        8.554  -0.751  -6.354  0.00  0.00    +0.009 A 
ATOM     19  C   LIG    1        9.493  -0.366  -5.396  0.00  0.00    +0.046 A 
BRANCH  14  20
ATOM     20  O   LIG    1       10.040   0.202  -3.092  0.00  0.00    -0.492 OA
BRANCH  20  21
ATOM     21  C   LIG    1       11.340  -0.399  -3.277  0.00  0.00    +0.232 C 
BRANCH  21  23
ATOM     22  C   LIG    1       13.715  -0.631  -2.445  0.00  0.00    +0.010 C 
ATOM     23  C   LIG    1       12.348   0.019  -2.192  0.00  0.00    +0.020 C 
ATOM     24  C   LIG    1       12.533   1.534  -2.102  0.00  0.00    +0.010 C 
ENDBRANCH  21  23
ENDBRANCH  20  21
ENDBRANCH  14  20
ENDBRANCH  13  17
ENDBRANCH   1  13
BRANCH   4  25
ATOM     25  C   LIG    1        5.402  -5.502  -6.764  0.00  0.00    +0.144 C 
BRANCH  25  26
ATOM     26  C   LIG    1        6.101  -5.531  -5.422  0.00  0.00    -0.030 A 
ATOM     27  C   LIG    1        7.385  -4.996  -5.232  0.00  0.00    +0.008 A 
ATOM     28  C   LIG    1        8.004  -5.025  -3.987  0.00  0.00    +0.039 A 
ATOM     29  C   LIG    1        7.341  -5.592  -2.912  0.00  0.00    +0.123 A 
ATOM     30  F   LIG    1        7.939  -5.625  -1.715  0.00  0.00    -0.205 F 
ATOM     31  C   LIG    1        6.069  -6.131  -3.063  0.00  0.00    +0.039 A 
ATOM     32  C   LIG    1        5.449  -6.105  -4.316  0.00  0.00    +0.008 A 
ENDBRANCH  25  26
ENDBRANCH   4  25
TORSDOF 8
