REMARK  Name = *****
REMARK                            x       y       z     vdW  Elec       q    Type
REMARK                         _______ _______ _______ _____ _____    ______ ____
ROOT
ATOM      1  C   LIG    1        5.098   2.586  -0.115  0.00  0.00    +0.087 C 
ATOM      2  C   LIG    1        5.499   3.123  -1.446  0.00  0.00    +0.345 C 
ATOM      3  O   LIG    1        5.233   2.555  -2.491  0.00  0.00    -0.245 OA
ATOM      4  O   LIG    1        6.214   4.308  -1.481  0.00  0.00    -0.422 OA
ATOM      5  C   LIG    1        6.585   4.985  -0.316  0.00  0.00    +0.143 A 
ATOM      6  C   LIG    1        6.222   4.506   0.938  0.00  0.00    +0.059 A 
ATOM      7  C   LIG    1        6.704   5.202   2.056  0.00  0.00    +0.015 A 
ATOM      8  C   LIG    1        7.467   6.367   1.900  0.00  0.00    +0.001 A 
ATOM      9  C   LIG    1        7.779   6.842   0.627  0.00  0.00    +0.004 A 
ATOM     10  C   LIG    1        7.347   6.139  -0.490  0.00  0.00    +0.047 A 
ATOM     11  C   LIG    1        5.403   3.289   0.990  0.00  0.00    +0.138 C 
ENDROOT
BRANCH  11  12
ATOM     12  O   LIG    1        4.919   2.907   2.230  0.00  0.00    -0.505 OA
ATOM     13  H   LIG    1        4.800   3.705   2.774  0.00  0.00    +0.292 HD
ENDBRANCH  11  12
BRANCH   1  14
ATOM     14  C   LIG    1        4.352   1.247  -0.083  0.00  0.00    +0.067 C 
BRANCH  14  15
ATOM     15  C   LIG    1        2.839   1.419  -0.268  0.00  0.00    -0.039 A 
ATOM     16  C   LIG    1        2.245   1.397  -1.540  0.00  0.00    +0.004 A 
ATOM     17  C   LIG    1        0.861   1.496  -1.692  0.00  0.00    +0.000 A 
ATOM     18  C   LIG    1        0.042   1.623  -0.575  0.00  0.00    +0.000 A 
ATOM     19  C   LIG    1        0.611   1.672   0.695  0.00  0.00    +0.000 A 
ATOM     20  C   LIG    1        1.999   1.583   0.848  0.00  0.00    +0.004 A 
ENDBRANCH  14  15
BRANCH  14  21
ATOM     21  C   LIG    1        4.908   0.141  -1.020  0.00  0.00    +0.087 C 
BRANCH  21  23
ATOM     22  C   LIG    1        7.345   0.022  -1.854  0.00  0.00    +0.086 C 
ATOM     23  C   LIG    1        6.355  -0.196  -0.737  0.00  0.00    +0.131 C 
ATOM     24  O   LIG    1        6.711  -0.635   0.357  0.00  0.00    -0.298 OA
ENDBRANCH  21  23
ENDBRANCH  14  21
ENDBRANCH   1  14
TORSDOF 5
