REMARK  Name = *****
REMARK                            x       y       z     vdW  Elec       q    Type
REMARK                         _______ _______ _______ _____ _____    ______ ____
ROOT
ATOM      1  C   LIG    1       -5.540   0.637  -0.823  0.00  0.00    +0.230 C 
ATOM      2  C   LIG    1       -5.120   1.590  -2.038  0.00  0.00    +0.014 C 
ATOM      3  C   LIG    1       -6.337   2.458  -2.467  0.00  0.00    +0.015 C 
ATOM      4  C   LIG    1       -4.621   0.574  -3.087  0.00  0.00    +0.007 C 
ATOM      5  C   LIG    1       -3.416   0.869  -3.990  0.00  0.00    -0.003 C 
ATOM      6  C   LIG    1       -3.281   2.345  -4.404  0.00  0.00    -0.001 C 
ATOM      7  C   LIG    1       -3.451   3.255  -3.136  0.00  0.00    +0.005 C 
ATOM      8  C   LIG    1       -3.979   2.817  -5.805  0.00  0.00    -0.025 C 
ATOM      9  C   LIG    1       -5.363   3.448  -5.554  0.00  0.00    +0.012 C 
ATOM     10  C   LIG    1       -4.208   1.643  -6.822  0.00  0.00    -0.001 C 
ATOM     11  C   LIG    1       -3.055   1.499  -7.816  0.00  0.00    +0.050 C 
ATOM     12  C   LIG    1       -3.051   2.701  -8.751  0.00  0.00    +0.194 C 
ATOM     13  C   LIG    1       -2.992   4.088  -8.030  0.00  0.00    +0.098 C 
ATOM     14  C   LIG    1       -4.514   0.296  -6.185  0.00  0.00    +0.004 C 
ATOM     15  C   LIG    1       -3.059   3.914  -6.468  0.00  0.00    +0.029 C 
ATOM     16  C   LIG    1       -3.434  -0.088  -5.191  0.00  0.00    +0.004 C 
ATOM     17  C   LIG    1       -4.371  -0.742  -2.307  0.00  0.00    +0.062 C 
ATOM     18  C   LIG    1       -3.929   2.550  -1.813  0.00  0.00    +0.011 C 
ATOM     19  C   LIG    1       -5.530  -0.869  -1.326  0.00  0.00    +0.108 C 
ENDROOT
BRANCH  19  20
ATOM     20  N   LIG    1       -6.836  -1.556  -2.019  0.00  0.00    +0.246 N 
ATOM     21  C   LIG    1       -6.506  -3.038  -2.397  0.00  0.00    +0.133 C 
ATOM     22  C   LIG    1       -7.624  -3.710  -3.211  0.00  0.00    +0.051 C 
ATOM     23  C   LIG    1       -8.054  -2.898  -4.425  0.00  0.00    +0.010 C 
ATOM     24  C   LIG    1       -8.434  -1.487  -4.019  0.00  0.00    +0.051 C 
ATOM     25  C   LIG    1       -7.293  -0.842  -3.267  0.00  0.00    +0.133 C 
ATOM     26  C   LIG    1       -7.966  -1.586  -0.992  0.00  0.00    +0.193 C 
ENDBRANCH  19  20
BRANCH  13  27
ATOM     27  N   LIG    1       -3.912   5.056  -8.707  0.00  0.00    -0.296 NA
ATOM     28  C   LIG    1       -4.076   6.335  -8.001  0.00  0.00    +0.085 C 
ATOM     29  C   LIG    1       -2.799   7.177  -7.950  0.00  0.00    +0.015 C 
ATOM     30  C   LIG    1       -2.298   7.506  -9.352  0.00  0.00    +0.002 C 
ATOM     31  C   LIG    1       -2.235   6.265 -10.237  0.00  0.00    +0.015 C 
ATOM     32  C   LIG    1       -3.480   5.369 -10.103  0.00  0.00    +0.085 C 
ENDBRANCH  13  27
BRANCH   1  33
ATOM     33  O   LIG    1       -6.695   1.101  -0.121  0.00  0.00    -0.455 OA
BRANCH  33  35
ATOM     34  C   LIG    1       -7.666   1.532   1.979  0.00  0.00    +0.136 C 
ATOM     35  C   LIG    1       -6.871   0.584   1.131  0.00  0.00    +0.304 C 
ATOM     36  O   LIG    1       -6.472  -0.502   1.473  0.00  0.00    -0.251 OA
ENDBRANCH  33  35
ENDBRANCH   1  33
BRANCH  12  37
ATOM     37  O   LIG    1       -2.040   2.543  -9.777  0.00  0.00    -0.460 OA
BRANCH  37  38
ATOM     38  C   LIG    1       -0.737   2.725  -9.456  0.00  0.00    +0.304 C 
ATOM     39  O   LIG    1       -0.296   2.960  -8.322  0.00  0.00    -0.251 OA
ATOM     40  C   LIG    1        0.095   2.651 -10.681  0.00  0.00    +0.136 C 
ENDBRANCH  37  38
ENDBRANCH  12  37
TORSDOF 6
