REMARK  Name = *****
REMARK                            x       y       z     vdW  Elec       q    Type
REMARK                         _______ _______ _______ _____ _____    ______ ____
ROOT
ATOM      1  N   LIG    1        6.340  -1.103  -2.348  0.00  0.00    -0.226 N 
ATOM      2  C   LIG    1        7.402  -0.350  -2.832  0.00  0.00    +0.275 C 
ATOM      3  O   LIG    1        7.430   0.884  -2.849  0.00  0.00    -0.266 OA
ATOM      4  C   LIG    1        8.564  -1.097  -3.345  0.00  0.00    +0.050 A 
ATOM      5  C   LIG    1        8.534  -2.489  -3.386  0.00  0.00    +0.011 A 
ATOM      6  C   LIG    1        9.641  -3.183  -3.897  0.00  0.00    +0.010 A 
ATOM      7  C   LIG    1       10.777  -2.487  -4.324  0.00  0.00    +0.001 A 
ATOM      8  C   LIG    1       10.812  -1.096  -4.258  0.00  0.00    +0.001 A 
ATOM      9  C   LIG    1        7.327  -3.149  -2.838  0.00  0.00    +0.074 C 
ATOM     10  C   LIG    1        9.706  -0.401  -3.779  0.00  0.00    +0.014 A 
ATOM     11  N   LIG    1        6.313  -2.489  -2.368  0.00  0.00    -0.172 NA
ENDROOT
BRANCH   1  16
ATOM     12  C   LIG    1        0.952   1.387  -1.434  0.00  0.00    +0.105 C 
ATOM     13  N   LIG    1        2.036   0.403  -1.339  0.00  0.00    -0.305 NA
ATOM     14  C   LIG    1        2.866   0.456  -2.548  0.00  0.00    +0.086 C 
ATOM     15  C   LIG    1        3.922  -0.651  -2.671  0.00  0.00    +0.042 C 
ATOM     16  C   LIG    1        5.144  -0.427  -1.779  0.00  0.00    +0.112 C 
ATOM     17  C   LIG    1        4.960  -0.798  -0.298  0.00  0.00    +0.028 C 
ATOM     18  C   LIG    1        3.563  -0.652   0.299  0.00  0.00    +0.017 C 
ATOM     19  C   LIG    1        2.792   0.604  -0.097  0.00  0.00    +0.084 C 
ENDBRANCH   1  16
BRANCH   9  20
ATOM     20  C   LIG    1        7.274  -4.675  -2.743  0.00  0.00    +0.092 C 
BRANCH  20  21
ATOM     21  C   LIG    1        6.640  -5.371  -3.928  0.00  0.00    -0.041 A 
ATOM     22  C   LIG    1        7.330  -6.388  -4.608  0.00  0.00    +0.005 A 
ATOM     23  C   LIG    1        6.714  -7.100  -5.643  0.00  0.00    +0.020 A 
ATOM     24  C   LIG    1        5.402  -6.804  -6.003  0.00  0.00    +0.041 A 
ATOM     25 CL   LIG    1        4.639  -7.695  -7.262  0.00  0.00    -0.084 Cl
ATOM     26  C   LIG    1        4.702  -5.801  -5.338  0.00  0.00    +0.020 A 
ATOM     27  C   LIG    1        5.317  -5.090  -4.303  0.00  0.00    +0.005 A 
ENDBRANCH  20  21
ENDBRANCH   9  20
TORSDOF 3
