REMARK  Name = *****
REMARK                            x       y       z     vdW  Elec       q    Type
REMARK                         _______ _______ _______ _____ _____    ______ ____
ROOT
ATOM      1  C   LIG    1       23.010 -15.701  -4.632  0.00  0.00    +0.010 C 
ATOM      2  C   LIG    1       23.994 -14.906  -4.188  0.00  0.00    -0.046 C 
ATOM      3  C   LIG    1       23.960 -13.415  -3.954  0.00  0.00    +0.144 C 
ATOM      4  O   LIG    1       25.249 -13.108  -3.365  0.00  0.00    -0.369 OA
ATOM      5  C   LIG    1       26.160 -14.181  -3.663  0.00  0.00    +0.123 C 
ATOM      6  C   LIG    1       26.925 -13.932  -4.973  0.00  0.00    +0.037 C 
ATOM      7  C   LIG    1       27.758 -12.653  -4.888  0.00  0.00    +0.068 C 
ATOM      8  C   LIG    1       28.486 -12.284  -6.181  0.00  0.00    +0.174 C 
ATOM      9  O   LIG    1       29.330 -11.117  -5.873  0.00  0.00    -0.340 OA
ATOM     10  C   LIG    1       30.370 -11.005  -6.887  0.00  0.00    +0.182 C 
ATOM     11  C   LIG    1       30.403 -12.411  -7.512  0.00  0.00    +0.155 C 
ATOM     12  O   LIG    1       29.718 -12.316  -8.770  0.00  0.00    -0.365 OA
ATOM     13  C   LIG    1       29.067 -11.046  -8.790  0.00  0.00    +0.181 C 
ATOM     14  C   LIG    1       27.812 -10.863  -7.909  0.00  0.00    +0.184 C 
ATOM     15  C   LIG    1       27.010  -9.746  -8.574  0.00  0.00    +0.179 C 
ATOM     16  C   LIG    1       28.126  -8.586  -8.700  0.00  0.00    +0.150 C 
ATOM     17  C   LIG    1       27.619  -7.177  -8.402  0.00  0.00    +0.037 C 
ATOM     18  C   LIG    1       26.455  -7.153  -7.422  0.00  0.00    +0.034 C 
ATOM     19  C   LIG    1       25.354  -8.139  -7.800  0.00  0.00    +0.126 C 
ATOM     20  C   LIG    1       24.653  -7.886  -9.141  0.00  0.00    +0.106 C 
ATOM     21  C   LIG    1       23.466  -6.942  -9.004  0.00  0.00    +0.136 C 
ATOM     22  C   LIG    1       22.301  -7.162  -9.958  0.00  0.00    +0.083 C 
ATOM     23  C   LIG    1       20.893  -6.939  -9.392  0.00  0.00    +0.056 C 
ATOM     24  C   LIG    1       20.497  -7.647  -8.085  0.00  0.00    +0.128 C 
ATOM     25  C   LIG    1       21.365  -8.751  -7.466  0.00  0.00    +0.068 C 
ATOM     26  C   LIG    1       20.544 -10.046  -7.260  0.00  0.00    +0.147 C 
ATOM     27  C   LIG    1       20.067 -10.672  -8.565  0.00  0.00    -0.045 C 
ATOM     28  C   LIG    1       18.769 -10.640  -8.921  0.00  0.00    +0.010 C 
ATOM     29  C   LIG    1       21.163 -11.355  -9.356  0.00  0.00    +0.016 C 
ATOM     30  C   LIG    1       20.745 -12.013 -10.674  0.00  0.00    +0.012 C 
ATOM     31  C   LIG    1       21.801 -12.390  -8.432  0.00  0.00    +0.039 C 
ATOM     32  C   LIG    1       22.290 -11.751  -7.124  0.00  0.00    +0.120 C 
ATOM     33  C   LIG    1       22.700 -12.873  -6.154  0.00  0.00    +0.034 C 
ATOM     34  O   LIG    1       21.247 -11.015  -6.477  0.00  0.00    -0.369 OA
ATOM     35  O   LIG    1       20.235  -6.596  -7.128  0.00  0.00    -0.370 OA
ATOM     36  C   LIG    1       19.661  -5.504  -7.885  0.00  0.00    +0.150 C 
ATOM     37  C   LIG    1       20.521  -5.462  -9.161  0.00  0.00    +0.152 C 
ATOM     38  O   LIG    1       23.485  -5.987  -8.218  0.00  0.00    -0.297 OA
ATOM     39  O   LIG    1       29.329  -8.825  -7.851  0.00  0.00    -0.365 OA
ATOM     40  O   LIG    1       25.883  -9.463  -7.742  0.00  0.00    -0.368 OA
ATOM     41  C   LIG    1       30.001 -10.088  -8.110  0.00  0.00    +0.181 C 
ATOM     42  O   LIG    1       27.462 -12.051  -7.231  0.00  0.00    -0.340 OA
ATOM     43  C   LIG    1       29.533 -13.289  -6.633  0.00  0.00    +0.099 C 
ATOM     44  C   LIG    1       23.739 -12.435  -5.126  0.00  0.00    +0.038 C 
ATOM     45  C   LIG    1       25.306 -15.433  -3.712  0.00  0.00    +0.064 C 
ENDROOT
BRANCH  37  46
ATOM     46  O   LIG    1       19.883  -4.943 -10.328  0.00  0.00    -0.377 OA
ATOM     47  C   LIG    1       19.701  -3.531 -10.323  0.00  0.00    +0.194 C 
ENDBRANCH  37  46
BRANCH  36  48
ATOM     48  C   LIG    1       18.142  -5.748  -8.072  0.00  0.00    +0.066 C 
BRANCH  48  49
ATOM     49  C   LIG    1       17.386  -5.768  -6.724  0.00  0.00    +0.131 C 
BRANCH  49  50
ATOM     50  O   LIG    1       17.863  -6.824  -5.888  0.00  0.00    -0.391 OA
ATOM     51  H   LIG    1       18.842  -6.803  -5.914  0.00  0.00    +0.210 HD
ENDBRANCH  49  50
BRANCH  49  52
ATOM     52  C   LIG    1       15.859  -5.968  -6.860  0.00  0.00    +0.109 C 
BRANCH  52  53
ATOM     53  N   LIG    1       15.176  -4.988  -7.700  0.00  0.00    -0.328 NA
ATOM     54  H   LIG    1       15.478  -5.093  -8.667  0.00  0.00    +0.118 HD
ATOM     55  H   LIG    1       15.437  -4.048  -7.407  0.00  0.00    +0.118 HD
ENDBRANCH  52  53
ENDBRANCH  49  52
ENDBRANCH  48  49
ENDBRANCH  36  48
TORSDOF 6
