REMARK  Name = *****
REMARK                            x       y       z     vdW  Elec       q    Type
REMARK                         _______ _______ _______ _____ _____    ______ ____
ROOT
ATOM      1  C   LIG    1        7.375  -2.003  -2.223  0.00  0.00    +0.253 C 
ATOM      2  N   LIG    1        6.531  -3.066  -1.978  0.00  0.00    -0.260 N 
ATOM      3  H   LIG    1        5.558  -2.882  -1.780  0.00  0.00    +0.157 HD
ATOM      4  O   LIG    1        8.547  -2.072  -2.594  0.00  0.00    -0.270 OA
ENDROOT
BRANCH   1   6
ATOM      5  C   LIG    1        5.402  -0.381  -2.147  0.00  0.00    +0.144 A 
ATOM      6  C   LIG    1        6.780  -0.647  -2.026  0.00  0.00    +0.079 A 
ATOM      7  C   LIG    1        7.650   0.410  -1.704  0.00  0.00    +0.017 A 
ATOM      8  C   LIG    1        7.153   1.695  -1.476  0.00  0.00    +0.001 A 
ATOM      9  C   LIG    1        5.783   1.930  -1.544  0.00  0.00    +0.004 A 
ATOM     10  C   LIG    1        4.910   0.895  -1.872  0.00  0.00    +0.047 A 
BRANCH   5  11
ATOM     11  O   LIG    1        4.550  -1.439  -2.576  0.00  0.00    -0.425 OA
BRANCH  11  13
ATOM     12  C   LIG    1        2.678  -2.669  -3.344  0.00  0.00    +0.136 C 
ATOM     13  C   LIG    1        3.196  -1.337  -2.905  0.00  0.00    +0.309 C 
ATOM     14  O   LIG    1        2.489  -0.340  -2.809  0.00  0.00    -0.251 OA
ENDBRANCH  11  13
ENDBRANCH   5  11
ENDBRANCH   1   6
BRANCH   2  15
ATOM     15  C   LIG    1        6.811  -4.388  -2.185  0.00  0.00    +0.171 A 
ATOM     16  S   LIG    1        8.412  -4.970  -2.237  0.00  0.00    +0.022 S 
ATOM     17  C   LIG    1        7.811  -6.537  -2.462  0.00  0.00    +0.332 A 
ATOM     18  C   LIG    1        6.436  -6.536  -2.493  0.00  0.00    +0.205 A 
ATOM     19  N   LIG    1        5.860  -5.289  -2.289  0.00  0.00    -0.226 NA
BRANCH  17  20
ATOM     20  N   LIG    1        8.684  -7.657  -2.586  0.00  0.00    +0.089 N 
ATOM     21  O   LIG    1        9.903  -7.462  -2.509  0.00  0.00    -0.576 OA
ATOM     22  O   LIG    1        8.143  -8.757  -2.755  0.00  0.00    +0.042 OA
ENDBRANCH  17  20
ENDBRANCH   2  15
TORSDOF 5
