REMARK  Name = *****
REMARK                            x       y       z     vdW  Elec       q    Type
REMARK                         _______ _______ _______ _____ _____    ______ ____
ROOT
ATOM      1  C   LIG    1        9.305  -1.755  -0.778  0.00  0.00    +0.071 C 
ENDROOT
BRANCH   1   2
ATOM      2  C   LIG    1        9.489  -1.651   0.756  0.00  0.00    +0.021 C 
BRANCH   2   3
ATOM      3  C   LIG    1        9.013  -0.311   1.356  0.00  0.00    +0.036 C 
BRANCH   3   8
ATOM      4 CL   LIG    1        9.780   0.256   7.325  0.00  0.00    -0.084 Cl
ATOM      5  C   LIG    1        9.559   0.085   5.627  0.00  0.00    +0.041 A 
ATOM      6  C   LIG    1       10.662  -0.122   4.802  0.00  0.00    +0.020 A 
ATOM      7  C   LIG    1       10.486  -0.258   3.422  0.00  0.00    +0.005 A 
ATOM      8  C   LIG    1        9.205  -0.199   2.855  0.00  0.00    -0.047 A 
ATOM      9  C   LIG    1        8.104   0.021   3.701  0.00  0.00    +0.005 A 
ATOM     10  C   LIG    1        8.281   0.161   5.082  0.00  0.00    +0.020 A 
ENDBRANCH   3   8
ENDBRANCH   2   3
ENDBRANCH   1   2
BRANCH   1  11
ATOM     11  C   LIG    1        7.840  -1.547  -1.242  0.00  0.00    +0.137 C 
BRANCH  11  12
ATOM     12  N   LIG    1        6.901  -2.580  -0.852  0.00  0.00    -0.336 N 
ATOM     13  C   LIG    1        6.171  -2.637   0.301  0.00  0.00    +0.199 A 
ATOM     14  N   LIG    1        5.417  -3.706   0.347  0.00  0.00    -0.244 NA
ATOM     15  C   LIG    1        5.653  -4.365  -0.833  0.00  0.00    +0.130 A 
ATOM     16  C   LIG    1        6.541  -3.665  -1.607  0.00  0.00    +0.107 A 
ENDBRANCH  11  12
ENDBRANCH   1  11
BRANCH   1  17
ATOM     17  S   LIG    1        9.906  -3.371  -1.503  0.00  0.00    -0.117 S 
BRANCH  17  18
ATOM     18  C   LIG    1       11.630  -3.441  -1.020  0.00  0.00    +0.045 A 
ATOM     19  C   LIG    1       12.648  -2.944  -1.857  0.00  0.00    +0.056 A 
ATOM     20 CL   LIG    1       12.335  -2.333  -3.449  0.00  0.00    -0.082 Cl
ATOM     21  C   LIG    1       13.986  -2.954  -1.443  0.00  0.00    +0.021 A 
ATOM     22  C   LIG    1       14.337  -3.493  -0.209  0.00  0.00    +0.003 A 
ATOM     23  C   LIG    1       13.357  -4.074   0.589  0.00  0.00    +0.021 A 
ATOM     24  C   LIG    1       12.018  -4.063   0.184  0.00  0.00    +0.056 A 
ATOM     25 CL   LIG    1       10.893  -4.866   1.233  0.00  0.00    -0.082 Cl
ENDBRANCH  17  18
ENDBRANCH   1  17
TORSDOF 7
