REMARK  Name = *****
REMARK                            x       y       z     vdW  Elec       q    Type
REMARK                         _______ _______ _______ _____ _____    ______ ____
ROOT
ATOM      1  N   LIG    1        1.220   4.247   1.154  0.00  0.00    -0.302 NA
ATOM      2  H   LIG    1        1.376   3.979   2.128  0.00  0.00    +0.123 HD
ENDROOT
BRANCH   1   3
ATOM      3  C   LIG    1       -0.174   4.704   0.981  0.00  0.00    +0.023 C 
ATOM      4  C   LIG    1       -1.149   3.582   1.458  0.00  0.00    +0.026 C 
ATOM      5  C   LIG    1       -2.620   4.040   1.320  0.00  0.00    -0.006 C 
ATOM      6  C   LIG    1       -2.916   4.354  -0.153  0.00  0.00    +0.038 C 
ATOM      7  C   LIG    1       -1.968   5.457  -0.649  0.00  0.00    +0.068 C 
ATOM      8  C   LIG    1       -2.172   6.728   0.191  0.00  0.00    +0.038 C 
ATOM      9  C   LIG    1       -1.910   6.427   1.675  0.00  0.00    -0.006 C 
ATOM     10  C   LIG    1       -2.847   5.311   2.155  0.00  0.00    +0.007 C 
ATOM     11  C   LIG    1       -0.509   4.991  -0.504  0.00  0.00    +0.057 C 
ATOM     12  C   LIG    1       -0.460   5.958   1.844  0.00  0.00    +0.026 C 
BRANCH   7  13
ATOM     13  O   LIG    1       -2.229   5.736  -2.018  0.00  0.00    -0.389 OA
ATOM     14  H   LIG    1       -3.148   6.045  -2.093  0.00  0.00    +0.210 HD
ENDBRANCH   7  13
ENDBRANCH   1   3
BRANCH   1  15
ATOM     15  C   LIG    1        2.251   5.249   0.782  0.00  0.00    +0.178 C 
BRANCH  15  18
ATOM     16  C   LIG    1        5.353   2.972   0.344  0.00  0.00    +0.179 C 
ATOM     17  N   LIG    1        4.033   3.601   0.241  0.00  0.00    -0.285 N 
ATOM     18  C   LIG    1        3.676   4.704   0.979  0.00  0.00    +0.230 C 
ATOM     19  O   LIG    1        4.475   5.263   1.733  0.00  0.00    -0.274 OA
ATOM     20  C   LIG    1        3.140   2.847  -0.620  0.00  0.00    +0.109 C 
ATOM     21  C   LIG    1        4.059   1.910  -1.375  0.00  0.00    +0.022 C 
ATOM     22  C   LIG    1        5.141   1.612  -0.339  0.00  0.00    +0.039 C 
BRANCH  16  24
ATOM     23  N   LIG    1        7.263   4.252  -0.953  0.00  0.00    -0.195 NA
ATOM     24  C   LIG    1        6.417   3.729  -0.363  0.00  0.00    +0.085 C 
ENDBRANCH  16  24
ENDBRANCH  15  18
ENDBRANCH   1  15
TORSDOF 5
