REMARK  Name = *****
REMARK                            x       y       z     vdW  Elec       q    Type
REMARK                         _______ _______ _______ _____ _____    ______ ____
ROOT
ATOM      1  C   LIG    1        5.464  -1.779   0.185  0.00  0.00    +0.009 A 
ATOM      2  C   LIG    1        5.107  -3.076   0.586  0.00  0.00    +0.033 A 
ATOM      3  C   LIG    1        6.042  -4.125   0.562  0.00  0.00    +0.094 A 
ATOM      4  C   LIG    1        7.351  -3.888   0.124  0.00  0.00    +0.138 A 
ATOM      5  C   LIG    1        7.717  -2.587  -0.239  0.00  0.00    +0.048 A 
ATOM      6  C   LIG    1        6.788  -1.545  -0.197  0.00  0.00    +0.014 A 
ENDROOT
BRANCH   1  11
ATOM      7  C   LIG    1        3.881   2.865   0.535  0.00  0.00    +0.067 C 
ATOM      8  C   LIG    1        3.707   1.407   0.294  0.00  0.00    +0.060 A 
ATOM      9  C   LIG    1        2.541   0.745  -0.051  0.00  0.00    +0.119 A 
ATOM     10  S   LIG    1        2.860  -0.926  -0.244  0.00  0.00    -0.060 S 
ATOM     11  C   LIG    1        4.507  -0.666   0.165  0.00  0.00    +0.109 A 
ATOM     12  N   LIG    1        4.829   0.594   0.375  0.00  0.00    -0.243 NA
BRANCH   9  13
ATOM     13  C   LIG    1        1.209   1.275  -0.214  0.00  0.00    +0.345 C 
ATOM     14  O   LIG    1        0.758   2.258   0.356  0.00  0.00    -0.244 OA
BRANCH  13  15
ATOM     15  O   LIG    1        0.482   0.581  -1.129  0.00  0.00    -0.477 OA
ATOM     16  H   LIG    1        0.996  -0.143  -1.538  0.00  0.00    +0.295 HD
ENDBRANCH  13  15
ENDBRANCH   9  13
ENDBRANCH   1  11
BRANCH   3  17
ATOM     17  C   LIG    1        5.606  -5.423   1.011  0.00  0.00    +0.103 C 
ATOM     18  N   LIG    1        5.181  -6.430   1.392  0.00  0.00    -0.191 NA
ENDBRANCH   3  17
BRANCH   4  19
ATOM     19  O   LIG    1        8.203  -4.962   0.068  0.00  0.00    -0.490 OA
BRANCH  19  20
ATOM     20  C   LIG    1        9.538  -4.702  -0.380  0.00  0.00    +0.232 C 
BRANCH  20  21
ATOM     21  C   LIG    1       10.351  -6.000  -0.369  0.00  0.00    +0.020 C 
ATOM     22  C   LIG    1       10.372  -6.605   1.035  0.00  0.00    +0.010 C 
ATOM     23  C   LIG    1       11.776  -5.745  -0.864  0.00  0.00    +0.010 C 
ENDBRANCH  20  21
ENDBRANCH  19  20
ENDBRANCH   4  19
TORSDOF 7
