REMARK  Name = *****
REMARK                            x       y       z     vdW  Elec       q    Type
REMARK                         _______ _______ _______ _____ _____    ______ ____
ROOT
ATOM      1  C   LIG    1        1.982  -1.592   6.319  0.00  0.00    +0.169 C 
ATOM      2  C   LIG    1        0.985  -1.233   5.165  0.00  0.00    +0.175 C 
ATOM      3  C   LIG    1        0.037  -2.403   4.729  0.00  0.00    +0.169 C 
ATOM      4  C   LIG    1       -0.754  -2.821   5.998  0.00  0.00    +0.084 C 
ATOM      5  C   LIG    1        0.218  -3.372   7.043  0.00  0.00    +0.042 C 
ATOM      6  C   LIG    1        1.190  -2.268   7.492  0.00  0.00    +0.084 C 
ENDROOT
BRANCH   4   7
ATOM      7  N   LIG    1       -1.890  -3.726   5.828  0.00  0.00    -0.325 NA
ATOM      8  H   LIG    1       -2.450  -3.492   5.009  0.00  0.00    +0.118 HD
ATOM      9  H   LIG    1       -1.630  -4.706   5.778  0.00  0.00    +0.118 HD
ENDBRANCH   4   7
BRANCH   6  10
ATOM     10  N   LIG    1        1.981  -2.781   8.619  0.00  0.00    -0.325 NA
ATOM     11  H   LIG    1        1.378  -2.864   9.439  0.00  0.00    +0.118 HD
ATOM     12  H   LIG    1        2.262  -3.743   8.425  0.00  0.00    +0.118 HD
ENDBRANCH   6  10
BRANCH   2  13
ATOM     13  O   LIG    1        1.704  -0.737   4.025  0.00  0.00    -0.387 OA
ATOM     14  H   LIG    1        2.568  -1.194   4.064  0.00  0.00    +0.210 HD
ENDBRANCH   2  13
BRANCH   1  15
ATOM     15  O   LIG    1        3.054  -2.319   5.700  0.00  0.00    -0.342 OA
BRANCH  15  18
ATOM     16  C   LIG    1        5.783  -2.146   8.177  0.00  0.00    +0.138 C 
ATOM     17  O   LIG    1        4.815  -1.622   7.231  0.00  0.00    -0.345 OA
ATOM     18  C   LIG    1        4.160  -2.692   6.528  0.00  0.00    +0.268 C 
ATOM     19  C   LIG    1        5.188  -3.425   5.613  0.00  0.00    +0.107 C 
ATOM     20  C   LIG    1        6.249  -4.038   6.518  0.00  0.00    +0.026 C 
ATOM     21  C   LIG    1        6.854  -2.989   7.445  0.00  0.00    +0.035 C 
BRANCH  19  22
ATOM     22  N   LIG    1        5.844  -2.544   4.623  0.00  0.00    -0.323 NA
ATOM     23  H   LIG    1        6.245  -3.108   3.878  0.00  0.00    +0.119 HD
ATOM     24  H   LIG    1        5.129  -1.951   4.203  0.00  0.00    +0.119 HD
ENDBRANCH  19  22
BRANCH  16  25
ATOM     25  C   LIG    1        6.460  -1.001   9.020  0.00  0.00    +0.079 C 
ATOM     26  C   LIG    1        5.399  -0.156   9.738  0.00  0.00    +0.026 C 
BRANCH  25  28
ATOM     27  C   LIG    1        8.124  -0.599  10.814  0.00  0.00    +0.101 C 
ATOM     28  N   LIG    1        7.439  -1.578   9.980  0.00  0.00    -0.314 NA
ATOM     29  H   LIG    1        8.156  -2.072   9.450  0.00  0.00    +0.122 HD
ENDBRANCH  25  28
ENDBRANCH  16  25
ENDBRANCH  15  18
ENDBRANCH   1  15
BRANCH   3  30
ATOM     30  O   LIG    1        0.824  -3.440   4.105  0.00  0.00    -0.341 OA
BRANCH  30  31
ATOM     31  C   LIG    1        0.153  -4.610   3.639  0.00  0.00    +0.281 C 
ATOM     32  C   LIG    1       -1.022  -4.409   2.639  0.00  0.00    +0.190 C 
ATOM     33  C   LIG    1       -0.517  -3.956   1.239  0.00  0.00    +0.121 C 
ATOM     34  C   LIG    1        0.617  -4.914   0.737  0.00  0.00    +0.104 C 
ATOM     35  C   LIG    1        0.069  -6.293   0.323  0.00  0.00    +0.045 C 
ATOM     36  C   LIG    1        1.672  -5.062   1.847  0.00  0.00    +0.199 C 
ATOM     37  O   LIG    1        1.105  -5.533   3.070  0.00  0.00    -0.346 OA
BRANCH  33  38
ATOM     38  N   LIG    1       -0.173  -2.515   1.370  0.00  0.00    -0.311 NA
ATOM     39  H   LIG    1        0.568  -2.380   2.063  0.00  0.00    +0.122 HD
ATOM     40  C   LIG    1        0.229  -1.859   0.139  0.00  0.00    +0.101 C 
ENDBRANCH  33  38
BRANCH  32  41
ATOM     41  O   LIG    1       -1.821  -5.604   2.543  0.00  0.00    -0.385 OA
ATOM     42  H   LIG    1       -1.267  -6.360   2.809  0.00  0.00    +0.210 HD
ENDBRANCH  32  41
BRANCH  34  43
ATOM     43  O   LIG    1        1.238  -4.394  -0.454  0.00  0.00    -0.385 OA
ATOM     44  H   LIG    1        1.956  -4.980  -0.709  0.00  0.00    +0.210 HD
ENDBRANCH  34  43
ENDBRANCH  30  31
ENDBRANCH   3  30
TORSDOF 13
