REMARK  Name = *****
REMARK                            x       y       z     vdW  Elec       q    Type
REMARK                         _______ _______ _______ _____ _____    ______ ____
ROOT
ATOM      1  C   LIG    1        9.412   5.811   2.718  0.00  0.00    +0.106 A 
ATOM      2  C   LIG    1        9.114   4.613   3.383  0.00  0.00    +0.038 A 
ATOM      3  C   LIG    1        9.677   3.409   2.929  0.00  0.00    -0.002 A 
ATOM      4  C   LIG    1        9.389   2.105   3.567  0.00  0.00    -0.012 C 
ATOM      5  C   LIG    1       10.507   1.186   3.901  0.00  0.00    -0.004 A 
ATOM      6  C   LIG    1       11.534   1.034   2.952  0.00  0.00    +0.021 A 
ATOM      7  S   LIG    1       11.534   1.957   1.403  0.00  0.00    -0.088 S 
ATOM      8  C   LIG    1       12.564   0.114   3.194  0.00  0.00    +0.015 A 
ATOM      9  C   LIG    1       12.579  -0.628   4.380  0.00  0.00    +0.001 A 
ATOM     10  C   LIG    1       11.577  -0.454   5.333  0.00  0.00    +0.001 A 
ATOM     11  C   LIG    1       10.543   0.454   5.099  0.00  0.00    +0.009 A 
ATOM     12  C   LIG    1        8.153   1.559   3.566  0.00  0.00    -0.017 C 
ATOM     13  C   LIG    1       10.602   3.426   1.866  0.00  0.00    +0.021 A 
ATOM     14  C   LIG    1       10.844   4.622   1.178  0.00  0.00    +0.017 A 
ATOM     15  C   LIG    1       10.248   5.814   1.597  0.00  0.00    +0.029 A 
ENDROOT
BRANCH   1  16
ATOM     16  S   LIG    1        8.842   7.369   3.356  0.00  0.00    +0.060 S 
ATOM     17  O   LIG    1        7.936   7.111   4.460  0.00  0.00    -0.153 OA
ATOM     18  O   LIG    1       10.010   8.206   3.526  0.00  0.00    -0.153 OA
BRANCH  16  20
ATOM     19  C   LIG    1        6.639   7.301   1.804  0.00  0.00    +0.131 C 
ATOM     20  N   LIG    1        7.900   8.025   2.079  0.00  0.00    -0.183 NA
ATOM     21  C   LIG    1        7.652   9.480   2.232  0.00  0.00    +0.131 C 
ENDBRANCH  16  20
ENDBRANCH   1  16
BRANCH  12  22
ATOM     22  C   LIG    1        6.883   2.113   2.969  0.00  0.00    +0.043 C 
BRANCH  22  23
ATOM     23  C   LIG    1        5.996   1.026   2.303  0.00  0.00    +0.088 C 
BRANCH  23  24
ATOM     24  N   LIG    1        5.570  -0.078   3.183  0.00  0.00    -0.300 NA
ATOM     25  C   LIG    1        4.823   0.351   4.381  0.00  0.00    +0.100 C 
ATOM     26  C   LIG    1        3.367   0.788   4.119  0.00  0.00    +0.099 C 
ATOM     27  N   LIG    1        2.586  -0.265   3.450  0.00  0.00    -0.303 NA
ATOM     28  C   LIG    1        1.231   0.199   3.163  0.00  0.00    +0.105 C 
ATOM     29  C   LIG    1        3.273  -0.712   2.225  0.00  0.00    +0.099 C 
ATOM     30  C   LIG    1        4.761  -1.085   2.459  0.00  0.00    +0.100 C 
ENDBRANCH  23  24
ENDBRANCH  22  23
ENDBRANCH  12  22
TORSDOF 5
