REMARK  Name = *****
REMARK                            x       y       z     vdW  Elec       q    Type
REMARK                         _______ _______ _______ _____ _____    ______ ____
ROOT
ATOM      1  C   LIG    1        5.116  -3.701  -7.424  0.00  0.00    +0.007 C 
ENDROOT
BRANCH   1   2
ATOM      2  C   LIG    1        5.032  -2.294  -6.825  0.00  0.00    +0.041 C 
BRANCH   2   3
ATOM      3  C   LIG    1        4.670  -2.269  -5.345  0.00  0.00    +0.229 C 
BRANCH   3   4
ATOM      4  O   LIG    1        3.412  -2.911  -5.148  0.00  0.00    -0.492 OA
BRANCH   4   8
ATOM      5  C   LIG    1        1.954  -3.306  -1.260  0.00  0.00    +0.065 A 
ATOM      6  C   LIG    1        2.770  -2.212  -1.564  0.00  0.00    +0.019 A 
ATOM      7  C   LIG    1        3.277  -2.043  -2.857  0.00  0.00    +0.046 A 
ATOM      8  C   LIG    1        2.983  -2.977  -3.850  0.00  0.00    +0.120 A 
ATOM      9  C   LIG    1        2.151  -4.059  -3.552  0.00  0.00    +0.046 A 
ATOM     10  C   LIG    1        1.640  -4.230  -2.261  0.00  0.00    +0.019 A 
BRANCH   5  13
ATOM     11  N   LIG    1        2.113  -2.959   1.111  0.00  0.00    -0.099 NA
ATOM     12  H   LIG    1        1.665  -3.198   1.998  0.00  0.00    +0.363 HD
ATOM     13  C   LIG    1        1.448  -3.473   0.134  0.00  0.00    +0.308 C 
BRANCH  13  14
ATOM     14  N   LIG    1        0.285  -4.151   0.381  0.00  0.00    -0.247 N 
ATOM     15  H   LIG    1       -0.365  -4.242  -0.391  0.00  0.00    +0.288 HD
ATOM     16  H   LIG    1       -0.182  -3.920   1.249  0.00  0.00    +0.288 HD
ENDBRANCH  13  14
ENDBRANCH   5  13
ENDBRANCH   4   8
ENDBRANCH   3   4
ENDBRANCH   2   3
ENDBRANCH   1   2
BRANCH   1  17
ATOM     17  C   LIG    1        5.480  -3.660  -8.915  0.00  0.00    +0.041 C 
BRANCH  17  18
ATOM     18  C   LIG    1        6.833  -3.001  -9.197  0.00  0.00    +0.229 C 
BRANCH  18  19
ATOM     19  O   LIG    1        7.845  -3.765  -8.541  0.00  0.00    -0.492 OA
BRANCH  19  20
ATOM     20  C   LIG    1        9.098  -3.721  -9.081  0.00  0.00    +0.120 A 
ATOM     21  C   LIG    1        9.610  -2.687  -9.863  0.00  0.00    +0.046 A 
ATOM     22  C   LIG    1       10.914  -2.770 -10.370  0.00  0.00    +0.019 A 
ATOM     23  C   LIG    1       11.712  -3.886 -10.086  0.00  0.00    +0.065 A 
ATOM     24  C   LIG    1       11.205  -4.907  -9.280  0.00  0.00    +0.019 A 
ATOM     25  C   LIG    1        9.909  -4.817  -8.776  0.00  0.00    +0.046 A 
BRANCH  23  26
ATOM     26  C   LIG    1       13.098  -3.961 -10.625  0.00  0.00    +0.308 C 
ATOM     27  N   LIG    1       13.687  -5.089 -10.902  0.00  0.00    -0.099 NA
ATOM     28  H   LIG    1       13.065  -5.882 -10.752  0.00  0.00    +0.363 HD
BRANCH  26  29
ATOM     29  N   LIG    1       13.824  -2.834 -10.847  0.00  0.00    -0.247 N 
ATOM     30  H   LIG    1       14.800  -3.066 -11.016  0.00  0.00    +0.288 HD
ATOM     31  H   LIG    1       13.718  -2.098 -10.158  0.00  0.00    +0.288 HD
ENDBRANCH  26  29
ENDBRANCH  23  26
ENDBRANCH  19  20
ENDBRANCH  18  19
ENDBRANCH  17  18
ENDBRANCH   1  17
TORSDOF 12
