REMARK  Name = *****
REMARK                            x       y       z     vdW  Elec       q    Type
REMARK                         _______ _______ _______ _____ _____    ______ ____
ROOT
ATOM      1  C   LIG    1        7.947  -1.985   2.602  0.00  0.00    +0.185 C 
ENDROOT
BRANCH   1   2
ATOM      2  O   LIG    1        9.198  -2.598   2.233  0.00  0.00    -0.386 OA
ATOM      3  H   LIG    1        9.412  -2.334   1.318  0.00  0.00    +0.210 HD
ENDBRANCH   1   2
BRANCH   1   4
ATOM      4  C   LIG    1        8.192  -1.058   3.815  0.00  0.00    +0.254 C 
BRANCH   4   6
ATOM      5  O   LIG    1        6.069  -0.969   5.015  0.00  0.00    -0.248 OA
ATOM      6  C   LIG    1        6.890  -0.422   4.272  0.00  0.00    +0.336 C 
BRANCH   6   7
ATOM      7  O   LIG    1        6.678   0.791   3.711  0.00  0.00    -0.479 OA
ATOM      8  H   LIG    1        7.481   1.037   3.186  0.00  0.00    +0.295 HD
ENDBRANCH   6   7
ENDBRANCH   4   6
BRANCH   4   9
ATOM      9  O   LIG    1        9.143  -0.028   3.527  0.00  0.00    -0.378 OA
ATOM     10  H   LIG    1        9.983  -0.498   3.358  0.00  0.00    +0.211 HD
ENDBRANCH   4   9
ENDBRANCH   1   4
BRANCH   1  11
ATOM     11  C   LIG    1        7.294  -1.276   1.389  0.00  0.00    +0.177 C 
BRANCH  11  12
ATOM     12  O   LIG    1        8.167  -0.235   0.919  0.00  0.00    -0.387 OA
ATOM     13  H   LIG    1        7.744   0.110   0.104  0.00  0.00    +0.210 HD
ENDBRANCH  11  12
BRANCH  11  14
ATOM     14  C   LIG    1        6.974  -2.188   0.190  0.00  0.00    +0.171 C 
BRANCH  14  15
ATOM     15  O   LIG    1        6.334  -1.353  -0.799  0.00  0.00    -0.387 OA
ATOM     16  H   LIG    1        5.863  -1.967  -1.400  0.00  0.00    +0.210 HD
ENDBRANCH  14  15
BRANCH  14  17
ATOM     17  C   LIG    1        6.050  -3.355   0.548  0.00  0.00    +0.190 C 
BRANCH  17  18
ATOM     18  O   LIG    1        5.802  -4.129  -0.625  0.00  0.00    -0.392 OA
ATOM     19  H   LIG    1        5.408  -4.970  -0.326  0.00  0.00    +0.209 HD
ENDBRANCH  17  18
ENDBRANCH  14  17
ENDBRANCH  11  14
ENDBRANCH   1  11
TORSDOF 11
