REMARK  Name = *****
REMARK                            x       y       z     vdW  Elec       q    Type
REMARK                         _______ _______ _______ _____ _____    ______ ____
ROOT
ATOM      1  C   LIG    1        4.831  -0.806   0.003  0.00  0.00    +0.061 A 
ATOM      2  C   LIG    1        5.551  -0.088   1.004  0.00  0.00    +0.082 A 
ATOM      3  C   LIG    1        6.956  -0.131   0.910  0.00  0.00    +0.180 A 
ATOM      4  F   LIG    1        7.723   0.294   1.926  0.00  0.00    -0.201 F 
ATOM      5  C   LIG    1        7.605  -0.660  -0.203  0.00  0.00    +0.160 A 
ATOM      6  F   LIG    1        8.944  -0.653  -0.263  0.00  0.00    -0.202 F 
ATOM      7  C   LIG    1        6.885  -1.191  -1.258  0.00  0.00    +0.042 A 
ATOM      8  C   LIG    1        5.499  -1.284  -1.147  0.00  0.00    +0.018 A 
ENDROOT
BRANCH   1  10
ATOM      9  O   LIG    1        2.673  -0.206   0.716  0.00  0.00    -0.270 OA
ATOM     10  C   LIG    1        3.349  -1.018   0.109  0.00  0.00    +0.249 C 
ATOM     11  N   LIG    1        2.785  -2.109  -0.539  0.00  0.00    -0.292 N 
ATOM     12  C   LIG    1        3.156  -3.532  -0.559  0.00  0.00    +0.146 C 
ATOM     13  C   LIG    1        1.783  -3.756  -1.293  0.00  0.00    +0.112 C 
ATOM     14  C   LIG    1        1.362  -2.449  -0.537  0.00  0.00    +0.146 C 
BRANCH  13  15
ATOM     15  C   LIG    1        1.925  -3.639  -2.849  0.00  0.00    +0.088 C 
ATOM     16  N   LIG    1        2.583  -4.803  -3.485  0.00  0.00    -0.310 NA
ATOM     17  H   LIG    1        2.959  -4.502  -4.385  0.00  0.00    +0.122 HD
ATOM     18  C   LIG    1        1.686  -5.933  -3.741  0.00  0.00    +0.081 C 
ATOM     19  C   LIG    1        0.453  -5.537  -4.549  0.00  0.00    +0.015 C 
ATOM     20  C   LIG    1       -0.306  -4.403  -3.878  0.00  0.00    +0.003 C 
ATOM     21  C   LIG    1        0.629  -3.240  -3.574  0.00  0.00    +0.021 C 
ENDBRANCH  13  15
BRANCH  13  22
ATOM     22  O   LIG    1        1.061  -4.949  -0.881  0.00  0.00    -0.384 OA
ATOM     23  H   LIG    1        0.140  -4.801  -1.148  0.00  0.00    +0.210 HD
ENDBRANCH  13  22
ENDBRANCH   1  10
BRANCH   2  24
ATOM     24  N   LIG    1        4.883   0.644   2.030  0.00  0.00    -0.309 N 
ATOM     25  H   LIG    1        3.864   0.495   2.008  0.00  0.00    +0.152 HD
BRANCH  24  26
ATOM     26  C   LIG    1        5.175   1.893   2.658  0.00  0.00    +0.067 A 
ATOM     27  C   LIG    1        4.280   2.405   3.621  0.00  0.00    +0.145 A 
ATOM     28  F   LIG    1        3.147   1.736   3.888  0.00  0.00    -0.203 F 
ATOM     29  C   LIG    1        4.507   3.606   4.305  0.00  0.00    +0.054 A 
ATOM     30  C   LIG    1        5.662   4.330   4.042  0.00  0.00    +0.016 A 
ATOM     31  I   LIG    1        6.027   6.132   5.011  0.00  0.00    -0.044 I 
ATOM     32  C   LIG    1        6.580   3.850   3.115  0.00  0.00    +0.016 A 
ATOM     33  C   LIG    1        6.336   2.644   2.437  0.00  0.00    +0.027 A 
ENDBRANCH  24  26
ENDBRANCH   2  24
TORSDOF 5
