REMARK  Name = *****
REMARK                            x       y       z     vdW  Elec       q    Type
REMARK                         _______ _______ _______ _____ _____    ______ ____
ROOT
ATOM      1  O   LIG    1        0.834   0.044  -0.376  0.00  0.00    -0.241 OA
ATOM      2  C   LIG    1        2.030   0.106  -0.155  0.00  0.00    +0.378 C 
ATOM      3  C   LIG    1        2.875   1.313  -0.193  0.00  0.00    +0.244 C 
ATOM      4  C   LIG    1        4.101   0.929   0.139  0.00  0.00    +0.186 C 
ATOM      5  C   LIG    1        4.168  -0.534   0.382  0.00  0.00    +0.276 C 
ATOM      6  O   LIG    1        2.810  -0.961   0.207  0.00  0.00    -0.445 OA
ENDROOT
BRANCH   3   7
ATOM      7  O   LIG    1        2.459   2.585  -0.460  0.00  0.00    -0.499 OA
ATOM      8  H   LIG    1        3.258   3.142  -0.390  0.00  0.00    +0.292 HD
ENDBRANCH   3   7
BRANCH   4   9
ATOM      9  O   LIG    1        5.178   1.763   0.298  0.00  0.00    -0.504 OA
ATOM     10  H   LIG    1        5.858   1.267   0.809  0.00  0.00    +0.292 HD
ENDBRANCH   4   9
BRANCH   5  11
ATOM     11  C   LIG    1        4.681  -0.866   1.791  0.00  0.00    +0.188 C 
BRANCH  11  12
ATOM     12  O   LIG    1        6.048  -0.411   1.901  0.00  0.00    -0.385 OA
ATOM     13  H   LIG    1        6.591  -1.181   1.624  0.00  0.00    +0.210 HD
ENDBRANCH  11  12
BRANCH  11  14
ATOM     14  C   LIG    1        4.640  -2.371   2.079  0.00  0.00    +0.191 C 
BRANCH  14  15
ATOM     15  O   LIG    1        5.590  -3.019   1.229  0.00  0.00    -0.392 OA
ATOM     16  H   LIG    1        5.468  -3.979   1.354  0.00  0.00    +0.209 HD
ENDBRANCH  14  15
ENDBRANCH  11  14
ENDBRANCH   5  11
TORSDOF 6
