REMARK  Name = *****
REMARK                            x       y       z     vdW  Elec       q    Type
REMARK                         _______ _______ _______ _____ _____    ______ ____
ROOT
ATOM      1  C   LIG    1        5.497  -9.175  -2.990  0.00  0.00    +0.210 C 
ATOM      2  C   LIG    1        5.935 -10.336  -1.970  0.00  0.00    +0.126 C 
ATOM      3  C   LIG    1        4.831 -11.404  -1.812  0.00  0.00    +0.048 C 
ATOM      4  C   LIG    1        6.438  -9.869  -0.523  0.00  0.00    +0.160 C 
ATOM      5  C   LIG    1        7.893  -9.331  -0.378  0.00  0.00    +0.035 C 
ATOM      6  C   LIG    1        8.978 -10.368  -0.776  0.00  0.00    +0.012 C 
ATOM      7  C   LIG    1        8.040  -8.864   1.115  0.00  0.00    +0.064 C 
ATOM      8  N   LIG    1        7.919 -10.044   1.975  0.00  0.00    -0.286 NA
ATOM      9  H   LIG    1        7.965  -9.786   2.960  0.00  0.00    +0.125 HD
ATOM     10  C   LIG    1        6.644 -10.711   1.794  0.00  0.00    +0.213 C 
ATOM     11  C   LIG    1        9.321  -7.993   1.382  0.00  0.00    +0.006 C 
ATOM     12  C   LIG    1       10.034  -8.297   2.724  0.00  0.00    +0.009 C 
ATOM     13  C   LIG    1        8.980  -6.425   1.318  0.00  0.00    +0.042 C 
ATOM     14  C   LIG    1        9.628  -5.561   0.187  0.00  0.00    +0.090 C 
ATOM     15  C   LIG    1       10.468  -4.395   0.788  0.00  0.00    +0.044 C 
ATOM     16  C   LIG    1        8.635  -4.871  -1.020  0.00  0.00    +0.158 C 
ATOM     17  C   LIG    1        9.125  -5.500  -2.401  0.00  0.00    +0.047 C 
ATOM     18  C   LIG    1       10.597  -5.035  -2.632  0.00  0.00    +0.013 C 
ATOM     19  C   LIG    1        8.376  -5.426  -3.817  0.00  0.00    +0.140 C 
ATOM     20  C   LIG    1        8.158  -6.861  -4.423  0.00  0.00    +0.124 C 
ATOM     21  C   LIG    1        9.225  -7.912  -4.126  0.00  0.00    +0.022 C 
ATOM     22  C   LIG    1        6.730  -7.476  -4.250  0.00  0.00    +0.313 C 
ATOM     23  O   LIG    1        5.929  -7.462  -5.123  0.00  0.00    -0.250 OA
ATOM     24  O   LIG    1        6.320 -10.976   0.408  0.00  0.00    -0.353 OA
ATOM     25  O   LIG    1        6.544  -8.119  -3.034  0.00  0.00    -0.458 OA
ENDROOT
BRANCH   1  27
ATOM     26  C   LIG    1        2.866  -9.504  -2.831  0.00  0.00    +0.007 C 
ATOM     27  C   LIG    1        4.075  -8.557  -2.803  0.00  0.00    +0.044 C 
ENDBRANCH   1  27
BRANCH  14  28
ATOM     28  O   LIG    1       10.609  -6.453  -0.388  0.00  0.00    -0.386 OA
ATOM     29  H   LIG    1       11.368  -6.542   0.214  0.00  0.00    +0.210 HD
ENDBRANCH  14  28
BRANCH   2  30
ATOM     30  O   LIG    1        6.978 -11.066  -2.648  0.00  0.00    -0.383 OA
ATOM     31  H   LIG    1        7.224 -11.801  -2.056  0.00  0.00    +0.210 HD
ENDBRANCH   2  30
BRANCH  16  32
ATOM     32  O   LIG    1        7.198  -4.938  -0.711  0.00  0.00    -0.342 OA
BRANCH  32  33
ATOM     33  C   LIG    1        6.360  -3.988  -1.449  0.00  0.00    +0.281 C 
ATOM     34  C   LIG    1        4.800  -4.338  -1.548  0.00  0.00    +0.187 C 
ATOM     35  C   LIG    1        3.830  -3.544  -0.563  0.00  0.00    +0.092 C 
ATOM     36  C   LIG    1        4.641  -2.417   0.088  0.00  0.00    +0.053 C 
ATOM     37  C   LIG    1        5.496  -1.784  -0.999  0.00  0.00    +0.120 C 
ATOM     38  C   LIG    1        5.936  -0.369  -0.664  0.00  0.00    +0.038 C 
ATOM     39  O   LIG    1        6.652  -2.609  -1.152  0.00  0.00    -0.346 OA
BRANCH  35  40
ATOM     40  N   LIG    1        2.953  -4.294   0.397  0.00  0.00    -0.303 NA
ATOM     41  C   LIG    1        3.680  -5.027   1.431  0.00  0.00    +0.105 C 
ATOM     42  C   LIG    1        1.950  -3.420   1.046  0.00  0.00    +0.105 C 
ENDBRANCH  35  40
BRANCH  34  43
ATOM     43  O   LIG    1        4.448  -3.908  -2.913  0.00  0.00    -0.385 OA
ATOM     44  H   LIG    1        3.508  -4.091  -3.076  0.00  0.00    +0.210 HD
ENDBRANCH  34  43
ENDBRANCH  32  33
ENDBRANCH  16  32
BRANCH  19  45
ATOM     45  O   LIG    1        9.162  -4.537  -4.708  0.00  0.00    -0.347 OA
BRANCH  45  46
ATOM     46  C   LIG    1        8.600  -4.036  -5.948  0.00  0.00    +0.254 C 
ATOM     47  O   LIG    1        8.463  -5.106  -6.864  0.00  0.00    -0.346 OA
ATOM     48  C   LIG    1        8.018  -4.808  -8.188  0.00  0.00    +0.150 C 
ATOM     49  C   LIG    1        6.532  -4.478  -8.275  0.00  0.00    +0.040 C 
ATOM     50  C   LIG    1        8.993  -3.823  -8.850  0.00  0.00    +0.175 C 
ATOM     51  C   LIG    1        9.241  -2.533  -8.005  0.00  0.00    +0.099 C 
ATOM     52  C   LIG    1        8.048  -1.570  -8.166  0.00  0.00    +0.044 C 
ATOM     53  C   LIG    1        9.534  -2.936  -6.532  0.00  0.00    +0.098 C 
BRANCH  51  54
ATOM     54  O   LIG    1       10.397  -1.866  -8.587  0.00  0.00    -0.374 OA
ATOM     55  C   LIG    1       10.830  -0.661  -7.966  0.00  0.00    +0.195 C 
ENDBRANCH  51  54
BRANCH  50  56
ATOM     56  O   LIG    1       10.236  -4.548  -9.005  0.00  0.00    -0.386 OA
ATOM     57  H   LIG    1       10.423  -4.966  -8.144  0.00  0.00    +0.210 HD
ENDBRANCH  50  56
ENDBRANCH  45  46
ENDBRANCH  19  45
BRANCH  10  58
ATOM     58  C   LIG    1        5.455 -10.075   2.577  0.00  0.00    +0.207 C 
BRANCH  58  59
ATOM     59  O   LIG    1        5.400 -10.281   3.998  0.00  0.00    -0.374 OA
BRANCH  59  60
ATOM     60  C   LIG    1        4.160  -9.892   4.649  0.00  0.00    +0.188 C 
BRANCH  60  61
ATOM     61  C   LIG    1        2.954 -10.882   4.662  0.00  0.00    +0.187 C 
BRANCH  61  62
ATOM     62  O   LIG    1        2.266 -11.107   3.428  0.00  0.00    -0.381 OA
ATOM     63  C   LIG    1        3.014 -11.839   2.480  0.00  0.00    +0.194 C 
ENDBRANCH  61  62
ENDBRANCH  60  61
ENDBRANCH  59  60
ENDBRANCH  58  59
ENDBRANCH  10  58
TORSDOF 16
