REMARK  Name = *****
REMARK                            x       y       z     vdW  Elec       q    Type
REMARK                         _______ _______ _______ _____ _____    ______ ____
ROOT
ATOM      1  C   LIG    1        4.994  -2.325  -0.218  0.00  0.00    +0.161 C 
ENDROOT
BRANCH   1   2
ATOM      2  C   LIG    1        4.161  -3.570  -0.468  0.00  0.00    -0.018 A 
ATOM      3  C   LIG    1        4.423  -4.381  -1.583  0.00  0.00    +0.010 A 
ATOM      4  C   LIG    1        3.667  -5.529  -1.823  0.00  0.00    +0.046 A 
ATOM      5  C   LIG    1        2.642  -5.875  -0.947  0.00  0.00    +0.117 A 
ATOM      6  C   LIG    1        2.361  -5.087   0.162  0.00  0.00    +0.046 A 
ATOM      7  C   LIG    1        3.118  -3.937   0.402  0.00  0.00    +0.010 A 
BRANCH   5   8
ATOM      8  O   LIG    1        1.932  -7.005  -1.220  0.00  0.00    -0.507 OA
ATOM      9  H   LIG    1        1.275  -7.137  -0.516  0.00  0.00    +0.292 HD
ENDBRANCH   5   8
ENDBRANCH   1   2
BRANCH   1  10
ATOM     10  C   LIG    1        5.841  -2.366   1.095  0.00  0.00    +0.083 C 
ATOM     11  C   LIG    1        6.785  -3.572   1.141  0.00  0.00    +0.027 C 
BRANCH  10  13
ATOM     12  C   LIG    1        7.649  -0.792   0.461  0.00  0.00    +0.101 C 
ATOM     13  N   LIG    1        6.567  -1.102   1.386  0.00  0.00    -0.314 NA
ATOM     14  H   LIG    1        5.876  -0.348   1.336  0.00  0.00    +0.122 HD
ENDBRANCH  10  13
ENDBRANCH   1  10
BRANCH   1  15
ATOM     15  O   LIG    1        4.116  -1.188  -0.183  0.00  0.00    -0.386 OA
ATOM     16  H   LIG    1        3.399  -1.369  -0.817  0.00  0.00    +0.210 HD
ENDBRANCH   1  15
TORSDOF 5
