REMARK  Name = *****
REMARK                            x       y       z     vdW  Elec       q    Type
REMARK                         _______ _______ _______ _____ _____    ______ ____
ROOT
ATOM      1  C   LIG    1        5.206  -1.058  -0.258  0.00  0.00    +0.075 A 
ATOM      2  N   LIG    1        6.113  -2.095  -0.531  0.00  0.00    -0.232 N 
ATOM      3  N   LIG    1        7.336  -1.609  -0.888  0.00  0.00    -0.162 NA
ATOM      4  C   LIG    1        7.284  -0.288  -0.658  0.00  0.00    +0.166 A 
ATOM      5  C   LIG    1        5.978   0.095  -0.284  0.00  0.00    +0.062 A 
ENDROOT
BRANCH   1  10
ATOM      6  C   LIG    1       -0.558  -1.353   0.525  0.00  0.00    +0.044 C 
ATOM      7  C   LIG    1        0.928  -1.273   0.338  0.00  0.00    -0.050 A 
ATOM      8  C   LIG    1        1.589  -2.252  -0.404  0.00  0.00    +0.004 A 
ATOM      9  C   LIG    1        2.964  -2.157  -0.641  0.00  0.00    +0.010 A 
ATOM     10  C   LIG    1        3.739  -1.141  -0.067  0.00  0.00    +0.001 A 
ATOM     11  C   LIG    1        3.058  -0.150   0.661  0.00  0.00    +0.010 A 
ATOM     12  C   LIG    1        1.668  -0.202   0.842  0.00  0.00    +0.004 A 
ENDBRANCH   1  10
BRANCH   2  13
ATOM     13  C   LIG    1        5.962  -3.516  -0.443  0.00  0.00    +0.066 A 
ATOM     14  C   LIG    1        5.046  -4.089   0.448  0.00  0.00    +0.029 A 
ATOM     15  C   LIG    1        4.866  -5.473   0.487  0.00  0.00    +0.030 A 
ATOM     16  C   LIG    1        5.645  -6.296  -0.328  0.00  0.00    +0.105 A 
ATOM     17  C   LIG    1        6.593  -5.746  -1.194  0.00  0.00    +0.030 A 
ATOM     18  C   LIG    1        6.757  -4.356  -1.246  0.00  0.00    +0.029 A 
BRANCH  16  19
ATOM     19  S   LIG    1        5.388  -8.051  -0.272  0.00  0.00    +0.056 S 
ATOM     20  O   LIG    1        5.844  -8.621  -1.520  0.00  0.00    -0.153 OA
ATOM     21  O   LIG    1        4.072  -8.301   0.261  0.00  0.00    -0.153 OA
BRANCH  19  22
ATOM     22  N   LIG    1        6.468  -8.512   0.932  0.00  0.00    -0.203 NA
ATOM     23  H   LIG    1        7.120  -7.781   1.202  0.00  0.00    +0.144 HD
ATOM     24  H   LIG    1        5.937  -8.872   1.732  0.00  0.00    +0.144 HD
ENDBRANCH  19  22
ENDBRANCH  16  19
ENDBRANCH   2  13
BRANCH   4  25
ATOM     25  C   LIG    1        8.472   0.624  -0.826  0.00  0.00    +0.436 C 
ATOM     26  F   LIG    1        9.031   0.538  -2.062  0.00  0.00    -0.164 F 
ATOM     27  F   LIG    1        9.455   0.364   0.077  0.00  0.00    -0.164 F 
ATOM     28  F   LIG    1        8.132   1.932  -0.649  0.00  0.00    -0.164 F 
ENDBRANCH   4  25
TORSDOF 5
