REMARK  Name = *****
REMARK                            x       y       z     vdW  Elec       q    Type
REMARK                         _______ _______ _______ _____ _____    ______ ____
ROOT
ATOM      1  C   LIG    1        6.880  -3.985   3.796  0.00  0.00    +0.213 C 
ENDROOT
BRANCH   1   2
ATOM      2  C   LIG    1        7.721  -5.242   3.512  0.00  0.00    -0.001 A 
ATOM      3  C   LIG    1        9.068  -5.330   3.915  0.00  0.00    +0.007 A 
ATOM      4  C   LIG    1        9.832  -6.473   3.660  0.00  0.00    +0.000 A 
ATOM      5  C   LIG    1        9.267  -7.554   2.991  0.00  0.00    +0.000 A 
ATOM      6  C   LIG    1        7.942  -7.489   2.572  0.00  0.00    +0.000 A 
ATOM      7  C   LIG    1        7.175  -6.348   2.833  0.00  0.00    +0.007 A 
ENDBRANCH   1   2
BRANCH   1   8
ATOM      8  C   LIG    1        5.741  -4.251   4.813  0.00  0.00    -0.001 A 
ATOM      9  C   LIG    1        5.995  -4.190   6.200  0.00  0.00    +0.007 A 
ATOM     10  C   LIG    1        4.979  -4.402   7.139  0.00  0.00    +0.000 A 
ATOM     11  C   LIG    1        3.689  -4.699   6.713  0.00  0.00    +0.000 A 
ATOM     12  C   LIG    1        3.420  -4.798   5.350  0.00  0.00    +0.000 A 
ATOM     13  C   LIG    1        4.436  -4.585   4.409  0.00  0.00    +0.007 A 
ENDBRANCH   1   8
BRANCH   1  14
ATOM     14  C   LIG    1        6.363  -3.312   2.466  0.00  0.00    +0.349 C 
ATOM     15  O   LIG    1        6.045  -3.864   1.414  0.00  0.00    -0.247 OA
BRANCH  14  16
ATOM     16  O   LIG    1        6.248  -1.953   2.651  0.00  0.00    -0.454 OA
BRANCH  16  20
ATOM     17  C   LIG    1        4.629   2.462   1.381  0.00  0.00    +0.192 C 
ATOM     18  N   LIG    1        5.176   1.166   0.764  0.00  0.00    +0.242 N 
ATOM     19  C   LIG    1        5.253   0.102   1.872  0.00  0.00    +0.178 C 
ATOM     20  C   LIG    1        6.010  -1.169   1.459  0.00  0.00    +0.221 C 
ATOM     21  C   LIG    1        7.367  -0.846   0.832  0.00  0.00    +0.055 C 
ATOM     22  C   LIG    1        7.258   0.188  -0.279  0.00  0.00    +0.055 C 
ATOM     23  C   LIG    1        6.570   1.460   0.197  0.00  0.00    +0.133 C 
ATOM     24  C   LIG    1        4.204   0.743  -0.339  0.00  0.00    +0.192 C 
ENDBRANCH  16  20
ENDBRANCH  14  16
ENDBRANCH   1  14
BRANCH   1  25
ATOM     25  O   LIG    1        7.747  -2.987   4.388  0.00  0.00    -0.370 OA
ATOM     26  H   LIG    1        7.227  -2.165   4.397  0.00  0.00    +0.212 HD
ENDBRANCH   1  25
TORSDOF 6
