REMARK  Name = *****
REMARK                            x       y       z     vdW  Elec       q    Type
REMARK                         _______ _______ _______ _____ _____    ______ ____
ROOT
ATOM      1  C   LIG    1        2.330  -0.325  -1.034  0.00  0.00    +0.015 A 
ATOM      2  C   LIG    1        1.583   0.838  -1.272  0.00  0.00    +0.043 A 
ATOM      3  C   LIG    1        0.217   0.800  -0.959  0.00  0.00    +0.067 A 
ATOM      4  C   LIG    1       -0.416  -0.323  -0.440  0.00  0.00    +0.027 A 
ATOM      5  C   LIG    1       -1.791   0.046  -0.332  0.00  0.00    +0.093 A 
ATOM      6  N   LIG    1       -1.983   1.322  -0.697  0.00  0.00    -0.173 NA
ATOM      7  C   LIG    1        0.355  -1.471  -0.173  0.00  0.00    +0.013 A 
ATOM      8  N   LIG    1       -0.765   1.746  -1.061  0.00  0.00    -0.276 N 
ATOM      9  H   LIG    1       -0.671   2.703  -1.381  0.00  0.00    +0.189 HD
ATOM     10  C   LIG    1        1.725  -1.452  -0.467  0.00  0.00    +0.016 A 
ENDROOT
BRANCH   5  11
ATOM     11  C   LIG    1       -2.841  -0.829   0.094  0.00  0.00    +0.032 C 
ATOM     12  C   LIG    1       -4.135  -0.479   0.177  0.00  0.00    +0.030 C 
BRANCH  12  13
ATOM     13  C   LIG    1       -5.179  -1.399   0.625  0.00  0.00    +0.064 A 
ATOM     14  N   LIG    1       -4.976  -2.719   0.403  0.00  0.00    -0.256 NA
ATOM     15  C   LIG    1       -5.943  -3.568   0.809  0.00  0.00    +0.111 A 
ATOM     16  C   LIG    1       -7.103  -3.165   1.449  0.00  0.00    +0.020 A 
ATOM     17  C   LIG    1       -7.289  -1.806   1.677  0.00  0.00    +0.004 A 
ATOM     18  C   LIG    1       -6.319  -0.905   1.250  0.00  0.00    +0.028 A 
ENDBRANCH  12  13
ENDBRANCH   5  11
BRANCH   1  19
ATOM     19  S   LIG    1        4.086  -0.342  -1.349  0.00  0.00    -0.089 S 
BRANCH  19  21
ATOM     20  C   LIG    1        4.793  -0.142  -4.097  0.00  0.00    +0.050 A 
ATOM     21  C   LIG    1        4.191  -0.886  -3.060  0.00  0.00    +0.025 A 
ATOM     22  C   LIG    1        3.695  -2.171  -3.357  0.00  0.00    +0.016 A 
ATOM     23  C   LIG    1        3.753  -2.696  -4.650  0.00  0.00    +0.001 A 
ATOM     24  C   LIG    1        4.344  -1.963  -5.669  0.00  0.00    +0.001 A 
ATOM     25  C   LIG    1        4.864  -0.698  -5.393  0.00  0.00    +0.014 A 
BRANCH  20  29
ATOM     26  C   LIG    1        6.582   2.815  -2.481  0.00  0.00    +0.128 C 
ATOM     27  N   LIG    1        5.943   1.551  -2.745  0.00  0.00    -0.314 N 
ATOM     28  H   LIG    1        5.773   0.933  -1.960  0.00  0.00    +0.149 HD
ATOM     29  C   LIG    1        5.397   1.226  -3.966  0.00  0.00    +0.245 C 
ATOM     30  O   LIG    1        5.431   1.976  -4.931  0.00  0.00    -0.270 OA
ENDBRANCH  20  29
ENDBRANCH  19  21
ENDBRANCH   1  19
TORSDOF 5
