REMARK  Name = *****
REMARK                            x       y       z     vdW  Elec       q    Type
REMARK                         _______ _______ _______ _____ _____    ______ ____
ROOT
ATOM      1  C   LIG    1        1.902  -3.760   4.117  0.00  0.00    +0.238 C 
ATOM      2  C   LIG    1        3.181  -4.618   4.407  0.00  0.00    +0.152 C 
ATOM      3  C   LIG    1        2.858  -5.378   5.760  0.00  0.00    +0.086 C 
ATOM      4  C   LIG    1        2.966  -4.763   7.245  0.00  0.00    +0.006 C 
ATOM      5  C   LIG    1        2.522  -3.288   7.299  0.00  0.00    +0.009 C 
ATOM      6  C   LIG    1        4.271  -4.864   8.132  0.00  0.00    +0.009 C 
ATOM      7  C   LIG    1        4.947  -6.232   8.294  0.00  0.00    -0.000 C 
ATOM      8  C   LIG    1        6.470  -6.371   8.258  0.00  0.00    -0.028 C 
ATOM      9  C   LIG    1        7.072  -7.372   9.220  0.00  0.00    +0.011 C 
ATOM     10  C   LIG    1        7.395  -5.215   7.971  0.00  0.00    +0.011 C 
ATOM     11  C   LIG    1        5.640  -6.939   7.121  0.00  0.00    +0.013 C 
ATOM     12  C   LIG    1        5.195  -6.297   5.865  0.00  0.00    +0.083 C 
ATOM     13  C   LIG    1        5.924  -6.141   4.587  0.00  0.00    -0.012 C 
ATOM     14  C   LIG    1        5.705  -5.016   3.847  0.00  0.00    -0.017 C 
ATOM     15  C   LIG    1        3.709  -6.629   5.698  0.00  0.00    +0.153 C 
ATOM     16  O   LIG    1        3.272  -7.777   5.644  0.00  0.00    -0.296 OA
ATOM     17  C   LIG    1        1.372  -5.602   5.524  0.00  0.00    -0.007 C 
ATOM     18  C   LIG    1        4.603  -3.964   4.244  0.00  0.00    +0.179 C 
ATOM     19  C   LIG    1        0.841  -4.691   4.688  0.00  0.00    -0.033 C 
ATOM     20  C   LIG    1       -0.613  -4.561   4.398  0.00  0.00    +0.043 C 
ENDROOT
BRANCH   2  21
ATOM     21  O   LIG    1        3.159  -5.630   3.314  0.00  0.00    -0.380 OA
ATOM     22  H   LIG    1        3.145  -5.090   2.503  0.00  0.00    +0.210 HD
ENDBRANCH   2  21
BRANCH  18  23
ATOM     23  O   LIG    1        4.552  -2.936   3.256  0.00  0.00    -0.384 OA
ATOM     24  H   LIG    1        5.433  -2.512   3.258  0.00  0.00    +0.210 HD
ENDBRANCH  18  23
BRANCH   1  25
ATOM     25  O   LIG    1        1.796  -3.607   2.686  0.00  0.00    -0.451 OA
BRANCH  25  26
ATOM     26  C   LIG    1        0.945  -2.673   2.204  0.00  0.00    +0.335 C 
ATOM     27  O   LIG    1        0.166  -2.011   2.858  0.00  0.00    -0.245 OA
BRANCH  26  30
ATOM     28  C   LIG    1        2.100  -4.753   0.105  0.00  0.00    +0.035 C 
ATOM     29  C   LIG    1        1.720  -3.327  -0.130  0.00  0.00    -0.020 C 
ATOM     30  C   LIG    1        1.185  -2.447   0.739  0.00  0.00    +0.029 C 
ATOM     31  C   LIG    1        0.793  -1.066   0.289  0.00  0.00    +0.051 C 
ENDBRANCH  26  30
ENDBRANCH  25  26
ENDBRANCH   1  25
BRANCH  14  32
ATOM     32  C   LIG    1        6.429  -4.848   2.543  0.00  0.00    +0.189 C 
BRANCH  32  33
ATOM     33  O   LIG    1        7.635  -4.144   2.802  0.00  0.00    -0.391 OA
ATOM     34  H   LIG    1        8.255  -4.401   2.097  0.00  0.00    +0.210 HD
ENDBRANCH  32  33
ENDBRANCH  14  32
TORSDOF 7
