REMARK  Name = *****
REMARK                            x       y       z     vdW  Elec       q    Type
REMARK                         _______ _______ _______ _____ _____    ______ ____
ROOT
ATOM      1  C   LIG    1        4.332  -0.941  -0.732  0.00  0.00    -0.008 A 
ATOM      2  S   LIG    1        3.955  -2.147  -1.877  0.00  0.00    -0.078 S 
ATOM      3  C   LIG    1        3.878  -1.022  -3.160  0.00  0.00    +0.084 A 
ATOM      4  N   LIG    1        3.649  -1.524  -4.447  0.00  0.00    -0.267 N 
ATOM      5  C   LIG    1        4.135  -0.825  -5.560  0.00  0.00    +0.241 C 
ATOM      6  C   LIG    1        5.053   0.364  -5.296  0.00  0.00    +0.238 C 
ATOM      7  N   LIG    1        4.298   1.500  -4.776  0.00  0.00    -0.273 NA
ATOM      8  C   LIG    1        3.840   1.455  -3.570  0.00  0.00    +0.077 C 
ATOM      9  O   LIG    1        3.927  -1.193  -6.720  0.00  0.00    -0.273 OA
ATOM     10  C   LIG    1        2.999  -2.804  -4.706  0.00  0.00    +0.139 C 
ATOM     11  C   LIG    1        4.037   0.283  -2.718  0.00  0.00    +0.029 A 
ATOM     12  C   LIG    1        4.368   0.308  -1.316  0.00  0.00    +0.023 A 
ENDROOT
BRANCH   8  13
ATOM     13  C   LIG    1        3.126   2.666  -3.050  0.00  0.00    +0.019 A 
ATOM     14  C   LIG    1        2.013   2.653  -2.195  0.00  0.00    +0.050 A 
ATOM     15 CL   LIG    1        1.208   1.217  -1.667  0.00  0.00    -0.083 Cl
ATOM     16  C   LIG    1        1.433   3.863  -1.782  0.00  0.00    +0.021 A 
ATOM     17  C   LIG    1        1.918   5.084  -2.250  0.00  0.00    +0.002 A 
ATOM     18  C   LIG    1        2.989   5.106  -3.135  0.00  0.00    +0.001 A 
ATOM     19  C   LIG    1        3.590   3.909  -3.527  0.00  0.00    +0.011 A 
ENDBRANCH   8  13
BRANCH   1  21
ATOM     20  C   LIG    1        3.249  -1.243   1.500  0.00  0.00    +0.009 C 
ATOM     21  C   LIG    1        4.547  -1.306   0.706  0.00  0.00    +0.039 C 
ENDBRANCH   1  21
TORSDOF 2
