REMARK  Name = *****
REMARK                            x       y       z     vdW  Elec       q    Type
REMARK                         _______ _______ _______ _____ _____    ______ ____
ROOT
ATOM      1  C   LIG    1        3.059   0.852  -1.238  0.00  0.00    +0.023 C 
ENDROOT
BRANCH   1   2
ATOM      2  C   LIG    1        2.882   2.350  -1.503  0.00  0.00    -0.041 A 
ATOM      3  C   LIG    1        3.338   3.334  -0.610  0.00  0.00    +0.049 A 
ATOM      4  C   LIG    1        3.122   4.691  -0.887  0.00  0.00    +0.117 A 
ATOM      5  C   LIG    1        2.473   5.092  -2.046  0.00  0.00    +0.045 A 
ATOM      6  C   LIG    1        2.020   4.127  -2.942  0.00  0.00    +0.004 A 
ATOM      7  C   LIG    1        2.223   2.767  -2.670  0.00  0.00    +0.004 A 
BRANCH   4   8
ATOM      8  O   LIG    1        3.572   5.605   0.015  0.00  0.00    -0.507 OA
ATOM      9  H   LIG    1        3.316   6.492  -0.281  0.00  0.00    +0.292 HD
ENDBRANCH   4   8
ENDBRANCH   1   2
BRANCH   1  11
ATOM     10  C   LIG    1        0.910   0.613   0.172  0.00  0.00    +0.004 C 
ATOM     11  C   LIG    1        2.427   0.464   0.131  0.00  0.00    +0.005 C 
ENDBRANCH   1  11
BRANCH   1  12
ATOM     12  C   LIG    1        4.550   0.358  -1.341  0.00  0.00    +0.007 C 
ATOM     13  C   LIG    1        4.606  -1.185  -1.351  0.00  0.00    +0.009 C 
BRANCH  12  14
ATOM     14  C   LIG    1        5.300   0.919  -2.591  0.00  0.00    +0.087 C 
BRANCH  14  15
ATOM     15  N   LIG    1        6.683   0.425  -2.798  0.00  0.00    -0.308 NA
ATOM     16  C   LIG    1        7.563   0.698  -1.661  0.00  0.00    +0.104 C 
ATOM     17  C   LIG    1        7.257   1.036  -4.004  0.00  0.00    +0.104 C 
ENDBRANCH  14  15
ENDBRANCH  12  14
ENDBRANCH   1  12
TORSDOF 6
