REMARK  Name = *****
REMARK                            x       y       z     vdW  Elec       q    Type
REMARK                         _______ _______ _______ _____ _____    ______ ____
ROOT
ATOM      1  C   LIG    1        3.131   0.542   1.139  0.00  0.00    +0.121 A 
ATOM      2  C   LIG    1        3.743  -0.575   1.718  0.00  0.00    +0.054 A 
ATOM      3  C   LIG    1        4.518  -0.459   2.886  0.00  0.00    -0.014 A 
ATOM      4  C   LIG    1        4.673   0.808   3.487  0.00  0.00    -0.017 A 
ATOM      5  C   LIG    1        5.442   0.932   4.659  0.00  0.00    +0.012 A 
ATOM      6  C   LIG    1        6.060  -0.182   5.243  0.00  0.00    -0.046 A 
ATOM      7  C   LIG    1        5.909  -1.433   4.636  0.00  0.00    +0.004 A 
ATOM      8  C   LIG    1        4.053   1.921   2.901  0.00  0.00    +0.012 A 
ATOM      9  C   LIG    1        5.142  -1.571   3.474  0.00  0.00    +0.009 A 
ATOM     10  C   LIG    1        3.291   1.790   1.736  0.00  0.00    +0.046 A 
ENDROOT
BRANCH   1  12
ATOM     11  C   LIG    1        1.800   1.409  -0.626  0.00  0.00    +0.277 C 
ATOM     12  O   LIG    1        2.410   0.288   0.003  0.00  0.00    -0.495 OA
ENDBRANCH   1  12
BRANCH   6  13
ATOM     13  C   LIG    1        6.852  -0.040   6.521  0.00  0.00    +0.042 C 
BRANCH  13  14
ATOM     14  C   LIG    1        8.328   0.285   6.292  0.00  0.00    +0.079 C 
BRANCH  14  15
ATOM     15  C   LIG    1        9.077   0.369   7.613  0.00  0.00    +0.131 C 
ATOM     16  O   LIG    1        8.526   0.213   8.698  0.00  0.00    -0.298 OA
ATOM     17  C   LIG    1       10.553   0.670   7.536  0.00  0.00    +0.086 C 
ENDBRANCH  14  15
ENDBRANCH  13  14
ENDBRANCH   6  13
TORSDOF 4
