REMARK  Name = *****
REMARK                            x       y       z     vdW  Elec       q    Type
REMARK                         _______ _______ _______ _____ _____    ______ ____
ROOT
ATOM      1  C   LIG    1        2.894  -0.363  -1.590  0.00  0.00    -0.014 C 
ATOM      2  C   LIG    1        4.330  -0.923  -1.795  0.00  0.00    +0.012 C 
ATOM      3  C   LIG    1        4.575  -1.290  -3.271  0.00  0.00    -0.010 C 
ATOM      4  C   LIG    1        4.401  -0.039  -4.145  0.00  0.00    +0.007 C 
ATOM      5  C   LIG    1        2.975   0.512  -3.992  0.00  0.00    -0.010 C 
ATOM      6  C   LIG    1        1.964  -0.558  -4.425  0.00  0.00    +0.007 C 
ATOM      7  C   LIG    1        2.129  -1.812  -3.555  0.00  0.00    -0.010 C 
ATOM      8  C   LIG    1        3.558  -2.356  -3.708  0.00  0.00    +0.007 C 
ATOM      9  C   LIG    1        2.732   0.878  -2.518  0.00  0.00    +0.012 C 
ATOM     10  C   LIG    1        1.885  -1.446  -2.082  0.00  0.00    +0.012 C 
ENDROOT
BRANCH   1  12
ATOM     11  C   LIG    1        3.478   1.145   0.461  0.00  0.00    +0.024 C 
ATOM     12  C   LIG    1        2.591   0.028  -0.101  0.00  0.00    +0.054 C 
BRANCH  12  13
ATOM     13  N   LIG    1        2.688  -1.097   0.836  0.00  0.00    -0.327 NA
ATOM     14  H   LIG    1        2.057  -1.846   0.560  0.00  0.00    +0.118 HD
ATOM     15  H   LIG    1        3.628  -1.487   0.824  0.00  0.00    +0.118 HD
ENDBRANCH  12  13
ENDBRANCH   1  12
TORSDOF 2
