REMARK  Name = *****
REMARK                            x       y       z     vdW  Elec       q    Type
REMARK                         _______ _______ _______ _____ _____    ______ ____
ROOT
ATOM      1  C   LIG    1        4.829  -3.086  -0.227  0.00  0.00    +0.076 C 
ATOM      2  C   LIG    1        4.940  -4.447   0.480  0.00  0.00    +0.137 C 
ATOM      3  C   LIG    1        4.003  -5.410  -0.253  0.00  0.00    +0.130 C 
ATOM      4  C   LIG    1        2.907  -4.516  -0.876  0.00  0.00    +0.058 C 
ATOM      5  C   LIG    1        3.305  -3.058  -0.567  0.00  0.00    +0.153 C 
ENDROOT
BRANCH   2   6
ATOM      6  O   LIG    1        6.254  -4.973   0.482  0.00  0.00    -0.391 OA
ATOM      7  H   LIG    1        6.782  -4.407   1.077  0.00  0.00    +0.210 HD
ENDBRANCH   2   6
BRANCH   3   8
ATOM      8  C   LIG    1        3.428  -6.418   0.711  0.00  0.00    +0.310 C 
ATOM      9  O   LIG    1        2.397  -6.274   1.333  0.00  0.00    -0.251 OA
BRANCH   8  10
ATOM     10  O   LIG    1        4.203  -7.526   0.838  0.00  0.00    -0.480 OA
ATOM     11  H   LIG    1        5.033  -7.498   0.326  0.00  0.00    +0.295 HD
ENDBRANCH   8  10
ENDBRANCH   3   8
BRANCH   5  12
ATOM     12  N   LIG    1        2.507  -2.581   0.564  0.00  0.00    -0.273 N 
ATOM     13  H   LIG    1        2.033  -3.291   1.120  0.00  0.00    +0.258 HD
BRANCH  12  14
ATOM     14  C   LIG    1        2.598  -1.371   1.154  0.00  0.00    +0.376 C 
ATOM     15  N   LIG    1        3.326  -0.377   0.804  0.00  0.00    -0.130 NA
ATOM     16  H   LIG    1        3.840  -0.614  -0.041  0.00  0.00    +0.306 HD
BRANCH  14  17
ATOM     17  N   LIG    1        1.825  -1.253   2.248  0.00  0.00    -0.289 N 
ATOM     18  H   LIG    1        1.889  -0.297   2.589  0.00  0.00    +0.255 HD
ATOM     19  H   LIG    1        0.854  -1.491   2.089  0.00  0.00    +0.255 HD
ENDBRANCH  14  17
ENDBRANCH  12  14
ENDBRANCH   5  12
BRANCH   1  20
ATOM     20  C   LIG    1        5.790  -2.798  -1.447  0.00  0.00    +0.085 C 
BRANCH  20  21
ATOM     21  N   LIG    1        5.598  -3.834  -2.461  0.00  0.00    -0.312 N 
ATOM     22  H   LIG    1        6.018  -4.738  -2.268  0.00  0.00    +0.149 HD
ATOM     23  C   LIG    1        4.959  -3.805  -3.663  0.00  0.00    +0.210 C 
ATOM     24  O   LIG    1        4.933  -4.836  -4.335  0.00  0.00    -0.276 OA
ATOM     25  C   LIG    1        4.326  -2.535  -4.163  0.00  0.00    +0.109 C 
ENDBRANCH  20  21
BRANCH  20  26
ATOM     26  C   LIG    1        7.349  -2.623  -1.135  0.00  0.00    +0.009 C 
BRANCH  26  28
ATOM     27  C   LIG    1        9.082  -1.374   0.421  0.00  0.00    +0.004 C 
ATOM     28  C   LIG    1        7.623  -1.549  -0.033  0.00  0.00    +0.002 C 
ENDBRANCH  26  28
BRANCH  26  29
ATOM     29  C   LIG    1        8.188  -2.183  -2.379  0.00  0.00    +0.002 C 
ATOM     30  C   LIG    1        8.161  -3.014  -3.647  0.00  0.00    +0.004 C 
ENDBRANCH  26  29
ENDBRANCH  20  26
ENDBRANCH   1  20
TORSDOF 11
