REMARK  Name = *****
REMARK                            x       y       z     vdW  Elec       q    Type
REMARK                         _______ _______ _______ _____ _____    ______ ____
ROOT
ATOM      1  N   LIG    1        5.274  -2.565   2.873  0.00  0.00    -0.300 N 
ATOM      2  H   LIG    1        4.952  -2.030   2.069  0.00  0.00    +0.150 HD
ATOM      3  C   LIG    1        6.206  -1.948   3.687  0.00  0.00    +0.235 C 
ATOM      4  O   LIG    1        6.532  -2.427   4.770  0.00  0.00    -0.274 OA
ENDROOT
BRANCH   1  13
ATOM      5  C   LIG    1        2.632  -7.106  -0.934  0.00  0.00    +0.042 C 
ATOM      6  C   LIG    1        3.129  -6.130   0.119  0.00  0.00    -0.034 C 
ATOM      7  C   LIG    1        2.508  -4.762  -0.134  0.00  0.00    +0.103 C 
ATOM      8  S   LIG    1        3.180  -3.376   0.812  0.00  0.00    -0.131 S 
ATOM      9  C   LIG    1        3.452  -4.333   2.318  0.00  0.00    +0.169 C 
ATOM     10  N   LIG    1        4.349  -5.424   1.994  0.00  0.00    -0.249 N 
ATOM     11  C   LIG    1        5.271  -5.148   2.932  0.00  0.00    +0.244 C 
ATOM     12  O   LIG    1        6.280  -5.765   3.223  0.00  0.00    -0.273 OA
ATOM     13  CA  LIG    1        4.561  -3.800   3.281  0.00  0.00    +0.191 C 
ATOM     14  CA  LIG    1        4.016  -6.415   1.113  0.00  0.00    +0.122 C 
BRANCH  14  15
ATOM     15  C   LIG    1        4.595  -7.806   1.279  0.00  0.00    +0.351 C 
ATOM     16  O   LIG    1        4.062  -8.814   0.837  0.00  0.00    -0.244 OA
BRANCH  15  17
ATOM     17  OXT LIG    1        5.731  -7.914   1.993  0.00  0.00    -0.476 OA
ATOM     18  HXT LIG    1        6.123  -7.097   2.372  0.00  0.00    +0.295 HD
ENDBRANCH  15  17
ENDBRANCH  14  15
ENDBRANCH   1  13
BRANCH   3  19
ATOM     19  CA  LIG    1        6.826  -0.641   3.104  0.00  0.00    +0.168 C 
BRANCH  19  20
ATOM     20  C   LIG    1        8.332  -0.737   2.900  0.00  0.00    -0.022 A 
ATOM     21  C   LIG    1        8.934  -1.944   2.507  0.00  0.00    +0.009 A 
ATOM     22  C   LIG    1       10.312  -2.025   2.297  0.00  0.00    +0.045 A 
ATOM     23  C   LIG    1       11.103  -0.897   2.459  0.00  0.00    +0.117 A 
ATOM     24  C   LIG    1       10.539   0.313   2.848  0.00  0.00    +0.045 A 
ATOM     25  C   LIG    1        9.157   0.393   3.068  0.00  0.00    +0.009 A 
BRANCH  23  26
ATOM     26  O   LIG    1       12.439  -1.022   2.220  0.00  0.00    -0.507 OA
ATOM     27  H   LIG    1       12.864  -0.160   2.359  0.00  0.00    +0.292 HD
ENDBRANCH  23  26
ENDBRANCH  19  20
BRANCH  19  28
ATOM     28  N   LIG    1        6.141  -0.280   1.833  0.00  0.00    -0.316 NA
ATOM     29  H1  LIG    1        6.624   0.529   1.440  0.00  0.00    +0.119 HD
ATOM     30  H2  LIG    1        6.314  -1.023   1.157  0.00  0.00    +0.119 HD
ENDBRANCH  19  28
ENDBRANCH   3  19
TORSDOF 7
