REMARK  Name = *****
REMARK                            x       y       z     vdW  Elec       q    Type
REMARK                         _______ _______ _______ _____ _____    ______ ____
ROOT
ATOM      1 CL   LIG    1        3.284   0.376   1.749  0.00  0.00    -0.119 Cl
ATOM      2  C   LIG    1        2.824  -0.040   0.057  0.00  0.00    +0.119 C 
ATOM      3  C   LIG    1        3.255  -1.480  -0.287  0.00  0.00    +0.119 C 
ATOM      4 CL   LIG    1        5.005  -1.760   0.026  0.00  0.00    -0.119 Cl
ATOM      5  C   LIG    1        2.902  -1.856  -1.741  0.00  0.00    +0.119 C 
ATOM      6 CL   LIG    1        1.110  -2.094  -1.849  0.00  0.00    -0.119 Cl
ATOM      7  C   LIG    1        3.318  -0.808  -2.792  0.00  0.00    +0.119 C 
ATOM      8 CL   LIG    1        5.084  -0.915  -3.122  0.00  0.00    -0.119 Cl
ATOM      9  C   LIG    1        2.885   0.617  -2.388  0.00  0.00    +0.119 C 
ATOM     10 CL   LIG    1        3.419   1.819  -3.621  0.00  0.00    -0.119 Cl
ATOM     11  C   LIG    1        3.327   1.005  -0.961  0.00  0.00    +0.119 C 
ATOM     12 CL   LIG    1        2.644   2.628  -0.543  0.00  0.00    -0.119 Cl
ENDROOT
TORSDOF 0
