REMARK  Name = *****
REMARK                            x       y       z     vdW  Elec       q    Type
REMARK                         _______ _______ _______ _____ _____    ______ ____
ROOT
ATOM      1  C   LIG    1        3.069   0.459   1.369  0.00  0.00    +0.070 C 
ATOM      2  C   LIG    1        2.474   0.145   0.006  0.00  0.00    +0.253 C 
ATOM      3  O   LIG    1        2.809  -1.193  -0.319  0.00  0.00    -0.323 OA
ATOM      4  C   LIG    1        2.414  -1.524  -1.641  0.00  0.00    +0.253 C 
ATOM      5  C   LIG    1        0.918  -1.802  -1.753  0.00  0.00    +0.070 C 
ATOM      6  O   LIG    1        2.867  -0.580  -2.598  0.00  0.00    -0.323 OA
ATOM      7  C   LIG    1        2.531   0.745  -2.225  0.00  0.00    +0.253 C 
ATOM      8  C   LIG    1        3.187   1.691  -3.218  0.00  0.00    +0.070 C 
ATOM      9  O   LIG    1        3.020   1.056  -0.932  0.00  0.00    -0.323 OA
ENDROOT
TORSDOF 0
