REMARK  Name = *****
REMARK                            x       y       z     vdW  Elec       q    Type
REMARK                         _______ _______ _______ _____ _____    ______ ____
ROOT
ATOM      1  C   LIG    1        7.968   2.097  -1.226  0.00  0.00    +0.039 C 
ENDROOT
BRANCH   1   5
ATOM      2  C   LIG    1        8.034   0.978   3.006  0.00  0.00    -0.042 A 
ATOM      3  C   LIG    1        7.379   0.192   2.038  0.00  0.00    +0.004 A 
ATOM      4  C   LIG    1        7.360   0.566   0.688  0.00  0.00    +0.004 A 
ATOM      5  C   LIG    1        8.000   1.720   0.240  0.00  0.00    -0.047 A 
ATOM      6  C   LIG    1        8.639   2.526   1.192  0.00  0.00    +0.004 A 
ATOM      7  C   LIG    1        8.643   2.158   2.549  0.00  0.00    +0.004 A 
BRANCH   2   8
ATOM      8  C   LIG    1        8.009   0.578   4.503  0.00  0.00    -0.010 C 
ATOM      9  C   LIG    1        8.011  -0.961   4.690  0.00  0.00    +0.016 C 
ATOM     10  C   LIG    1        9.262   1.097   5.250  0.00  0.00    +0.016 C 
BRANCH   8  12
ATOM     11  C   LIG    1        6.470   0.837   6.600  0.00  0.00    +0.004 C 
ATOM     12  C   LIG    1        6.716   1.180   5.132  0.00  0.00    +0.007 C 
ENDBRANCH   8  12
ENDBRANCH   2   8
ENDBRANCH   1   5
BRANCH   1  13
ATOM     13  C   LIG    1        9.110   1.567  -2.137  0.00  0.00    +0.004 C 
ATOM     14  C   LIG    1        9.185   0.037  -2.084  0.00  0.00    +0.009 C 
BRANCH  13  15
ATOM     15  C   LIG    1       10.485   2.222  -1.839  0.00  0.00    +0.088 C 
BRANCH  15  16
ATOM     16  N   LIG    1       11.588   1.839  -2.750  0.00  0.00    -0.297 NA
ATOM     17  C   LIG    1       11.446   2.279  -4.159  0.00  0.00    +0.115 C 
ATOM     18  C   LIG    1       11.675   3.793  -4.373  0.00  0.00    +0.130 C 
ATOM     19  C   LIG    1       11.548   4.182  -5.843  0.00  0.00    +0.039 C 
ATOM     20  O   LIG    1       12.991   4.158  -3.926  0.00  0.00    -0.371 OA
ATOM     21  C   LIG    1       13.151   3.844  -2.532  0.00  0.00    +0.130 C 
ATOM     22  C   LIG    1       14.567   4.240  -2.130  0.00  0.00    +0.039 C 
ATOM     23  C   LIG    1       12.898   2.340  -2.260  0.00  0.00    +0.115 C 
ENDBRANCH  15  16
ENDBRANCH  13  15
ENDBRANCH   1  13
TORSDOF 6
