REMARK  Name = *****
REMARK                            x       y       z     vdW  Elec       q    Type
REMARK                         _______ _______ _______ _____ _____    ______ ____
ROOT
ATOM      1  C   LIG    1        4.977   0.101   3.014  0.00  0.00    +0.095 C 
ATOM      2  C   LIG    1        5.623  -1.286   3.286  0.00  0.00    +0.038 C 
ATOM      3  C   LIG    1        6.963  -1.488   2.577  0.00  0.00    +0.085 C 
ATOM      4  N   LIG    1        7.947  -0.444   2.849  0.00  0.00    -0.305 NA
ATOM      5  C   LIG    1        8.507  -0.524   4.196  0.00  0.00    +0.105 C 
ATOM      6  C   LIG    1        7.407   0.881   2.548  0.00  0.00    +0.085 C 
ATOM      7  C   LIG    1        6.076   1.181   3.246  0.00  0.00    +0.038 C 
ENDROOT
BRANCH   1   8
ATOM      8  C   LIG    1        3.759   0.350   3.949  0.00  0.00    -0.030 A 
ATOM      9  C   LIG    1        3.382   1.646   4.349  0.00  0.00    +0.005 A 
ATOM     10  C   LIG    1        2.293   1.857   5.203  0.00  0.00    +0.000 A 
ATOM     11  C   LIG    1        1.541   0.781   5.660  0.00  0.00    +0.000 A 
ATOM     12  C   LIG    1        1.872  -0.506   5.257  0.00  0.00    +0.000 A 
ATOM     13  C   LIG    1        2.962  -0.717   4.408  0.00  0.00    +0.005 A 
ENDBRANCH   1   8
BRANCH   1  14
ATOM     14  C   LIG    1        4.497   0.137   1.541  0.00  0.00    +0.318 C 
ATOM     15  O   LIG    1        4.885   0.929   0.696  0.00  0.00    -0.250 OA
BRANCH  14  16
ATOM     16  O   LIG    1        3.584  -0.856   1.299  0.00  0.00    -0.464 OA
BRANCH  16  18
ATOM     17  C   LIG    1        3.952  -1.720  -0.941  0.00  0.00    +0.048 C 
ATOM     18  C   LIG    1        3.046  -0.913  -0.031  0.00  0.00    +0.229 C 
ENDBRANCH  16  18
ENDBRANCH  14  16
ENDBRANCH   1  14
TORSDOF 4
