REMARK  Name = *****
REMARK                            x       y       z     vdW  Elec       q    Type
REMARK                         _______ _______ _______ _____ _____    ______ ____
ROOT
ATOM      1  N   LIG    1        1.447   4.014   1.247  0.00  0.00    -0.302 NA
ATOM      2  C   LIG    1        1.670   5.009   2.305  0.00  0.00    +0.086 C 
ATOM      3  C   LIG    1        0.331   5.679   2.643  0.00  0.00    +0.041 C 
ATOM      4  C   LIG    1       -0.779   4.702   3.071  0.00  0.00    +0.095 C 
ATOM      5  C   LIG    1       -0.786   3.473   2.144  0.00  0.00    +0.041 C 
ATOM      6  C   LIG    1        0.601   2.931   1.787  0.00  0.00    +0.086 C 
ENDROOT
BRANCH   4   7
ATOM      7  N   LIG    1       -0.778   4.426   4.516  0.00  0.00    -0.289 N 
ATOM      8  C   LIG    1       -1.520   5.174   5.470  0.00  0.00    +0.070 A 
ATOM      9  C   LIG    1       -1.021   4.866   6.737  0.00  0.00    +0.067 A 
ATOM     10  C   LIG    1       -1.470   5.453   7.900  0.00  0.00    +0.028 A 
ATOM     11  C   LIG    1       -2.509   6.373   7.778  0.00  0.00    +0.002 A 
ATOM     12  C   LIG    1       -3.054   6.675   6.512  0.00  0.00    +0.002 A 
ATOM     13  N   LIG    1       -0.019   3.929   6.592  0.00  0.00    -0.306 N 
ATOM     14  H   LIG    1        0.559   3.534   7.316  0.00  0.00    +0.170 HD
ATOM     15  C   LIG    1       -2.552   6.082   5.339  0.00  0.00    +0.028 A 
ATOM     16  C   LIG    1        0.161   3.641   5.233  0.00  0.00    +0.328 C 
ATOM     17  O   LIG    1        1.001   2.877   4.822  0.00  0.00    -0.246 OA
ENDBRANCH   4   7
BRANCH   1  18
ATOM     18  C   LIG    1        2.669   3.454   0.640  0.00  0.00    +0.085 C 
BRANCH  18  19
ATOM     19  C   LIG    1        3.651   4.467   0.023  0.00  0.00    +0.023 C 
BRANCH  19  20
ATOM     20  C   LIG    1        3.052   5.388  -1.042  0.00  0.00    +0.081 C 
BRANCH  20  22
ATOM     21  O   LIG    1        3.303   3.983  -2.983  0.00  0.00    -0.292 OA
ATOM     22  C   LIG    1        2.557   4.679  -2.297  0.00  0.00    +0.163 C 
BRANCH  22  23
ATOM     23  C   LIG    1        1.146   4.888  -2.748  0.00  0.00    +0.018 A 
ATOM     24  C   LIG    1        0.834   4.791  -4.115  0.00  0.00    +0.014 A 
ATOM     25  C   LIG    1       -0.491   4.927  -4.546  0.00  0.00    +0.039 A 
ATOM     26  C   LIG    1       -1.497   5.149  -3.612  0.00  0.00    +0.123 A 
ATOM     27  F   LIG    1       -2.770   5.246  -4.016  0.00  0.00    -0.205 F 
ATOM     28  C   LIG    1       -1.202   5.258  -2.260  0.00  0.00    +0.039 A 
ATOM     29  C   LIG    1        0.120   5.129  -1.828  0.00  0.00    +0.014 A 
ENDBRANCH  22  23
ENDBRANCH  20  22
ENDBRANCH  19  20
ENDBRANCH  18  19
ENDBRANCH   1  18
TORSDOF 6
