REMARK  Name = *****
REMARK                            x       y       z     vdW  Elec       q    Type
REMARK                         _______ _______ _______ _____ _____    ______ ____
ROOT
ATOM      1  C   LIG    1        7.095   3.716   1.770  0.00  0.00    +0.129 A 
ATOM      2  C   LIG    1        7.195   5.037   2.218  0.00  0.00    +0.048 A 
ATOM      3  C   LIG    1        6.385   6.042   1.663  0.00  0.00    +0.027 A 
ATOM      4  C   LIG    1        5.440   5.726   0.680  0.00  0.00    +0.035 A 
ATOM      5  C   LIG    1        5.348   4.408   0.239  0.00  0.00    +0.027 A 
ATOM      6  C   LIG    1        6.153   3.407   0.790  0.00  0.00    +0.048 A 
ENDROOT
BRANCH   4   7
ATOM      7  N   LIG    1        4.564   6.732   0.223  0.00  0.00    -0.269 N 
ATOM      8  H   LIG    1        4.572   7.600   0.737  0.00  0.00    +0.156 HD
ATOM      9  C   LIG    1        3.756   6.661  -0.888  0.00  0.00    +0.308 C 
ATOM     10  N   LIG    1        2.957   7.745  -1.138  0.00  0.00    -0.269 N 
ATOM     11  H   LIG    1        2.583   7.721  -2.081  0.00  0.00    +0.156 HD
ATOM     12  O   LIG    1        3.741   5.759  -1.720  0.00  0.00    -0.252 OA
BRANCH  10  13
ATOM     13  C   LIG    1        2.849   8.924  -0.406  0.00  0.00    +0.035 A 
ATOM     14  C   LIG    1        2.440   8.894   0.928  0.00  0.00    +0.037 A 
ATOM     15  C   LIG    1        2.262  10.086   1.660  0.00  0.00    +0.075 A 
ATOM     16  C   LIG    1        2.494  11.301   1.006  0.00  0.00    +0.053 A 
ATOM     17 CL   LIG    1        2.223  12.838   1.739  0.00  0.00    -0.083 Cl
ATOM     18  C   LIG    1        2.948  11.320  -0.321  0.00  0.00    +0.022 A 
ATOM     19  C   LIG    1        3.110  10.135  -1.034  0.00  0.00    +0.025 A 
BRANCH  15  20
ATOM     20  C   LIG    1        1.856   9.956   3.104  0.00  0.00    +0.419 C 
ATOM     21  F   LIG    1        2.769   9.221   3.805  0.00  0.00    -0.166 F 
ATOM     22  F   LIG    1        0.673   9.294   3.247  0.00  0.00    -0.166 F 
ATOM     23  F   LIG    1        1.717  11.112   3.801  0.00  0.00    -0.166 F 
ENDBRANCH  15  20
ENDBRANCH  10  13
ENDBRANCH   4   7
BRANCH   1  24
ATOM     24  O   LIG    1        7.796   2.656   2.309  0.00  0.00    -0.456 OA
BRANCH  24  29
ATOM     25  C   LIG    1       11.314   3.722   2.470  0.00  0.00    +0.129 A 
ATOM     26  N   LIG    1       11.835   2.876   3.396  0.00  0.00    -0.250 NA
ATOM     27  C   LIG    1       10.990   1.956   3.901  0.00  0.00    +0.115 A 
ATOM     28  C   LIG    1        9.640   1.895   3.583  0.00  0.00    +0.066 A 
ATOM     29  C   LIG    1        9.132   2.783   2.631  0.00  0.00    +0.132 A 
ATOM     30  C   LIG    1       10.001   3.691   2.024  0.00  0.00    +0.079 A 
BRANCH  25  34
ATOM     31  C   LIG    1       14.156   6.203   2.629  0.00  0.00    +0.128 C 
ATOM     32  N   LIG    1       13.214   5.154   2.901  0.00  0.00    -0.313 N 
ATOM     33  H   LIG    1       13.328   4.540   3.697  0.00  0.00    +0.149 HD
ATOM     34  C   LIG    1       12.209   4.831   2.000  0.00  0.00    +0.262 C 
ATOM     35  O   LIG    1       12.017   5.404   0.955  0.00  0.00    -0.269 OA
ENDBRANCH  25  34
ENDBRANCH  24  29
ENDBRANCH   1  24
TORSDOF 6
