REMARK  Name = *****
REMARK                            x       y       z     vdW  Elec       q    Type
REMARK                         _______ _______ _______ _____ _____    ______ ____
ROOT
ATOM      1  C   LIG    1        3.311   1.009  -1.034  0.00  0.00    +0.119 A 
ATOM      2  C   LIG    1        4.250   1.043  -2.078  0.00  0.00    +0.083 A 
ATOM      3  C   LIG    1        4.530   2.297  -2.676  0.00  0.00    +0.039 A 
ATOM      4  C   LIG    1        3.899   3.484  -2.285  0.00  0.00    +0.056 A 
ATOM      5  N   LIG    1        4.356   4.694  -2.814  0.00  0.00    -0.326 N 
ATOM      6  H   LIG    1        4.762   4.589  -3.744  0.00  0.00    +0.148 HD
ATOM      7  C   LIG    1        3.467   5.841  -2.742  0.00  0.00    +0.164 C 
ATOM      8  N   LIG    1        3.184   6.065  -1.338  0.00  0.00    -0.170 NA
ATOM      9  H   LIG    1        4.016   6.189  -0.764  0.00  0.00    +0.150 HD
ATOM     10  S   LIG    1        2.202   4.876  -0.683  0.00  0.00    +0.062 S 
ATOM     11  O   LIG    1        0.905   4.959  -1.316  0.00  0.00    -0.153 OA
ATOM     12  O   LIG    1        2.375   4.944   0.750  0.00  0.00    -0.153 OA
ATOM     13  C   LIG    1        2.969   3.398  -1.252  0.00  0.00    +0.128 A 
ATOM     14  C   LIG    1        2.662   2.185  -0.625  0.00  0.00    +0.059 A 
ENDROOT
BRANCH   2  15
ATOM     15  C   LIG    1        5.023  -0.134  -2.631  0.00  0.00    +0.419 C 
ATOM     16  F   LIG    1        6.367   0.110  -2.604  0.00  0.00    -0.166 F 
ATOM     17  F   LIG    1        4.727  -0.350  -3.944  0.00  0.00    -0.166 F 
ATOM     18  F   LIG    1        4.875  -1.334  -2.019  0.00  0.00    -0.166 F 
ENDBRANCH   2  15
BRANCH   1  19
ATOM     19  S   LIG    1        2.925  -0.483  -0.156  0.00  0.00    +0.057 S 
ATOM     20  O   LIG    1        2.138  -0.149   1.012  0.00  0.00    -0.153 OA
ATOM     21  O   LIG    1        2.503  -1.471  -1.110  0.00  0.00    -0.153 OA
BRANCH  19  22
ATOM     22  N   LIG    1        4.425  -0.926   0.450  0.00  0.00    -0.203 NA
ATOM     23  H   LIG    1        4.406  -0.935   1.471  0.00  0.00    +0.144 HD
ATOM     24  H   LIG    1        4.718  -1.814   0.034  0.00  0.00    +0.144 HD
ENDBRANCH  19  22
ENDBRANCH   1  19
BRANCH   7  25
ATOM     25  C   LIG    1        4.166   7.098  -3.317  0.00  0.00    +0.075 C 
BRANCH  25  26
ATOM     26  C   LIG    1        4.601   6.976  -4.764  0.00  0.00    -0.044 A 
ATOM     27  C   LIG    1        5.961   7.083  -5.094  0.00  0.00    +0.003 A 
ATOM     28  C   LIG    1        6.388   6.945  -6.416  0.00  0.00    +0.000 A 
ATOM     29  C   LIG    1        5.461   6.698  -7.425  0.00  0.00    +0.000 A 
ATOM     30  C   LIG    1        4.105   6.611  -7.115  0.00  0.00    +0.000 A 
ATOM     31  C   LIG    1        3.674   6.759  -5.793  0.00  0.00    +0.003 A 
ENDBRANCH  25  26
ENDBRANCH   7  25
TORSDOF 5
