REMARK  Name = *****
REMARK                            x       y       z     vdW  Elec       q    Type
REMARK                         _______ _______ _______ _____ _____    ______ ____
ROOT
ATOM      1  O   LIG    1       -3.719   1.002  -1.047  0.00  0.00    -0.247 OA
ATOM      2  C   LIG    1       -2.723   0.344  -1.302  0.00  0.00    +0.349 C 
ENDROOT
BRANCH   2   3
ATOM      3  C   LIG    1       -2.522  -0.436  -2.643  0.00  0.00    +0.213 C 
BRANCH   3   4
ATOM      4  C   LIG    1       -3.167  -1.838  -2.578  0.00  0.00    -0.001 A 
ATOM      5  C   LIG    1       -3.238  -2.587  -1.388  0.00  0.00    +0.007 A 
ATOM      6  C   LIG    1       -3.769  -3.882  -1.384  0.00  0.00    +0.000 A 
ATOM      7  C   LIG    1       -4.226  -4.459  -2.566  0.00  0.00    +0.000 A 
ATOM      8  C   LIG    1       -4.165  -3.740  -3.754  0.00  0.00    +0.000 A 
ATOM      9  C   LIG    1       -3.643  -2.444  -3.760  0.00  0.00    +0.007 A 
ENDBRANCH   3   4
BRANCH   3  10
ATOM     10  C   LIG    1       -1.056  -0.424  -3.116  0.00  0.00    -0.001 A 
ATOM     11  C   LIG    1       -0.413   0.793  -3.431  0.00  0.00    +0.007 A 
ATOM     12  C   LIG    1        0.921   0.820  -3.855  0.00  0.00    +0.000 A 
ATOM     13  C   LIG    1        1.638  -0.366  -3.988  0.00  0.00    +0.000 A 
ATOM     14  C   LIG    1        1.023  -1.578  -3.697  0.00  0.00    +0.000 A 
ATOM     15  C   LIG    1       -0.305  -1.605  -3.260  0.00  0.00    +0.007 A 
ENDBRANCH   3  10
BRANCH   3  16
ATOM     16  O   LIG    1       -3.275   0.316  -3.622  0.00  0.00    -0.370 OA
ATOM     17  H   LIG    1       -4.210   0.248  -3.349  0.00  0.00    +0.212 HD
ENDBRANCH   3  16
ENDBRANCH   2   3
BRANCH   2  18
ATOM     18  O   LIG    1       -1.689   0.190  -0.419  0.00  0.00    -0.459 OA
BRANCH  18  19
ATOM     19  C   LIG    1       -1.771   0.898   0.842  0.00  0.00    +0.187 C 
ATOM     20  C   LIG    1       -0.645   1.942   0.865  0.00  0.00    +0.099 C 
ATOM     21  C   LIG    1       -0.113   2.263   2.268  0.00  0.00    +0.070 C 
ATOM     22  N   LIG    1        0.325   0.958   2.951  0.00  0.00    +0.248 N 
ATOM     23  C   LIG    1       -1.057   0.344   3.254  0.00  0.00    +0.070 C 
ATOM     24  C   LIG    1       -1.831   1.534   3.841  0.00  0.00    +0.060 C 
ATOM     25  C   LIG    1        1.122   1.225   4.274  0.00  0.00    +0.134 C 
ATOM     26  C   LIG    1        2.476   0.567   4.080  0.00  0.00    +0.056 C 
ATOM     27  C   LIG    1        2.186  -0.573   3.136  0.00  0.00    +0.056 C 
ATOM     28  C   LIG    1        1.287   0.089   2.117  0.00  0.00    +0.134 C 
ATOM     29  C   LIG    1       -1.225   2.778   3.192  0.00  0.00    +0.060 C 
ATOM     30  C   LIG    1       -1.714  -0.149   1.961  0.00  0.00    +0.099 C 
ENDBRANCH  18  19
ENDBRANCH   2  18
TORSDOF 6
