REMARK  Name = *****
REMARK                            x       y       z     vdW  Elec       q    Type
REMARK                         _______ _______ _______ _____ _____    ______ ____
ROOT
ATOM      1  C   LIG    1        2.565  -1.064   0.355  0.00  0.00    +0.124 A 
ATOM      2  C   LIG    1        2.360  -2.327  -0.196  0.00  0.00    +0.091 A 
ATOM      3  C   LIG    1        3.221  -3.375   0.128  0.00  0.00    +0.131 A 
ATOM      4  C   LIG    1        4.284  -3.195   1.028  0.00  0.00    +0.064 A 
ATOM      5  C   LIG    1        4.511  -1.917   1.548  0.00  0.00    +0.019 A 
ATOM      6  C   LIG    1        3.649  -0.863   1.216  0.00  0.00    +0.046 A 
ENDROOT
BRANCH   1   8
ATOM      7  C   LIG    1        0.659  -0.135  -0.715  0.00  0.00    +0.277 C 
ATOM      8  O   LIG    1        1.794   0.043   0.126  0.00  0.00    -0.495 OA
ENDBRANCH   1   8
BRANCH   3   9
ATOM      9  O   LIG    1        2.966  -4.573  -0.491  0.00  0.00    -0.506 OA
ATOM     10  H   LIG    1        3.744  -5.154  -0.330  0.00  0.00    +0.292 HD
ENDBRANCH   3   9
BRANCH   4  11
ATOM     11  C   LIG    1        5.160  -4.350   1.351  0.00  0.00    +0.200 C 
ATOM     12  O   LIG    1        5.252  -5.246   0.505  0.00  0.00    -0.286 OA
BRANCH  11  13
ATOM     13  C   LIG    1        5.923  -4.502   2.615  0.00  0.00    +0.064 A 
ATOM     14  C   LIG    1        5.439  -4.130   3.874  0.00  0.00    +0.128 A 
ATOM     15  C   LIG    1        6.204  -4.359   5.022  0.00  0.00    +0.046 A 
ATOM     16  C   LIG    1        7.444  -4.991   4.921  0.00  0.00    +0.004 A 
ATOM     17  C   LIG    1        7.922  -5.396   3.677  0.00  0.00    +0.001 A 
ATOM     18  C   LIG    1        7.164  -5.154   2.530  0.00  0.00    +0.015 A 
BRANCH  14  19
ATOM     19  O   LIG    1        4.197  -3.576   4.006  0.00  0.00    -0.506 OA
ATOM     20  H   LIG    1        3.989  -3.462   4.949  0.00  0.00    +0.292 HD
ENDBRANCH  14  19
ENDBRANCH  11  13
ENDBRANCH   4  11
TORSDOF 5
