REMARK  Name = *****
REMARK                            x       y       z     vdW  Elec       q    Type
REMARK                         _______ _______ _______ _____ _____    ______ ____
ROOT
ATOM      1  C   LIG    1        1.049   0.046  -0.081  0.00  0.00    +0.086 C 
ATOM      2  C   LIG    1        2.534   0.053  -0.002  0.00  0.00    +0.111 A 
ATOM      3  N   LIG    1        3.336  -1.073   0.150  0.00  0.00    -0.298 N 
ATOM      4  C   LIG    1        2.969  -2.406   0.480  0.00  0.00    +0.057 A 
ATOM      5  C   LIG    1        3.710  -3.502  -0.005  0.00  0.00    +0.026 A 
ATOM      6  C   LIG    1        4.788  -3.369  -1.038  0.00  0.00    +0.078 C 
ATOM      7  N   LIG    1        5.751  -2.509  -0.991  0.00  0.00    -0.276 NA
ATOM      8  C   LIG    1        5.799  -1.545   0.095  0.00  0.00    +0.197 C 
ATOM      9  C   LIG    1        3.394  -4.800   0.433  0.00  0.00    +0.032 A 
ATOM     10  C   LIG    1        2.334  -5.004   1.312  0.00  0.00    +0.042 A 
ATOM     11 CL   LIG    1        1.951  -6.598   1.833  0.00  0.00    -0.084 Cl
ATOM     12  C   LIG    1        1.585  -3.927   1.774  0.00  0.00    +0.022 A 
ATOM     13  C   LIG    1        1.903  -2.629   1.367  0.00  0.00    +0.028 A 
ATOM     14  C   LIG    1        4.637  -0.641  -0.012  0.00  0.00    +0.065 A 
ATOM     15  C   LIG    1        4.561   0.716  -0.210  0.00  0.00    +0.136 A 
ATOM     16  N   LIG    1        3.264   1.138  -0.185  0.00  0.00    -0.240 NA
ENDROOT
BRANCH   6  17
ATOM     17  C   LIG    1        4.770  -4.293  -2.214  0.00  0.00    +0.036 A 
ATOM     18  C   LIG    1        3.577  -4.657  -2.843  0.00  0.00    +0.133 A 
ATOM     19  F   LIG    1        2.397  -4.181  -2.418  0.00  0.00    -0.205 F 
ATOM     20  C   LIG    1        3.584  -5.513  -3.942  0.00  0.00    +0.039 A 
ATOM     21  C   LIG    1        4.794  -6.003  -4.432  0.00  0.00    +0.003 A 
ATOM     22  C   LIG    1        5.994  -5.629  -3.825  0.00  0.00    +0.001 A 
ATOM     23  C   LIG    1        5.985  -4.771  -2.723  0.00  0.00    +0.013 A 
ENDBRANCH   6  17
TORSDOF 1
