REMARK  Name = *****
REMARK                            x       y       z     vdW  Elec       q    Type
REMARK                         _______ _______ _______ _____ _____    ______ ____
ROOT
ATOM      1  C   LIG    1        5.827   5.369  -4.722  0.00  0.00    +0.162 C 
ENDROOT
BRANCH   1   2
ATOM      2  C   LIG    1        5.042   4.491  -3.752  0.00  0.00    +0.029 A 
ATOM      3  C   LIG    1        5.282   3.104  -3.658  0.00  0.00    +0.148 A 
ATOM      4  O   LIG    1        6.244   2.578  -4.479  0.00  0.00    -0.480 OA
ATOM      5  C   LIG    1        6.545   1.207  -4.290  0.00  0.00    +0.325 C 
ATOM      6  C   LIG    1        5.626   0.282  -3.488  0.00  0.00    +0.255 C 
ATOM      7  N   LIG    1        4.696   0.931  -2.723  0.00  0.00    -0.280 N 
ATOM      8  H   LIG    1        4.099   0.352  -2.147  0.00  0.00    +0.155 HD
ATOM      9  O   LIG    1        5.736  -0.933  -3.478  0.00  0.00    -0.272 OA
ATOM     10  C   LIG    1        4.522   2.312  -2.777  0.00  0.00    +0.080 A 
ATOM     11  C   LIG    1        3.541   2.885  -1.972  0.00  0.00    +0.072 A 
ATOM     12  C   LIG    1        3.309   4.249  -2.059  0.00  0.00    +0.119 A 
ATOM     13  C   LIG    1        4.052   5.053  -2.922  0.00  0.00    +0.055 A 
BRANCH  12  14
ATOM     14  O   LIG    1        2.307   4.765  -1.291  0.00  0.00    -0.507 OA
ATOM     15  H   LIG    1        2.161   5.689  -1.554  0.00  0.00    +0.292 HD
ENDBRANCH  12  14
ENDBRANCH   1   2
BRANCH   1  16
ATOM     16  O   LIG    1        5.004   6.451  -5.180  0.00  0.00    -0.386 OA
ATOM     17  H   LIG    1        5.633   7.094  -5.563  0.00  0.00    +0.210 HD
ENDBRANCH   1  16
BRANCH   1  18
ATOM     18  C   LIG    1        7.099   5.968  -4.065  0.00  0.00    +0.117 C 
BRANCH  18  19
ATOM     19  N   LIG    1        7.949   6.735  -5.015  0.00  0.00    -0.308 NA
ATOM     20  H   LIG    1        8.240   6.111  -5.774  0.00  0.00    +0.122 HD
BRANCH  19  21
ATOM     21  C   LIG    1        9.186   7.318  -4.410  0.00  0.00    +0.018 C 
ATOM     22  C   LIG    1        9.969   8.058  -5.526  0.00  0.00    +0.027 C 
ATOM     23  C   LIG    1        8.792   8.417  -3.393  0.00  0.00    +0.027 C 
BRANCH  21  24
ATOM     24  C   LIG    1       10.142   6.271  -3.726  0.00  0.00    +0.056 C 
BRANCH  24  28
ATOM     25  C   LIG    1       11.422   3.073  -6.371  0.00  0.00    +0.120 A 
ATOM     26  C   LIG    1       10.301   2.911  -5.565  0.00  0.00    +0.046 A 
ATOM     27  C   LIG    1        9.917   3.927  -4.686  0.00  0.00    +0.007 A 
ATOM     28  C   LIG    1       10.632   5.129  -4.604  0.00  0.00    -0.045 A 
ATOM     29  C   LIG    1       11.800   5.251  -5.370  0.00  0.00    +0.007 A 
ATOM     30  C   LIG    1       12.185   4.233  -6.250  0.00  0.00    +0.046 A 
BRANCH  25  32
ATOM     31  C   LIG    1       10.865   1.364  -7.892  0.00  0.00    +0.277 C 
ATOM     32  O   LIG    1       11.879   2.149  -7.270  0.00  0.00    -0.495 OA
ENDBRANCH  25  32
ENDBRANCH  24  28
ENDBRANCH  21  24
ENDBRANCH  19  21
ENDBRANCH  18  19
ENDBRANCH   1  18
TORSDOF 9
