REMARK  Name = *****
REMARK                            x       y       z     vdW  Elec       q    Type
REMARK                         _______ _______ _______ _____ _____    ______ ____
ROOT
ATOM      1  C   LIG    1        3.162  -1.059   0.426  0.00  0.00    +0.159 C 
ATOM      2  O   LIG    1        2.849  -2.341  -0.132  0.00  0.00    -0.370 OA
ATOM      3  C   LIG    1        4.198  -1.881  -0.297  0.00  0.00    +0.193 C 
ENDROOT
BRANCH   1   5
ATOM      4 CL   LIG    1        1.535  -0.493   2.469  0.00  0.00    -0.123 Cl
ATOM      5  C   LIG    1        3.146  -0.992   1.913  0.00  0.00    +0.142 C 
ENDBRANCH   1   5
TORSDOF 1
