REMARK  Name = *****
REMARK                            x       y       z     vdW  Elec       q    Type
REMARK                         _______ _______ _______ _____ _____    ______ ____
ROOT
ATOM      1  C   LIG    1        9.189  -3.084   4.754  0.00  0.00    -0.047 A 
ATOM      2  C   LIG    1        8.845  -4.436   4.809  0.00  0.00    +0.004 A 
ATOM      3  C   LIG    1        9.279  -5.239   5.864  0.00  0.00    +0.004 A 
ATOM      4  C   LIG    1       10.078  -4.694   6.883  0.00  0.00    -0.047 A 
ATOM      5  C   LIG    1       10.439  -3.348   6.816  0.00  0.00    +0.004 A 
ATOM      6  C   LIG    1       10.006  -2.545   5.761  0.00  0.00    +0.004 A 
ENDROOT
BRANCH   1   7
ATOM      7  C   LIG    1        8.731  -2.212   3.614  0.00  0.00    +0.035 C 
BRANCH   7   8
ATOM      8  C   LIG    1        9.740  -2.247   2.470  0.00  0.00    +0.005 C 
BRANCH   8   9
ATOM      9  C   LIG    1        9.287  -1.389   1.288  0.00  0.00    +0.000 C 
BRANCH   9  10
ATOM     10  C   LIG    1       10.290  -1.421   0.132  0.00  0.00    +0.000 C 
BRANCH  10  11
ATOM     11  C   LIG    1       10.485  -2.830  -0.429  0.00  0.00    -0.000 C 
BRANCH  11  12
ATOM     12  C   LIG    1       11.493  -2.851  -1.571  0.00  0.00    -0.000 C 
BRANCH  12  14
ATOM     13  C   LIG    1       12.696  -4.311  -3.225  0.00  0.00    +0.004 C 
ATOM     14  C   LIG    1       11.682  -4.273  -2.095  0.00  0.00    -0.003 C 
ENDBRANCH  12  14
ENDBRANCH  11  12
ENDBRANCH  10  11
ENDBRANCH   9  10
ENDBRANCH   8   9
ENDBRANCH   7   8
ENDBRANCH   1   7
BRANCH   4  15
ATOM     15  C   LIG    1       10.510  -5.547   8.049  0.00  0.00    +0.037 C 
BRANCH  15  16
ATOM     16  C   LIG    1        9.436  -5.571   9.147  0.00  0.00    +0.031 C 
BRANCH  16  17
ATOM     17  C   LIG    1        9.794  -6.429  10.388  0.00  0.00    +0.064 C 
BRANCH  17  18
ATOM     18  N   LIG    1        8.645  -6.362  11.346  0.00  0.00    -0.321 NA
ATOM     19  H   LIG    1        8.463  -5.379  11.565  0.00  0.00    +0.119 HD
ATOM     20  H   LIG    1        7.800  -6.664  10.857  0.00  0.00    +0.119 HD
ENDBRANCH  17  18
BRANCH  17  21
ATOM     21  C   LIG    1       11.039  -5.872  11.122  0.00  0.00    +0.180 C 
BRANCH  21  22
ATOM     22  O   LIG    1       11.327  -6.640  12.290  0.00  0.00    -0.393 OA
ATOM     23  H   LIG    1       10.456  -6.842  12.687  0.00  0.00    +0.209 HD
ENDBRANCH  21  22
ENDBRANCH  17  21
BRANCH  17  24
ATOM     24  C   LIG    1       10.013  -7.918  10.013  0.00  0.00    +0.180 C 
BRANCH  24  25
ATOM     25  O   LIG    1        8.843  -8.462   9.398  0.00  0.00    -0.393 OA
ATOM     26  H   LIG    1        8.189  -8.555  10.113  0.00  0.00    +0.209 HD
ENDBRANCH  24  25
ENDBRANCH  17  24
ENDBRANCH  16  17
ENDBRANCH  15  16
ENDBRANCH   4  15
TORSDOF 15
