REMARK  Name = *****
REMARK                            x       y       z     vdW  Elec       q    Type
REMARK                         _______ _______ _______ _____ _____    ______ ____
ROOT
ATOM      1  C   LIG    1        4.524  -0.981   1.553  0.00  0.00    +0.066 A 
ATOM      2  C   LIG    1        5.082  -2.300   1.448  0.00  0.00    +0.077 A 
ATOM      3  N   LIG    1        6.418  -2.284   1.474  0.00  0.00    -0.170 NA
ATOM      4  N   LIG    1        6.767  -0.994   1.614  0.00  0.00    -0.239 N 
ATOM      5  C   LIG    1        8.074  -0.504   1.633  0.00  0.00    +0.113 A 
ATOM      6  C   LIG    1        8.304   0.809   1.772  0.00  0.00    +0.020 A 
ATOM      7  C   LIG    1        7.169   1.690   1.942  0.00  0.00    +0.004 A 
ATOM      8  C   LIG    1        5.905   1.228   1.936  0.00  0.00    +0.028 A 
ATOM      9  C   LIG    1        5.641  -0.166   1.723  0.00  0.00    +0.078 A 
ENDROOT
BRANCH   2  10
ATOM     10  C   LIG    1        4.378  -3.631   1.303  0.00  0.00    +0.034 C 
ATOM     11  C   LIG    1        5.118  -4.758   2.039  0.00  0.00    +0.014 C 
ATOM     12  C   LIG    1        4.181  -4.005  -0.168  0.00  0.00    +0.014 C 
ENDBRANCH   2  10
BRANCH   1  13
ATOM     13  C   LIG    1        3.096  -0.638   1.477  0.00  0.00    +0.170 C 
ATOM     14  O   LIG    1        2.256  -1.522   1.331  0.00  0.00    -0.292 OA
BRANCH  13  16
ATOM     15  C   LIG    1        1.352   1.030   0.752  0.00  0.00    +0.015 C 
ATOM     16  C   LIG    1        2.626   0.814   1.570  0.00  0.00    +0.054 C 
ATOM     17  C   LIG    1        2.384   1.191   3.029  0.00  0.00    +0.015 C 
ENDBRANCH  13  16
ENDBRANCH   1  13
TORSDOF 3
