REMARK  Name = *****
REMARK                            x       y       z     vdW  Elec       q    Type
REMARK                         _______ _______ _______ _____ _____    ______ ____
ROOT
ATOM      1  O   LIG    1        2.598  -1.613  -1.440  0.00  0.00    -0.270 OA
ATOM      2  C   LIG    1        3.773  -1.816  -1.135  0.00  0.00    +0.244 C 
ATOM      3  N   LIG    1        4.156  -2.332   0.084  0.00  0.00    -0.310 N 
ATOM      4  H   LIG    1        5.088  -2.707   0.213  0.00  0.00    +0.149 HD
ENDROOT
BRANCH   2   5
ATOM      5  C   LIG    1        4.851  -1.510  -2.117  0.00  0.00    +0.037 A 
ATOM      6  C   LIG    1        4.526  -1.487  -3.482  0.00  0.00    +0.014 A 
ATOM      7  C   LIG    1        5.500  -1.179  -4.438  0.00  0.00    +0.021 A 
ATOM      8  C   LIG    1        6.797  -0.879  -4.028  0.00  0.00    +0.041 A 
ATOM      9 CL   LIG    1        7.997  -0.497  -5.200  0.00  0.00    -0.084 Cl
ATOM     10  C   LIG    1        7.128  -0.881  -2.673  0.00  0.00    +0.021 A 
ATOM     11  C   LIG    1        6.156  -1.195  -1.715  0.00  0.00    +0.014 A 
ENDBRANCH   2   5
BRANCH   3  12
ATOM     12  C   LIG    1        3.170  -2.704   1.085  0.00  0.00    +0.120 C 
BRANCH  12  13
ATOM     13  C   LIG    1        3.758  -2.725   2.512  0.00  0.00    +0.103 C 
BRANCH  13  14
ATOM     14  N   LIG    1        4.917  -3.624   2.696  0.00  0.00    -0.296 NA
ATOM     15  C   LIG    1        5.526  -3.445   4.039  0.00  0.00    +0.112 C 
ATOM     16  C   LIG    1        4.790  -4.147   5.198  0.00  0.00    +0.175 C 
ATOM     17  O   LIG    1        4.580  -5.536   4.924  0.00  0.00    -0.377 OA
ATOM     18  C   LIG    1        3.841  -5.695   3.709  0.00  0.00    +0.175 C 
ATOM     19  C   LIG    1        4.589  -5.059   2.525  0.00  0.00    +0.112 C 
ENDBRANCH  13  14
ENDBRANCH  12  13
ENDBRANCH   3  12
TORSDOF 4
