REMARK  Name = *****
REMARK                            x       y       z     vdW  Elec       q    Type
REMARK                         _______ _______ _______ _____ _____    ______ ____
ROOT
ATOM      1  C   LIG    1        3.494   0.023   1.322  0.00  0.00    +0.034 C 
ATOM      2  C   LIG    1        2.485  -0.185   0.192  0.00  0.00    +0.122 C 
ATOM      3  N   LIG    1        2.773  -1.441  -0.521  0.00  0.00    -0.337 NA
ATOM      4  C   LIG    1        3.633  -1.328  -1.639  0.00  0.00    +0.097 C 
ATOM      5  C   LIG    1        4.064  -2.490  -2.296  0.00  0.00    +0.052 C 
ATOM      6  C   LIG    1        3.608  -3.814  -1.809  0.00  0.00    +0.204 C 
ATOM      7  C   LIG    1        2.739  -3.864  -0.613  0.00  0.00    +0.122 C 
ATOM      8  O   LIG    1        3.944  -4.856  -2.369  0.00  0.00    -0.286 OA
ATOM      9  C   LIG    1        4.928  -2.422  -3.387  0.00  0.00    +0.054 C 
ATOM     10  C   LIG    1        5.384  -1.183  -3.825  0.00  0.00    +0.149 C 
ATOM     11  F   LIG    1        6.201  -1.182  -4.889  0.00  0.00    -0.203 F 
ATOM     12  C   LIG    1        4.993   0.024  -3.214  0.00  0.00    +0.110 C 
ATOM     13  C   LIG    1        4.090  -0.079  -2.121  0.00  0.00    +0.168 C 
ATOM     14  O   LIG    1        3.720   1.102  -1.499  0.00  0.00    -0.486 OA
ATOM     15  C   LIG    1        2.393  -2.690  -0.063  0.00  0.00    +0.105 C 
ATOM     16  C   LIG    1        2.479   0.981  -0.801  0.00  0.00    +0.254 C 
ENDROOT
BRANCH  12  17
ATOM     17  N   LIG    1        5.446   1.294  -3.633  0.00  0.00    -0.322 NA
ATOM     18  C   LIG    1        4.428   2.061  -4.384  0.00  0.00    +0.120 C 
ATOM     19  C   LIG    1        4.889   3.528  -4.574  0.00  0.00    +0.103 C 
ATOM     20  N   LIG    1        6.242   3.711  -5.151  0.00  0.00    -0.302 NA
ATOM     21  C   LIG    1        6.265   3.401  -6.578  0.00  0.00    +0.105 C 
ATOM     22  C   LIG    1        7.200   2.871  -4.393  0.00  0.00    +0.103 C 
ATOM     23  C   LIG    1        6.790   1.386  -4.237  0.00  0.00    +0.120 C 
ENDBRANCH  12  17
BRANCH   7  24
ATOM     24  C   LIG    1        2.257  -5.119  -0.001  0.00  0.00    +0.342 C 
ATOM     25  O   LIG    1        1.554  -5.152   0.999  0.00  0.00    -0.245 OA
BRANCH  24  26
ATOM     26  O   LIG    1        2.657  -6.242  -0.636  0.00  0.00    -0.477 OA
ATOM     27  H   LIG    1        3.221  -6.077  -1.431  0.00  0.00    +0.295 HD
ENDBRANCH  24  26
ENDBRANCH   7  24
TORSDOF 3
