REMARK  Name = *****
REMARK                            x       y       z     vdW  Elec       q    Type
REMARK                         _______ _______ _______ _____ _____    ______ ____
ROOT
ATOM      1  C   LIG    1        7.245   4.030  -1.695  0.00  0.00    +0.022 C 
ATOM      2  C   LIG    1        6.454   4.941  -2.595  0.00  0.00    -0.034 A 
ATOM      3  C   LIG    1        6.201   6.198  -1.995  0.00  0.00    -0.043 A 
ATOM      4  C   LIG    1        5.492   7.278  -2.494  0.00  0.00    +0.007 A 
ATOM      5  C   LIG    1        4.987   7.126  -3.760  0.00  0.00    +0.046 A 
ATOM      6  C   LIG    1        5.284   5.935  -4.392  0.00  0.00    +0.124 A 
ATOM      7  O   LIG    1        4.865   5.742  -5.704  0.00  0.00    -0.491 OA
ATOM      8  C   LIG    1        5.195   4.366  -6.021  0.00  0.00    +0.234 C 
ATOM      9  C   LIG    1        6.169   3.823  -4.970  0.00  0.00    +0.080 C 
ATOM     10  C   LIG    1        6.851   6.266  -0.641  0.00  0.00    +0.036 C 
ATOM     11  C   LIG    1        6.017   4.841  -3.922  0.00  0.00    +0.001 A 
ATOM     12  C   LIG    1        7.810   5.051  -0.658  0.00  0.00    +0.013 C 
ENDROOT
BRANCH   1  13
ATOM     13  C   LIG    1        6.381   2.978  -0.982  0.00  0.00    +0.027 C 
BRANCH  13  14
ATOM     14  C   LIG    1        5.813   1.919  -1.924  0.00  0.00    +0.104 C 
BRANCH  14  16
ATOM     15  C   LIG    1        5.604  -0.202  -0.655  0.00  0.00    +0.213 C 
ATOM     16  N   LIG    1        5.037   0.920  -1.219  0.00  0.00    -0.315 N 
ATOM     17  H   LIG    1        4.042   1.073  -1.117  0.00  0.00    +0.149 HD
ATOM     18  O   LIG    1        6.805  -0.447  -0.694  0.00  0.00    -0.276 OA
BRANCH  15  20
ATOM     19  C   LIG    1        5.189  -2.345   0.620  0.00  0.00    +0.013 C 
ATOM     20  C   LIG    1        4.575  -1.096   0.013  0.00  0.00    +0.092 C 
ENDBRANCH  15  20
ENDBRANCH  14  16
ENDBRANCH  13  14
ENDBRANCH   1  13
TORSDOF 4
