REMARK  Name = *****
REMARK                            x       y       z     vdW  Elec       q    Type
REMARK                         _______ _______ _______ _____ _____    ______ ____
ROOT
ATOM      1  C   UNK A  0        8.687   2.105  -0.585  0.00  0.00    -0.047 A 
ATOM      2  C   UNK A  0        9.459   2.490   0.521  0.00  0.00    +0.004 A 
ATOM      3  C   UNK A  0       10.406   3.525   0.425  0.00  0.00    +0.013 A 
ATOM      4  C   UNK A  0       10.582   4.221  -0.779  0.00  0.00    +0.037 A 
ATOM      5  C   UNK A  0        9.768   3.882  -1.868  0.00  0.00    +0.013 A 
ATOM      6  C   UNK A  0        8.855   2.816  -1.782  0.00  0.00    +0.004 A 
ENDROOT
BRANCH   4   7
ATOM      7  C   UNK A  0       11.634   5.281  -0.969  0.00  0.00    +0.245 C 
ATOM      8  N   GLU A  1       12.790   5.149  -0.230  0.00  0.00    -0.298 N 
ATOM      9  H   GLU A  1       12.871   4.340   0.369  0.00  0.00    +0.150 HD
ATOM     10  O   UNK A  0       11.525   6.158  -1.819  0.00  0.00    -0.270 OA
BRANCH   8  11
ATOM     11  CA  GLU A  1       13.953   6.058  -0.313  0.00  0.00    +0.182 C 
BRANCH  11  12
ATOM     12  C   GLU A  1       14.918   5.813  -1.499  0.00  0.00    +0.325 C 
ATOM     13  O   GLU A  1       16.140   5.867  -1.415  0.00  0.00    -0.249 OA
BRANCH  12  14
ATOM     14  OXT GLU A  1       14.301   5.675  -2.697  0.00  0.00    -0.479 OA
ATOM     15  HXT GLU A  1       13.333   5.848  -2.648  0.00  0.00    +0.295 HD
ENDBRANCH  12  14
ENDBRANCH  11  12
BRANCH  11  16
ATOM     16  CB  GLU A  1       14.710   6.106   1.032  0.00  0.00    +0.045 C 
BRANCH  16  17
ATOM     17  CG  GLU A  1       15.260   4.757   1.520  0.00  0.00    +0.123 C 
BRANCH  17  18
ATOM     18  CD  GLU A  1       16.006   4.832   2.829  0.00  0.00    +0.305 C 
ATOM     19  OE1 GLU A  1       16.901   4.077   3.176  0.00  0.00    -0.251 OA
BRANCH  18  20
ATOM     20  OE2 GLU A  1       15.530   5.749   3.689  0.00  0.00    -0.481 OA
ATOM     21  HE2 GLU A  1       16.106   5.649   4.478  0.00  0.00    +0.295 HD
ENDBRANCH  18  20
ENDBRANCH  17  18
ENDBRANCH  16  17
ENDBRANCH  11  16
ENDBRANCH   8  11
ENDBRANCH   4   7
BRANCH   1  22
ATOM     22  C   UNK A  0        7.657   0.992  -0.473  0.00  0.00    +0.040 C 
BRANCH  22  23
ATOM     23  C   UNK A  0        8.242  -0.363  -0.054  0.00  0.00    +0.042 C 
BRANCH  23  34
ATOM     24  C   UNK A  0        5.422  -4.287  -2.314  0.00  0.00    +0.195 C 
ATOM     25  N   UNK A  0        6.233  -3.406  -2.999  0.00  0.00    -0.295 N 
ATOM     26  H   UNK A  0        6.364  -3.510  -3.990  0.00  0.00    +0.172 HD
ATOM     27  C   UNK A  0        6.949  -2.390  -2.400  0.00  0.00    +0.262 C 
ATOM     28  O   UNK A  0        7.670  -1.617  -3.045  0.00  0.00    -0.267 OA
ATOM     29  C   UNK A  0        6.740  -2.307  -0.978  0.00  0.00    +0.086 C 
ATOM     30  C   UNK A  0        5.890  -3.234  -0.416  0.00  0.00    +0.147 C 
ATOM     31  N   UNK A  0        5.789  -2.963   0.915  0.00  0.00    -0.345 NA
ATOM     32  H   UNK A  0        5.232  -3.503   1.562  0.00  0.00    +0.167 HD
ATOM     33  C   UNK A  0        6.530  -1.841   1.204  0.00  0.00    +0.088 C 
ATOM     34  C   UNK A  0        7.214  -1.453   0.060  0.00  0.00    -0.015 C 
ATOM     35  N   UNK A  0        5.227  -4.240  -1.026  0.00  0.00    -0.198 NA
BRANCH  24  36
ATOM     36  N   UNK A  0        4.795  -5.238  -3.052  0.00  0.00    -0.329 NA
ATOM     37  H   UNK A  0        4.457  -4.950  -3.961  0.00  0.00    +0.145 HD
ATOM     38  H   UNK A  0        4.080  -5.711  -2.507  0.00  0.00    +0.145 HD
ENDBRANCH  24  36
ENDBRANCH  23  34
ENDBRANCH  22  23
ENDBRANCH   1  22
TORSDOF 12
