REMARK  Name = *****
REMARK                            x       y       z     vdW  Elec       q    Type
REMARK                         _______ _______ _______ _____ _____    ______ ____
ROOT
ATOM      1  P   LIG    1        7.569   2.142  -9.321  0.00  0.00    +0.363 P 
ATOM      2  O   LIG    1        6.838   1.028 -10.010  0.00  0.00    -0.256 OA
ENDROOT
BRANCH   1   3
ATOM      3  C   LIG    1        7.184   2.362  -7.574  0.00  0.00    +0.287 C 
BRANCH   3   4
ATOM      4  O   LIG    1        5.764   2.445  -7.425  0.00  0.00    -0.363 OA
BRANCH   4   5
ATOM      5  C   LIG    1        5.334   2.699  -6.080  0.00  0.00    +0.136 C 
ATOM      6  C   LIG    1        5.800   1.582  -5.132  0.00  0.00    +0.039 C 
BRANCH   5   7
ATOM      7  C   LIG    1        3.797   2.789  -6.093  0.00  0.00    +0.156 C 
BRANCH   7   8
ATOM      8  N   LIG    1        3.256   3.823  -6.959  0.00  0.00    -0.312 N 
ATOM      9  C   LIG    1        3.406   5.175  -6.800  0.00  0.00    +0.165 A 
ATOM     10  N   LIG    1        4.169   5.828  -5.908  0.00  0.00    -0.216 NA
ATOM     11  C   LIG    1        4.032   7.165  -6.054  0.00  0.00    +0.225 A 
ATOM     12  N   LIG    1        3.240   7.846  -6.913  0.00  0.00    -0.219 NA
ATOM     13  C   LIG    1        2.496   7.137  -7.790  0.00  0.00    +0.147 A 
ATOM     14  C   LIG    1        2.574   5.737  -7.755  0.00  0.00    +0.147 A 
ATOM     15  N   LIG    1        1.940   4.764  -8.495  0.00  0.00    -0.231 NA
ATOM     16  C   LIG    1        2.402   3.629  -8.016  0.00  0.00    +0.201 A 
BRANCH  13  17
ATOM     17  N   LIG    1        1.655   7.812  -8.669  0.00  0.00    -0.341 N 
ATOM     18  H   LIG    1        0.913   7.216  -9.021  0.00  0.00    +0.144 HD
ATOM     19  H   LIG    1        1.391   8.724  -8.321  0.00  0.00    +0.144 HD
ENDBRANCH  13  17
ENDBRANCH   7   8
ENDBRANCH   5   7
ENDBRANCH   4   5
ENDBRANCH   3   4
ENDBRANCH   1   3
BRANCH   1  20
ATOM     20  O   LIG    1        7.370   3.598  -9.977  0.00  0.00    -0.268 OA
BRANCH  20  21
ATOM     21  C   LIG    1        6.171   3.797 -10.689  0.00  0.00    +0.410 C 
BRANCH  21  22
ATOM     22  O   LIG    1        6.077   5.141 -11.141  0.00  0.00    -0.406 OA
BRANCH  22  23
ATOM     23  C   LIG    1        6.180   5.300 -12.495  0.00  0.00    +0.512 C 
ATOM     24  O   LIG    1        6.544   4.474 -13.298  0.00  0.00    -0.203 OA
BRANCH  23  25
ATOM     25  O   LIG    1        5.780   6.573 -12.740  0.00  0.00    -0.431 OA
BRANCH  25  26
ATOM     26  C   LIG    1        5.988   7.071 -14.069  0.00  0.00    +0.174 C 
ATOM     27  C   LIG    1        6.694   8.413 -13.922  0.00  0.00    +0.052 C 
ATOM     28  C   LIG    1        4.646   7.225 -14.772  0.00  0.00    +0.052 C 
ENDBRANCH  25  26
ENDBRANCH  23  25
ENDBRANCH  22  23
ENDBRANCH  21  22
ENDBRANCH  20  21
ENDBRANCH   1  20
BRANCH   1  29
ATOM     29  O   LIG    1        9.174   1.988  -9.375  0.00  0.00    -0.268 OA
BRANCH  29  30
ATOM     30  C   LIG    1        9.712   0.805  -8.820  0.00  0.00    +0.410 C 
BRANCH  30  31
ATOM     31  O   LIG    1       11.129   0.790  -8.969  0.00  0.00    -0.406 OA
BRANCH  31  32
ATOM     32  C   LIG    1       11.812   0.827  -7.803  0.00  0.00    +0.512 C 
ATOM     33  O   LIG    1       11.318   0.799  -6.684  0.00  0.00    -0.203 OA
BRANCH  32  34
ATOM     34  O   LIG    1       13.128   1.000  -8.081  0.00  0.00    -0.431 OA
BRANCH  34  36
ATOM     35  C   LIG    1       14.224   0.639  -5.904  0.00  0.00    +0.052 C 
ATOM     36  C   LIG    1       13.898   1.612  -7.032  0.00  0.00    +0.174 C 
ATOM     37  C   LIG    1       15.178   2.144  -7.668  0.00  0.00    +0.052 C 
ENDBRANCH  34  36
ENDBRANCH  32  34
ENDBRANCH  31  32
ENDBRANCH  30  31
ENDBRANCH  29  30
ENDBRANCH   1  29
TORSDOF 18
