REMARK  Name = *****
REMARK                            x       y       z     vdW  Elec       q    Type
REMARK                         _______ _______ _______ _____ _____    ______ ____
ROOT
ATOM      1  C   LIG    1       -0.074   2.358  -1.204  0.00  0.00    +0.044 C 
ATOM      2  C   LIG    1        0.519   1.591  -0.050  0.00  0.00    -0.050 C 
ATOM      3  C   LIG    1        0.930   2.295   1.031  0.00  0.00    +0.003 C 
ENDROOT
BRANCH   3   4
ATOM      4  C   LIG    1        1.524   1.807   2.262  0.00  0.00    +0.001 C 
ATOM      5  C   LIG    1        1.891   2.535   3.330  0.00  0.00    +0.003 C 
BRANCH   5   6
ATOM      6  C   LIG    1        1.790   3.972   3.532  0.00  0.00    -0.044 C 
ATOM      7  C   LIG    1        2.856   4.757   3.781  0.00  0.00    +0.094 C 
ATOM      8  C   LIG    1        0.397   4.550   3.585  0.00  0.00    +0.044 C 
BRANCH   7   9
ATOM      9  C   LIG    1        4.260   4.310   3.866  0.00  0.00    +0.330 C 
ATOM     10  O   LIG    1        4.753   3.267   3.509  0.00  0.00    -0.246 OA
BRANCH   9  11
ATOM     11  O   LIG    1        4.992   5.257   4.486  0.00  0.00    -0.477 OA
ATOM     12  H   LIG    1        5.881   4.846   4.530  0.00  0.00    +0.295 HD
ENDBRANCH   9  11
ENDBRANCH   7   9
ENDBRANCH   5   6
ENDBRANCH   3   4
BRANCH   2  13
ATOM     13  C   LIG    1        0.690   0.147  -0.168  0.00  0.00    +0.003 C 
ATOM     14  C   LIG    1        0.037  -0.827  -0.826  0.00  0.00    +0.004 C 
BRANCH  14  15
ATOM     15  C   LIG    1       -1.131  -0.876  -1.705  0.00  0.00    -0.043 C 
ATOM     16  C   LIG    1       -0.896  -1.599  -3.069  0.00  0.00    -0.010 C 
ATOM     17  C   LIG    1       -0.157  -0.641  -4.027  0.00  0.00    +0.016 C 
ATOM     18  C   LIG    1       -0.053  -2.897  -2.956  0.00  0.00    +0.016 C 
ATOM     19  C   LIG    1       -2.236  -2.044  -3.721  0.00  0.00    +0.011 C 
ATOM     20  C   LIG    1       -3.288  -0.954  -3.677  0.00  0.00    +0.005 C 
ATOM     21  C   LIG    1       -3.585  -0.579  -2.235  0.00  0.00    +0.031 C 
ATOM     22  C   LIG    1       -2.370  -0.465  -1.332  0.00  0.00    -0.069 C 
ATOM     23  C   LIG    1       -2.747   0.104   0.015  0.00  0.00    +0.039 C 
ENDBRANCH  14  15
ENDBRANCH   2  13
TORSDOF 6
