REMARK  Name = *****
REMARK                            x       y       z     vdW  Elec       q    Type
REMARK                         _______ _______ _______ _____ _____    ______ ____
ROOT
ATOM      1  C   LIG    1        1.227   0.455  -0.427  0.00  0.00    +0.105 C 
ATOM      2  N   LIG    1        2.540   0.017   0.069  0.00  0.00    -0.297 NA
ENDROOT
BRANCH   2   3
ATOM      3  C   LIG    1        3.238  -0.686  -1.029  0.00  0.00    +0.120 C 
BRANCH   3   4
ATOM      4  C   LIG    1        4.660  -1.135  -0.725  0.00  0.00    -0.026 A 
ATOM      5  C   LIG    1        5.702  -0.229  -0.376  0.00  0.00    -0.013 A 
ATOM      6  C   LIG    1        6.995  -0.748  -0.103  0.00  0.00    -0.018 A 
ATOM      7  C   LIG    1        8.029   0.111   0.301  0.00  0.00    +0.008 A 
ATOM      8  C   LIG    1        7.808   1.477   0.459  0.00  0.00    +0.001 A 
ATOM      9  C   LIG    1        6.558   2.007   0.169  0.00  0.00    +0.001 A 
ATOM     10  C   LIG    1        7.238  -2.124  -0.220  0.00  0.00    +0.008 A 
ATOM     11  C   LIG    1        6.217  -3.003  -0.565  0.00  0.00    +0.001 A 
ATOM     12  C   LIG    1        5.527   1.169  -0.262  0.00  0.00    +0.009 A 
ATOM     13  C   LIG    1        4.938  -2.514  -0.806  0.00  0.00    +0.005 A 
ENDBRANCH   3   4
ENDBRANCH   2   3
BRANCH   2  14
ATOM     14  C   LIG    1        2.409  -0.847   1.255  0.00  0.00    +0.112 C 
BRANCH  14  15
ATOM     15  C   LIG    1        1.749  -0.155   2.416  0.00  0.00    -0.003 C 
ATOM     16  C   LIG    1        0.438  -0.274   2.672  0.00  0.00    +0.057 C 
BRANCH  16  17
ATOM     17  C   LIG    1       -0.208   0.418   3.727  0.00  0.00    -0.074 C 
ATOM     18  C   LIG    1       -0.833   0.992   4.567  0.00  0.00    -0.092 C 
BRANCH  18  19
ATOM     19  C   LIG    1       -1.673   1.685   5.571  0.00  0.00    +0.024 C 
ATOM     20  C   LIG    1       -0.788   2.565   6.463  0.00  0.00    +0.024 C 
ATOM     21  C   LIG    1       -2.397   0.637   6.428  0.00  0.00    +0.024 C 
ATOM     22  C   LIG    1       -2.707   2.557   4.845  0.00  0.00    +0.024 C 
ENDBRANCH  18  19
ENDBRANCH  16  17
ENDBRANCH  14  15
ENDBRANCH   2  14
TORSDOF 6
