REMARK  Name = *****
REMARK                            x       y       z     vdW  Elec       q    Type
REMARK                         _______ _______ _______ _____ _____    ______ ____
ROOT
ATOM      1  C   LIG    1        6.943  -1.986   5.904  0.00  0.00    -0.007 A 
ATOM      2  C   LIG    1        7.848  -3.038   5.949  0.00  0.00    +0.122 A 
ATOM      3  N   LIG    1        9.111  -2.927   6.431  0.00  0.00    -0.221 NA
ATOM      4  C   LIG    1        9.476  -1.718   6.902  0.00  0.00    +0.215 A 
ATOM      5  C   LIG    1        8.607  -0.646   6.997  0.00  0.00    +0.068 A 
ATOM      6  C   LIG    1        7.332  -0.777   6.470  0.00  0.00    +0.015 A 
ENDROOT
BRANCH   1   8
ATOM      7  C   LIG    1        4.501  -2.108   5.926  0.00  0.00    +0.008 C 
ATOM      8  C   LIG    1        5.650  -2.074   5.236  0.00  0.00    +0.010 C 
BRANCH   7  12
ATOM      9  C   LIG    1        0.531  -1.606   4.320  0.00  0.00    +0.027 A 
ATOM     10  C   LIG    1        0.843  -1.310   5.649  0.00  0.00    +0.023 A 
ATOM     11  C   LIG    1        2.133  -1.502   6.152  0.00  0.00    +0.009 A 
ATOM     12  C   LIG    1        3.164  -1.967   5.331  0.00  0.00    -0.025 A 
ATOM     13  C   LIG    1        2.872  -2.232   3.989  0.00  0.00    +0.009 A 
ATOM     14  C   LIG    1        1.576  -2.034   3.491  0.00  0.00    +0.023 A 
BRANCH   9  16
ATOM     15  C   LIG    1       -1.887  -1.387   4.629  0.00  0.00    +0.125 C 
ATOM     16  N   LIG    1       -0.726  -1.360   3.754  0.00  0.00    -0.347 N 
ATOM     17  H   LIG    1       -0.868  -1.899   2.904  0.00  0.00    +0.146 HD
ENDBRANCH   9  16
ENDBRANCH   7  12
ENDBRANCH   1   8
BRANCH   4  18
ATOM     18  O   LIG    1       10.773  -1.620   7.325  0.00  0.00    -0.474 OA
BRANCH  18  19
ATOM     19  C   LIG    1       11.528  -0.628   6.610  0.00  0.00    +0.259 C 
BRANCH  19  20
ATOM     20  C   LIG    1       11.677   0.689   7.391  0.00  0.00    +0.201 C 
BRANCH  20  21
ATOM     21  O   LIG    1       12.409   0.580   8.616  0.00  0.00    -0.374 OA
BRANCH  21  22
ATOM     22  C   LIG    1       11.771  -0.253   9.592  0.00  0.00    +0.188 C 
BRANCH  22  23
ATOM     23  C   LIG    1       12.135   0.208  10.998  0.00  0.00    +0.188 C 
BRANCH  23  24
ATOM     24  O   LIG    1       13.467  -0.188  11.338  0.00  0.00    -0.375 OA
BRANCH  24  25
ATOM     25  C   LIG    1       13.819   0.287  12.640  0.00  0.00    +0.193 C 
BRANCH  25  26
ATOM     26  C   LIG    1       15.261  -0.064  12.962  0.00  0.00    +0.241 C 
ATOM     27  F   LIG    1       16.096   0.706  12.210  0.00  0.00    -0.247 F 
ENDBRANCH  25  26
ENDBRANCH  24  25
ENDBRANCH  23  24
ENDBRANCH  22  23
ENDBRANCH  21  22
ENDBRANCH  20  21
ENDBRANCH  19  20
ENDBRANCH  18  19
ENDBRANCH   4  18
TORSDOF 12
