REMARK  Name = *****
REMARK                            x       y       z     vdW  Elec       q    Type
REMARK                         _______ _______ _______ _____ _____    ______ ____
ROOT
ATOM      1  C   LIG    1        0.393   4.221  -0.520  0.00  0.00    +0.114 C 
ENDROOT
BRANCH   1   2
ATOM      2  C   LIG    1       -1.169   4.056  -0.661  0.00  0.00    +0.061 A 
ATOM      3  N   LIG    1       -1.781   3.215   0.222  0.00  0.00    -0.259 NA
ATOM      4  C   LIG    1       -3.110   2.982   0.092  0.00  0.00    +0.111 A 
ATOM      5  C   LIG    1       -3.901   3.568  -0.874  0.00  0.00    +0.020 A 
ATOM      6  C   LIG    1       -3.293   4.448  -1.754  0.00  0.00    +0.003 A 
ATOM      7  C   LIG    1       -1.922   4.699  -1.649  0.00  0.00    +0.025 A 
ENDBRANCH   1   2
BRANCH   1   8
ATOM      8  C   LIG    1        0.956   5.257  -1.549  0.00  0.00    -0.027 A 
ATOM      9  C   LIG    1        1.295   4.879  -2.865  0.00  0.00    +0.005 A 
ATOM     10  C   LIG    1        1.673   5.823  -3.830  0.00  0.00    +0.000 A 
ATOM     11  C   LIG    1        1.739   7.172  -3.506  0.00  0.00    +0.000 A 
ATOM     12  C   LIG    1        1.418   7.580  -2.217  0.00  0.00    +0.000 A 
ATOM     13  C   LIG    1        1.016   6.639  -1.257  0.00  0.00    +0.005 A 
ENDBRANCH   1   8
BRANCH   1  14
ATOM     14  C   LIG    1        0.717   4.659   0.947  0.00  0.00    +0.227 C 
ATOM     15  O   LIG    1        1.762   4.353   1.558  0.00  0.00    -0.275 OA
ATOM     16  N   LIG    1       -0.119   5.534   1.581  0.00  0.00    -0.328 N 
ATOM     17  H   LIG    1        0.080   5.693   2.560  0.00  0.00    +0.145 HD
ATOM     18  H   LIG    1       -1.091   5.614   1.294  0.00  0.00    +0.145 HD
ENDBRANCH   1  14
BRANCH   1  19
ATOM     19  C   LIG    1        0.946   2.744  -0.735  0.00  0.00    +0.042 C 
BRANCH  19  20
ATOM     20  C   LIG    1        2.454   2.423  -0.608  0.00  0.00    +0.086 C 
BRANCH  20  21
ATOM     21  N   LIG    1        2.832   0.986  -0.798  0.00  0.00    -0.297 NA
BRANCH  21  23
ATOM     22  C   LIG    1        3.124   1.019  -3.326  0.00  0.00    +0.024 C 
ATOM     23  C   LIG    1        2.449   0.375  -2.100  0.00  0.00    +0.051 C 
ATOM     24  C   LIG    1        2.746  -1.138  -2.219  0.00  0.00    +0.024 C 
ENDBRANCH  21  23
BRANCH  21  25
ATOM     25  C   LIG    1        2.704   0.100   0.394  0.00  0.00    +0.051 C 
ATOM     26  C   LIG    1        1.373  -0.657   0.565  0.00  0.00    +0.024 C 
ATOM     27  C   LIG    1        3.050   0.729   1.753  0.00  0.00    +0.024 C 
ENDBRANCH  21  25
ENDBRANCH  20  21
ENDBRANCH  19  20
ENDBRANCH   1  19
TORSDOF 8
