REMARK  Name = *****
REMARK                            x       y       z     vdW  Elec       q    Type
REMARK                         _______ _______ _______ _____ _____    ______ ____
ROOT
ATOM      1  C   LIG    1        0.770  -0.126  -0.106  0.00  0.00    +0.192 C 
ATOM      2  N   LIG    1        2.294  -0.207  -0.203  0.00  0.00    +0.238 N 
ATOM      3  C   LIG    1        2.718   0.240  -1.592  0.00  0.00    +0.192 C 
ATOM      4  C   LIG    1        2.707  -1.662   0.009  0.00  0.00    +0.192 C 
ENDROOT
BRANCH   2   5
ATOM      5  C   LIG    1        2.885   0.712   0.898  0.00  0.00    +0.160 C 
BRANCH   5   6
ATOM      6  C   LIG    1        4.422   0.753   0.961  0.00  0.00    +0.206 C 
BRANCH   6   7
ATOM      7  O   LIG    1        4.952  -0.505   1.359  0.00  0.00    -0.390 OA
ATOM      8  H   LIG    1        5.907  -0.385   1.517  0.00  0.00    +0.210 HD
ENDBRANCH   6   7
ENDBRANCH   5   6
ENDBRANCH   2   5
TORSDOF 3
