REMARK  Name = *****
REMARK                            x       y       z     vdW  Elec       q    Type
REMARK                         _______ _______ _______ _____ _____    ______ ____
ROOT
ATOM      1  C   LIG    1       -9.430   3.161   9.095  0.00  0.00    +0.040 C 
ATOM      2  C   LIG    1       -8.166   4.012   9.207  0.00  0.00    +0.150 C 
ATOM      3  C   LIG    1       -7.575   4.367   7.820  0.00  0.00    +0.178 C 
ATOM      4  C   LIG    1       -6.081   4.779   7.948  0.00  0.00    +0.151 C 
ATOM      5  C   LIG    1       -5.275   3.929   8.902  0.00  0.00    +0.095 C 
ATOM      6  C   LIG    1       -6.019   3.955  10.205  0.00  0.00    +0.253 C 
ATOM      7  O   LIG    1       -7.250   3.254  10.008  0.00  0.00    -0.346 OA
ENDROOT
BRANCH   4   8
ATOM      8  O   LIG    1       -6.003   6.149   8.391  0.00  0.00    -0.389 OA
ATOM      9  H   LIG    1       -6.657   6.625   7.838  0.00  0.00    +0.210 HD
ENDBRANCH   4   8
BRANCH   6  10
ATOM     10  O   LIG    1       -5.223   3.395  11.260  0.00  0.00    -0.348 OA
BRANCH  10  11
ATOM     11  C   LIG    1       -5.976   3.407  12.477  0.00  0.00    +0.122 C 
ATOM     12  C   LIG    1       -6.479   4.831  12.816  0.00  0.00    +0.035 C 
ATOM     13  C   LIG    1       -6.559   4.995  14.306  0.00  0.00    -0.002 C 
ATOM     14  C   LIG    1       -6.680   6.437  14.797  0.00  0.00    +0.004 C 
ATOM     15  C   LIG    1       -7.764   6.696  15.797  0.00  0.00    +0.007 C 
ATOM     16  C   LIG    1       -7.869   5.611  16.854  0.00  0.00    +0.025 C 
ATOM     17  C   LIG    1       -8.965   5.874  17.924  0.00  0.00    +0.077 C 
ATOM     18  C   LIG    1      -10.385   6.167  17.337  0.00  0.00    +0.029 C 
ATOM     19  C   LIG    1      -10.621   7.656  16.837  0.00  0.00    +0.017 C 
ATOM     20  C   LIG    1      -11.275   6.066  18.617  0.00  0.00    +0.030 C 
ATOM     21  C   LIG    1      -10.352   6.800  19.664  0.00  0.00    +0.011 C 
ATOM     22  C   LIG    1      -10.649   5.299  16.105  0.00  0.00    +0.124 C 
ATOM     23  C   LIG    1       -9.754   4.069  15.961  0.00  0.00    +0.036 C 
ATOM     24  C   LIG    1       -8.906   6.898  19.048  0.00  0.00    +0.036 C 
ATOM     25  C   LIG    1       -8.170   4.208  16.195  0.00  0.00    +0.003 C 
ATOM     26  C   LIG    1       -7.277   3.762  14.962  0.00  0.00    -0.026 C 
ATOM     27  C   LIG    1       -8.166   2.732  14.159  0.00  0.00    +0.012 C 
ATOM     28  C   LIG    1       -5.987   2.854  15.119  0.00  0.00    +0.009 C 
ATOM     29  C   LIG    1       -5.242   2.718  13.684  0.00  0.00    +0.032 C 
BRANCH  20  30
ATOM     30  C   LIG    1      -11.820   4.707  19.049  0.00  0.00    -0.022 C 
ATOM     31  C   LIG    1      -11.210   3.779  19.996  0.00  0.00    +0.264 C 
ATOM     32  O   LIG    1      -12.211   2.722  20.188  0.00  0.00    -0.457 OA
ATOM     33  C   LIG    1      -13.187   2.956  19.305  0.00  0.00    +0.332 C 
ATOM     34  O   LIG    1      -14.147   2.211  19.090  0.00  0.00    -0.246 OA
ATOM     35  C   LIG    1      -13.008   4.197  18.654  0.00  0.00    +0.094 C 
ENDBRANCH  20  30
BRANCH  22  36
ATOM     36  O   LIG    1      -12.026   4.963  15.970  0.00  0.00    -0.391 OA
ATOM     37  H   LIG    1      -12.114   4.360  15.212  0.00  0.00    +0.210 HD
ENDBRANCH  22  36
BRANCH  17  38
ATOM     38  O   LIG    1       -8.939   4.641  18.678  0.00  0.00    -0.388 OA
ATOM     39  H   LIG    1       -8.058   4.550  19.082  0.00  0.00    +0.210 HD
ENDBRANCH  17  38
ENDBRANCH  10  11
ENDBRANCH   6  10
BRANCH   3  40
ATOM     40  O   LIG    1       -8.361   5.452   7.278  0.00  0.00    -0.343 OA
BRANCH  40  41
ATOM     41  C   LIG    1       -8.073   5.773   5.916  0.00  0.00    +0.254 C 
ATOM     42  O   LIG    1       -6.685   6.010   5.755  0.00  0.00    -0.346 OA
ATOM     43  C   LIG    1       -6.270   6.226   4.412  0.00  0.00    +0.150 C 
ATOM     44  C   LIG    1       -4.743   6.181   4.439  0.00  0.00    +0.040 C 
ATOM     45  C   LIG    1       -6.849   7.567   3.944  0.00  0.00    +0.178 C 
ATOM     46  C   LIG    1       -8.377   7.556   4.239  0.00  0.00    +0.151 C 
ATOM     47  C   LIG    1       -8.761   7.086   5.624  0.00  0.00    +0.095 C 
BRANCH  46  48
ATOM     48  O   LIG    1       -9.025   6.705   3.287  0.00  0.00    -0.389 OA
ATOM     49  H   LIG    1       -8.726   7.045   2.416  0.00  0.00    +0.210 HD
ENDBRANCH  46  48
BRANCH  45  50
ATOM     50  O   LIG    1       -6.572   7.764   2.535  0.00  0.00    -0.343 OA
BRANCH  50  51
ATOM     51  C   LIG    1       -7.006   9.047   2.090  0.00  0.00    +0.254 C 
ATOM     52  O   LIG    1       -8.422   9.055   2.040  0.00  0.00    -0.346 OA
ATOM     53  C   LIG    1       -8.955  10.370   2.116  0.00  0.00    +0.150 C 
ATOM     54  C   LIG    1      -10.463  10.157   1.977  0.00  0.00    +0.040 C 
ATOM     55  C   LIG    1       -8.388  11.314   1.026  0.00  0.00    +0.178 C 
ATOM     56  C   LIG    1       -7.027  10.810   0.404  0.00  0.00    +0.151 C 
ATOM     57  C   LIG    1       -6.652   9.343   0.650  0.00  0.00    +0.095 C 
BRANCH  56  58
ATOM     58  O   LIG    1       -5.937  11.589   0.927  0.00  0.00    -0.389 OA
ATOM     59  H   LIG    1       -6.312  12.477   1.086  0.00  0.00    +0.210 HD
ENDBRANCH  56  58
BRANCH  55  60
ATOM     60  O   LIG    1       -8.157  12.675   1.491  0.00  0.00    -0.340 OA
BRANCH  60  61
ATOM     61  C   LIG    1       -9.225  13.309   2.211  0.00  0.00    +0.282 C 
ATOM     62  C   LIG    1       -8.710  14.586   2.915  0.00  0.00    +0.201 C 
ATOM     63  C   LIG    1       -8.554  15.735   1.913  0.00  0.00    +0.179 C 
ATOM     64  C   LIG    1       -9.886  15.969   1.196  0.00  0.00    +0.177 C 
ATOM     65  C   LIG    1      -10.442  14.674   0.570  0.00  0.00    +0.178 C 
ATOM     66  O   LIG    1      -10.391  13.520   1.420  0.00  0.00    -0.341 OA
BRANCH  62  67
ATOM     67  O   LIG    1       -9.598  14.966   3.982  0.00  0.00    -0.384 OA
ATOM     68  H   LIG    1      -10.339  15.470   3.573  0.00  0.00    +0.210 HD
ENDBRANCH  62  67
BRANCH  63  69
ATOM     69  O   LIG    1       -7.521  15.485   0.960  0.00  0.00    -0.386 OA
ATOM     70  H   LIG    1       -6.694  15.352   1.460  0.00  0.00    +0.210 HD
ENDBRANCH  63  69
BRANCH  64  71
ATOM     71  O   LIG    1      -10.836  16.462   2.165  0.00  0.00    -0.387 OA
ATOM     72  H   LIG    1      -11.564  16.867   1.655  0.00  0.00    +0.210 HD
ENDBRANCH  64  71
BRANCH  65  73
ATOM     73  C   LIG    1       -9.900  14.374  -0.832  0.00  0.00    +0.190 C 
BRANCH  73  74
ATOM     74  O   LIG    1      -10.008  15.514  -1.681  0.00  0.00    -0.392 OA
ATOM     75  H   LIG    1       -9.132  15.941  -1.701  0.00  0.00    +0.209 HD
ENDBRANCH  73  74
ENDBRANCH  65  73
ENDBRANCH  60  61
ENDBRANCH  55  60
ENDBRANCH  50  51
ENDBRANCH  45  50
ENDBRANCH  40  41
ENDBRANCH   3  40
TORSDOF 19
