REMARK  Name = *****
REMARK                            x       y       z     vdW  Elec       q    Type
REMARK                         _______ _______ _______ _____ _____    ______ ____
ROOT
ATOM      1  C   LIG    1       -4.324   0.273   2.650  0.00  0.00    +0.235 C 
ATOM      2  N   LIG    1       -4.376   1.643   2.514  0.00  0.00    -0.300 N 
ATOM      3  H   LIG    1       -3.509   2.141   2.314  0.00  0.00    +0.150 HD
ATOM      4  O   LIG    1       -5.340  -0.396   2.840  0.00  0.00    -0.274 OA
ENDROOT
BRANCH   2   5
ATOM      5  CA  LIG    1       -5.639   2.432   2.621  0.00  0.00    +0.191 C 
ATOM      6  C   LIG    1       -5.612   3.856   1.970  0.00  0.00    +0.169 C 
ATOM      7  N   LIG    1       -6.354   3.281   0.860  0.00  0.00    -0.248 N 
ATOM      8  CA  LIG    1       -6.631   3.949  -0.306  0.00  0.00    +0.137 C 
ATOM      9  C   LIG    1       -5.893   5.044  -0.620  0.00  0.00    +0.057 C 
ATOM     10 CL   LIG    1       -6.113   5.996  -2.069  0.00  0.00    -0.085 Cl
ATOM     11  C   LIG    1       -4.734   5.599   0.184  0.00  0.00    +0.120 C 
ATOM     12  S   LIG    1       -4.006   4.426   1.363  0.00  0.00    -0.130 S 
ATOM     13  C   LIG    1       -6.725   2.155   1.509  0.00  0.00    +0.244 C 
ATOM     14  O   LIG    1       -7.513   1.305   1.179  0.00  0.00    -0.273 OA
BRANCH   8  15
ATOM     15  C   LIG    1       -7.715   3.457  -1.242  0.00  0.00    +0.352 C 
ATOM     16  O   LIG    1       -8.252   4.158  -2.087  0.00  0.00    -0.244 OA
BRANCH  15  17
ATOM     17  OXT LIG    1       -8.081   2.167  -1.128  0.00  0.00    -0.476 OA
ATOM     18  HXT LIG    1       -7.747   1.642  -0.368  0.00  0.00    +0.295 HD
ENDBRANCH  15  17
ENDBRANCH   8  15
ENDBRANCH   2   5
BRANCH   1  19
ATOM     19  CA  LIG    1       -2.914  -0.382   2.503  0.00  0.00    +0.168 C 
BRANCH  19  20
ATOM     20  C   LIG    1       -1.776   0.514   2.965  0.00  0.00    -0.022 A 
ATOM     21  C   LIG    1       -0.818   0.968   2.043  0.00  0.00    +0.006 A 
ATOM     22  C   LIG    1        0.190   1.849   2.441  0.00  0.00    +0.000 A 
ATOM     23  C   LIG    1        0.259   2.281   3.764  0.00  0.00    +0.000 A 
ATOM     24  C   LIG    1       -0.671   1.823   4.694  0.00  0.00    +0.000 A 
ATOM     25  C   LIG    1       -1.681   0.945   4.299  0.00  0.00    +0.006 A 
ENDBRANCH  19  20
BRANCH  19  26
ATOM     26  N   LIG    1       -2.890  -1.677   3.213  0.00  0.00    -0.316 NA
ATOM     27  H1  LIG    1       -3.050  -1.508   4.205  0.00  0.00    +0.119 HD
ATOM     28  H2  LIG    1       -3.720  -2.197   2.916  0.00  0.00    +0.119 HD
ENDBRANCH  19  26
ENDBRANCH   1  19
TORSDOF 6
