REMARK  Name = *****
REMARK                            x       y       z     vdW  Elec       q    Type
REMARK                         _______ _______ _______ _____ _____    ______ ____
ROOT
ATOM      1  C   LIG    1        3.565   0.740  -0.266  0.00  0.00    +0.011 C 
ATOM      2  C   LIG    1        2.246   0.838   0.489  0.00  0.00    +0.026 C 
ATOM      3  C   LIG    1        1.708   2.253   0.830  0.00  0.00    +0.134 C 
ATOM      4  C   LIG    1        0.773   2.018   2.104  0.00  0.00    +0.010 C 
ATOM      5  C   LIG    1        0.880   0.492   2.427  0.00  0.00    +0.005 C 
ATOM      6  C   LIG    1       -0.241  -0.448   1.891  0.00  0.00    +0.034 C 
ATOM      7  C   LIG    1       -1.659   0.160   1.875  0.00  0.00    +0.153 C 
ATOM      8  C   LIG    1       -1.585   1.528   1.146  0.00  0.00    +0.154 C 
ATOM      9  F   LIG    1       -1.983   0.440   3.188  0.00  0.00    -0.238 F 
ATOM     10  C   LIG    1       -2.760  -0.865   1.339  0.00  0.00    +0.044 C 
ATOM     11  C   LIG    1       -2.584  -2.293   1.942  0.00  0.00    -0.053 C 
ATOM     12  C   LIG    1       -3.425  -3.273   1.530  0.00  0.00    +0.051 C 
ATOM     13  C   LIG    1       -3.380  -3.429   0.028  0.00  0.00    +0.179 C 
ATOM     14  C   LIG    1       -3.003  -2.231  -0.776  0.00  0.00    +0.047 C 
ATOM     15  O   LIG    1       -3.711  -4.481  -0.511  0.00  0.00    -0.288 OA
ATOM     16  C   LIG    1       -1.164  -2.772   2.167  0.00  0.00    +0.032 C 
ATOM     17  C   LIG    1       -4.177  -0.348   1.721  0.00  0.00    +0.023 C 
ATOM     18  C   LIG    1       -2.745  -1.052  -0.183  0.00  0.00    -0.009 C 
ATOM     19  C   LIG    1       -0.251  -1.719   2.757  0.00  0.00    +0.011 C 
ATOM     20  C   LIG    1        1.299   2.768   3.365  0.00  0.00    +0.015 C 
ATOM     21  C   LIG    1       -0.675   2.497   1.902  0.00  0.00    +0.044 C 
ATOM     22  C   LIG    1        2.243   0.101   1.823  0.00  0.00    +0.011 C 
ENDROOT
BRANCH   3  23
ATOM     23  O   LIG    1        0.916   2.618  -0.305  0.00  0.00    -0.380 OA
ATOM     24  H   LIG    1        1.187   3.498  -0.639  0.00  0.00    +0.211 HD
ENDBRANCH   3  23
BRANCH   3  25
ATOM     25  C   LIG    1        2.848   3.284   1.123  0.00  0.00    +0.190 C 
ATOM     26  O   LIG    1        3.931   2.972   1.622  0.00  0.00    -0.292 OA
BRANCH  25  27
ATOM     27  C   LIG    1        2.540   4.747   0.840  0.00  0.00    +0.233 C 
BRANCH  27  28
ATOM     28  O   LIG    1        2.404   4.959  -0.556  0.00  0.00    -0.387 OA
ATOM     29  H   LIG    1        3.309   4.991  -0.923  0.00  0.00    +0.210 HD
ENDBRANCH  27  28
ENDBRANCH  25  27
ENDBRANCH   3  25
BRANCH   8  30
ATOM     30  O   LIG    1       -2.856   2.171   1.040  0.00  0.00    -0.389 OA
ATOM     31  H   LIG    1       -3.179   2.325   1.948  0.00  0.00    +0.210 HD
ENDBRANCH   8  30
TORSDOF 5
