REMARK  Name = *****
REMARK                            x       y       z     vdW  Elec       q    Type
REMARK                         _______ _______ _______ _____ _____    ______ ____
ROOT
ATOM      1  C   LIG    1        3.879   9.091  -3.075  0.00  0.00    +0.011 C 
ATOM      2  C   LIG    1        3.303   8.549  -1.772  0.00  0.00    +0.026 C 
ATOM      3  C   LIG    1        2.460   7.234  -1.818  0.00  0.00    +0.134 C 
ATOM      4  C   LIG    1        1.014   7.664  -1.377  0.00  0.00    +0.010 C 
ATOM      5  C   LIG    1        1.275   8.841  -0.405  0.00  0.00    +0.005 C 
ATOM      6  C   LIG    1        1.641   8.458   1.059  0.00  0.00    +0.034 C 
ATOM      7  C   LIG    1        0.710   7.371   1.658  0.00  0.00    +0.153 C 
ATOM      8  C   LIG    1        0.562   6.164   0.705  0.00  0.00    +0.154 C 
ATOM      9  F   LIG    1       -0.548   7.952   1.702  0.00  0.00    -0.238 F 
ATOM     10  C   LIG    1        1.117   6.994   3.159  0.00  0.00    +0.044 C 
ATOM     11  C   LIG    1        1.747   8.220   3.842  0.00  0.00    -0.053 C 
ATOM     12  C   LIG    1        2.789   8.162   4.690  0.00  0.00    +0.051 C 
ATOM     13  C   LIG    1        3.482   6.886   4.962  0.00  0.00    +0.179 C 
ATOM     14  C   LIG    1        3.111   5.734   4.116  0.00  0.00    +0.047 C 
ATOM     15  O   LIG    1        4.365   6.806   5.803  0.00  0.00    -0.288 OA
ATOM     16  C   LIG    1        1.212   9.542   3.386  0.00  0.00    +0.032 C 
ATOM     17  C   LIG    1       -0.145   6.613   3.975  0.00  0.00    +0.023 C 
ATOM     18  C   LIG    1        2.059   5.796   3.286  0.00  0.00    -0.009 C 
ATOM     19  C   LIG    1        1.625   9.753   1.930  0.00  0.00    +0.011 C 
ATOM     20  C   LIG    1        0.198   8.188  -2.594  0.00  0.00    +0.015 C 
ATOM     21  C   LIG    1        0.147   6.583  -0.705  0.00  0.00    +0.044 C 
ATOM     22  C   LIG    1        2.407   9.611  -1.100  0.00  0.00    +0.011 C 
ENDROOT
BRANCH   3  23
ATOM     23  O   LIG    1        3.029   6.400  -0.798  0.00  0.00    -0.380 OA
ATOM     24  H   LIG    1        3.909   6.101  -1.105  0.00  0.00    +0.211 HD
ENDBRANCH   3  23
BRANCH   3  25
ATOM     25  C   LIG    1        2.445   6.434  -3.154  0.00  0.00    +0.190 C 
ATOM     26  O   LIG    1        2.464   6.968  -4.265  0.00  0.00    -0.292 OA
BRANCH  25  27
ATOM     27  C   LIG    1        2.411   4.914  -3.059  0.00  0.00    +0.233 C 
BRANCH  27  28
ATOM     28  O   LIG    1        3.732   4.399  -3.033  0.00  0.00    -0.387 OA
ATOM     29  H   LIG    1        4.084   4.499  -3.937  0.00  0.00    +0.210 HD
ENDBRANCH  27  28
ENDBRANCH  25  27
ENDBRANCH   3  25
BRANCH   8  30
ATOM     30  O   LIG    1       -0.442   5.254   1.177  0.00  0.00    -0.389 OA
ATOM     31  H   LIG    1       -1.254   5.778   1.310  0.00  0.00    +0.210 HD
ENDBRANCH   8  30
TORSDOF 5
