REMARK  Name = *****
REMARK                            x       y       z     vdW  Elec       q    Type
REMARK                         _______ _______ _______ _____ _____    ______ ____
ROOT
ATOM      1  C   LIG    1        0.823  -0.042  -0.090  0.00  0.00    +0.024 C 
ATOM      2  C   LIG    1        2.333  -0.256   0.163  0.00  0.00    +0.054 C 
ATOM      3  C   LIG    1        2.928  -0.826  -1.154  0.00  0.00    +0.024 C 
ENDROOT
BRANCH   2   4
ATOM      4  C   LIG    1        2.632  -1.298   1.244  0.00  0.00    -0.016 A 
ATOM      5  C   LIG    1        3.854  -1.334   1.918  0.00  0.00    +0.115 A 
ATOM      6  N   LIG    1        4.200  -2.273   2.833  0.00  0.00    -0.263 NA
ATOM      7  C   LIG    1        3.310  -3.255   3.078  0.00  0.00    +0.111 A 
ATOM      8  C   LIG    1        2.083  -3.341   2.451  0.00  0.00    +0.020 A 
ATOM      9  C   LIG    1        1.746  -2.353   1.528  0.00  0.00    +0.007 A 
ENDBRANCH   2   4
BRANCH   2  10
ATOM     10  C   LIG    1        2.991   1.134   0.401  0.00  0.00    +0.174 C 
ATOM     11  O   LIG    1        3.959   1.507  -0.266  0.00  0.00    -0.291 OA
BRANCH  10  12
ATOM     12  C   LIG    1        2.462   2.113   1.396  0.00  0.00    +0.036 A 
ATOM     13  C   LIG    1        1.843   1.773   2.586  0.00  0.00    +0.122 A 
ATOM     14  N   LIG    1        1.395   2.683   3.497  0.00  0.00    -0.263 NA
ATOM     15  C   LIG    1        1.588   3.993   3.211  0.00  0.00    +0.111 A 
ATOM     16  C   LIG    1        2.194   4.436   2.051  0.00  0.00    +0.020 A 
ATOM     17  C   LIG    1        2.639   3.483   1.135  0.00  0.00    +0.014 A 
ENDBRANCH  10  12
ENDBRANCH   2  10
TORSDOF 3
