REMARK  Name = *****
REMARK                            x       y       z     vdW  Elec       q    Type
REMARK                         _______ _______ _______ _____ _____    ______ ____
ROOT
ATOM      1  C   LIG    1        8.849   3.734   6.332  0.00  0.00    +0.035 C 
ENDROOT
BRANCH   1   2
ATOM      2  C   LIG    1        9.317   5.055   5.676  0.00  0.00    +0.035 C 
BRANCH   2   3
ATOM      3  P   LIG    1       10.645   5.113   4.329  0.00  0.00    -0.101 P 
BRANCH   3   4
ATOM      4  C   LIG    1       12.427   5.084   4.998  0.00  0.00    +0.058 C 
BRANCH   4   5
ATOM      5  C   LIG    1       12.754   6.055   6.228  0.00  0.00    +0.164 C 
BRANCH   5   6
ATOM      6  O   LIG    1       13.822   5.660   7.133  0.00  0.00    -0.380 OA
BRANCH   6   7
ATOM      7  C   LIG    1       15.071   5.378   6.524  0.00  0.00    +0.156 C 
ATOM      8  C   LIG    1       16.149   4.982   7.535  0.00  0.00    +0.034 C 
ENDBRANCH   6   7
ENDBRANCH   5   6
ENDBRANCH   4   5
ENDBRANCH   3   4
BRANCH   3   9
ATOM      9  C   LIG    1       10.394   3.494   3.447  0.00  0.00    +0.058 C 
BRANCH   9  10
ATOM     10  C   LIG    1       10.548   2.173   4.199  0.00  0.00    +0.164 C 
BRANCH  10  11
ATOM     11  O   LIG    1       10.217   1.038   3.389  0.00  0.00    -0.380 OA
BRANCH  11  12
ATOM     12  C   LIG    1       10.178  -0.172   4.167  0.00  0.00    +0.156 C 
ATOM     13  C   LIG    1       11.559  -0.535   4.688  0.00  0.00    +0.034 C 
ENDBRANCH  11  12
ENDBRANCH  10  11
ENDBRANCH   9  10
ENDBRANCH   3   9
ENDBRANCH   2   3
ENDBRANCH   1   2
BRANCH   1  14
ATOM     14  P   LIG    1        7.813   3.811   7.911  0.00  0.00    -0.101 P 
BRANCH  14  15
ATOM     15  C   LIG    1        8.242   2.178   8.740  0.00  0.00    +0.058 C 
BRANCH  15  16
ATOM     16  C   LIG    1        7.524   1.970  10.072  0.00  0.00    +0.164 C 
BRANCH  16  17
ATOM     17  O   LIG    1        8.067   2.842  11.063  0.00  0.00    -0.380 OA
BRANCH  17  18
ATOM     18  C   LIG    1        7.323   2.877  12.276  0.00  0.00    +0.156 C 
ATOM     19  C   LIG    1        5.926   3.435  12.057  0.00  0.00    +0.034 C 
ENDBRANCH  17  18
ENDBRANCH  16  17
ENDBRANCH  15  16
ENDBRANCH  14  15
BRANCH  14  20
ATOM     20  C   LIG    1        8.553   5.089   9.088  0.00  0.00    +0.058 C 
BRANCH  20  21
ATOM     21  C   LIG    1        9.890   4.994   9.910  0.00  0.00    +0.164 C 
BRANCH  21  22
ATOM     22  O   LIG    1       11.148   4.977   9.207  0.00  0.00    -0.380 OA
BRANCH  22  24
ATOM     23  C   LIG    1       11.995   3.483   7.369  0.00  0.00    +0.034 C 
ATOM     24  C   LIG    1       11.138   3.778   8.438  0.00  0.00    +0.156 C 
ENDBRANCH  22  24
ENDBRANCH  21  22
ENDBRANCH  20  21
ENDBRANCH  14  20
ENDBRANCH   1  14
TORSDOF 19
