REMARK  Name = *****
REMARK                            x       y       z     vdW  Elec       q    Type
REMARK                         _______ _______ _______ _____ _____    ______ ____
ROOT
ATOM      1  N   LIG    1       -0.373   4.181   0.510  0.00  0.00    -0.302 NA
ATOM      2  H   LIG    1       -0.852   3.387   0.945  0.00  0.00    +0.123 HD
ENDROOT
BRANCH   1   3
ATOM      3  C   LIG    1       -1.377   5.050  -0.141  0.00  0.00    +0.023 C 
ATOM      4  C   LIG    1       -2.106   4.215  -1.236  0.00  0.00    +0.026 C 
ATOM      5  C   LIG    1       -3.155   5.072  -1.977  0.00  0.00    -0.006 C 
ATOM      6  C   LIG    1       -4.194   5.580  -0.970  0.00  0.00    +0.038 C 
ATOM      7  C   LIG    1       -3.501   6.419   0.114  0.00  0.00    +0.068 C 
ATOM      8  C   LIG    1       -2.795   7.619  -0.541  0.00  0.00    +0.038 C 
ATOM      9  C   LIG    1       -1.760   7.125  -1.564  0.00  0.00    -0.006 C 
ATOM     10  C   LIG    1       -2.461   6.276  -2.635  0.00  0.00    +0.007 C 
ATOM     11  C   LIG    1       -2.456   5.559   0.846  0.00  0.00    +0.057 C 
ATOM     12  C   LIG    1       -0.711   6.262  -0.844  0.00  0.00    +0.026 C 
BRANCH   7  13
ATOM     13  O   LIG    1       -4.455   6.876   1.064  0.00  0.00    -0.389 OA
ATOM     14  H   LIG    1       -5.224   7.225   0.584  0.00  0.00    +0.210 HD
ENDBRANCH   7  13
ENDBRANCH   1   3
BRANCH   1  15
ATOM     15  C   LIG    1        0.420   4.846   1.566  0.00  0.00    +0.178 C 
BRANCH  15  18
ATOM     16  C   LIG    1        3.634   2.759   2.051  0.00  0.00    +0.179 C 
ATOM     17  N   LIG    1        2.632   3.693   1.540  0.00  0.00    -0.285 N 
ATOM     18  C   LIG    1        1.427   3.864   2.181  0.00  0.00    +0.230 C 
ATOM     19  O   LIG    1        1.156   3.247   3.213  0.00  0.00    -0.274 OA
ATOM     20  C   LIG    1        3.043   4.293   0.280  0.00  0.00    +0.109 C 
ATOM     21  C   LIG    1        4.484   3.838   0.086  0.00  0.00    +0.022 C 
ATOM     22  C   LIG    1        4.530   2.508   0.833  0.00  0.00    +0.039 C 
BRANCH  16  24
ATOM     23  N   LIG    1        5.060   3.814   4.008  0.00  0.00    -0.195 NA
ATOM     24  C   LIG    1        4.414   3.345   3.169  0.00  0.00    +0.085 C 
ENDBRANCH  16  24
ENDBRANCH  15  18
ENDBRANCH   1  15
TORSDOF 5
