REMARK  Name = *****
REMARK                            x       y       z     vdW  Elec       q    Type
REMARK                         _______ _______ _______ _____ _____    ______ ____
ROOT
ATOM      1  C   LIG    1        2.547   1.153   0.466  0.00  0.00    +0.323 C 
ATOM      2 BR   LIG    1        2.213   3.014  -0.066  0.00  0.00    +0.005 Br
ENDROOT
BRANCH   1   4
ATOM      3  O   LIG    1        0.542   0.067  -0.166  0.00  0.00    +0.036 OA
ATOM      4  N   LIG    1        1.713   0.322  -0.490  0.00  0.00    +0.060 N 
ATOM      5  O   LIG    1        2.240  -0.056  -1.542  0.00  0.00    -0.580 OA
ENDBRANCH   1   4
BRANCH   1   6
ATOM      6  C   LIG    1        4.031   0.827   0.256  0.00  0.00    +0.255 C 
BRANCH   6   7
ATOM      7  O   LIG    1        4.881   1.544   1.165  0.00  0.00    -0.387 OA
ATOM      8  H   LIG    1        4.990   2.448   0.806  0.00  0.00    +0.210 HD
ENDBRANCH   6   7
ENDBRANCH   1   6
BRANCH   1   9
ATOM      9  C   LIG    1        2.072   0.916   1.905  0.00  0.00    +0.255 C 
BRANCH   9  10
ATOM     10  O   LIG    1        2.823   1.630   2.895  0.00  0.00    -0.387 OA
ATOM     11  H   LIG    1        3.778   1.489   2.722  0.00  0.00    +0.210 HD
ENDBRANCH   9  10
ENDBRANCH   1   9
TORSDOF 5
