REMARK  Name = *****
REMARK                            x       y       z     vdW  Elec       q    Type
REMARK                         _______ _______ _______ _____ _____    ______ ____
ROOT
ATOM      1  C   LIG    1        0.803   1.753   0.038  0.00  0.00    +0.044 C 
ATOM      2  C   LIG    1        2.271   1.604  -0.226  0.00  0.00    -0.047 A 
ATOM      3  C   LIG    1        2.961   0.480   0.249  0.00  0.00    +0.049 A 
ATOM      4  C   LIG    1        4.312   0.265  -0.064  0.00  0.00    +0.125 A 
ATOM      5  C   LIG    1        4.998   1.203  -0.869  0.00  0.00    -0.003 A 
ATOM      6  C   LIG    1        4.294   2.334  -1.325  0.00  0.00    +0.008 A 
ATOM      7  C   LIG    1        2.950   2.532  -1.011  0.00  0.00    +0.004 A 
ENDROOT
BRANCH   5   8
ATOM      8  C   LIG    1        6.440   0.965  -1.312  0.00  0.00    +0.016 C 
ATOM      9  C   LIG    1        7.262   2.247  -1.516  0.00  0.00    +0.012 C 
ATOM     10  C   LIG    1        6.453   0.136  -2.600  0.00  0.00    +0.012 C 
ENDBRANCH   5   8
BRANCH   4  11
ATOM     11  O   LIG    1        5.023  -0.841   0.344  0.00  0.00    -0.480 OA
BRANCH  11  12
ATOM     12  C   LIG    1        4.357  -1.753   1.213  0.00  0.00    +0.356 C 
BRANCH  12  13
ATOM     13  C   LIG    1        5.269  -2.902   1.610  0.00  0.00    +0.319 C 
ATOM     14  N   LIG    1        6.252  -3.388   0.786  0.00  0.00    -0.231 N 
ATOM     15  H   LIG    1        6.128  -3.263  -0.214  0.00  0.00    +0.291 HD
ATOM     16  C   LIG    1        6.679  -4.667   1.294  0.00  0.00    +0.273 C 
ATOM     17  C   LIG    1        6.125  -4.619   2.722  0.00  0.00    +0.333 C 
ATOM     18  N   LIG    1        5.089  -3.546   2.744  0.00  0.00    -0.081 NA
ENDBRANCH  12  13
ENDBRANCH  11  12
ENDBRANCH   4  11
TORSDOF 4
