REMARK  Name = *****
REMARK                            x       y       z     vdW  Elec       q    Type
REMARK                         _______ _______ _______ _____ _____    ______ ____
ROOT
ATOM      1  C   LIG    1        8.157   3.780   5.636  0.00  0.00    +0.165 C 
ATOM      2  O   LIG    1        7.657   4.899   5.628  0.00  0.00    -0.294 OA
ENDROOT
BRANCH   1   3
ATOM      3  C   LIG    1        7.401   2.599   5.151  0.00  0.00    +0.223 C 
ATOM      4  C   LIG    1        7.555   2.050   3.756  0.00  0.00    +0.240 C 
ATOM      5  O   LIG    1        6.444   2.889   4.110  0.00  0.00    -0.350 OA
BRANCH   4   6
ATOM      6  C   LIG    1        8.508   2.619   2.777  0.00  0.00    +0.242 C 
ATOM      7  O   LIG    1        9.491   1.980   2.424  0.00  0.00    -0.273 OA
ATOM      8  N   LIG    1        8.222   3.855   2.286  0.00  0.00    -0.327 N 
ATOM      9  H   LIG    1        7.421   4.379   2.624  0.00  0.00    +0.145 HD
ATOM     10  H   LIG    1        8.816   4.255   1.578  0.00  0.00    +0.145 HD
ENDBRANCH   4   6
ENDBRANCH   1   3
BRANCH   1  11
ATOM     11  C   LIG    1        9.535   3.497   6.196  0.00  0.00    +0.081 C 
BRANCH  11  12
ATOM     12  C   LIG    1        9.627   3.839   7.682  0.00  0.00    +0.034 C 
BRANCH  12  14
ATOM     13  C   LIG    1        7.455   3.357   8.842  0.00  0.00    -0.027 C 
ATOM     14  C   LIG    1        8.711   2.994   8.522  0.00  0.00    -0.030 C 
BRANCH  13  15
ATOM     15  C   LIG    1        6.520   2.487   9.626  0.00  0.00    +0.053 C 
BRANCH  15  18
ATOM     16  C   LIG    1        5.301  -0.532   7.468  0.00  0.00    +0.035 C 
ATOM     17  C   LIG    1        6.085   0.361   8.371  0.00  0.00    -0.034 C 
ATOM     18  C   LIG    1        5.714   1.605   8.717  0.00  0.00    -0.027 C 
ENDBRANCH  15  18
ENDBRANCH  13  15
ENDBRANCH  12  14
ENDBRANCH  11  12
ENDBRANCH   1  11
TORSDOF 7
