REMARK  Name = *****
REMARK                            x       y       z     vdW  Elec       q    Type
REMARK                         _______ _______ _______ _____ _____    ______ ____
ROOT
ATOM      1  C   LIG    1        3.814  -1.299  -3.092  0.00  0.00    +0.332 C 
ATOM      2  O   LIG    1        2.919  -0.518  -2.998  0.00  0.00    -0.246 OA
ENDROOT
BRANCH   1   3
ATOM      3  C   LIG    1        4.047  -2.111  -4.290  0.00  0.00    +0.092 C 
ATOM      4  C   LIG    1        3.613  -1.899  -5.551  0.00  0.00    +0.015 C 
BRANCH   4   5
ATOM      5  C   LIG    1        2.821  -0.821  -6.201  0.00  0.00    -0.025 A 
ATOM      6  C   LIG    1        2.667  -0.819  -7.587  0.00  0.00    +0.011 A 
ATOM      7  C   LIG    1        2.017   0.240  -8.232  0.00  0.00    +0.046 A 
ATOM      8  C   LIG    1        1.538   1.346  -7.530  0.00  0.00    +0.120 A 
ATOM      9  C   LIG    1        1.577   1.313  -6.157  0.00  0.00    +0.046 A 
ATOM     10  C   LIG    1        2.202   0.238  -5.534  0.00  0.00    +0.011 A 
BRANCH   8  11
ATOM     11  O   LIG    1        1.019   2.461  -8.123  0.00  0.00    -0.495 OA
ATOM     12  C   LIG    1        1.600   2.729  -9.399  0.00  0.00    +0.277 C 
ENDBRANCH   8  11
ENDBRANCH   4   5
ENDBRANCH   1   3
BRANCH   1  13
ATOM     13  O   LIG    1        4.696  -1.545  -2.095  0.00  0.00    -0.461 OA
BRANCH  13  14
ATOM     14  C   LIG    1        4.545  -0.672  -0.947  0.00  0.00    +0.236 C 
BRANCH  14  15
ATOM     15  C   LIG    1        3.483  -1.141   0.075  0.00  0.00    +0.026 C 
BRANCH  15  16
ATOM     16  C   LIG    1        3.846  -2.555   0.623  0.00  0.00    +0.003 C 
ATOM     17  C   LIG    1        5.179  -2.688   1.366  0.00  0.00    +0.004 C 
ENDBRANCH  15  16
BRANCH  15  18
ATOM     18  C   LIG    1        2.028  -1.171  -0.492  0.00  0.00    +0.007 C 
BRANCH  18  19
ATOM     19  C   LIG    1        1.395   0.161  -0.991  0.00  0.00    +0.000 C 
BRANCH  19  21
ATOM     20  C   LIG    1       -1.067  -0.594  -0.812  0.00  0.00    +0.004 C 
ATOM     21  C   LIG    1        0.057  -0.108  -1.712  0.00  0.00    -0.003 C 
ENDBRANCH  19  21
ENDBRANCH  18  19
ENDBRANCH  15  18
ENDBRANCH  14  15
ENDBRANCH  13  14
ENDBRANCH   1  13
TORSDOF 10
