REMARK  Name = *****
REMARK                            x       y       z     vdW  Elec       q    Type
REMARK                         _______ _______ _______ _____ _____    ______ ____
ROOT
ATOM      1  C   LIG    1        3.115   0.185  -1.182  0.00  0.00    +0.053 C 
ENDROOT
BRANCH   1   2
ATOM      2  C   LIG    1        4.619   0.306  -1.133  0.00  0.00    -0.046 A 
ATOM      3  C   LIG    1        5.230   1.541  -0.881  0.00  0.00    +0.003 A 
ATOM      4  C   LIG    1        6.622   1.638  -0.807  0.00  0.00    +0.000 A 
ATOM      5  C   LIG    1        7.411   0.502  -0.976  0.00  0.00    +0.000 A 
ATOM      6  C   LIG    1        6.813  -0.730  -1.227  0.00  0.00    +0.000 A 
ATOM      7  C   LIG    1        5.425  -0.828  -1.309  0.00  0.00    +0.003 A 
ENDBRANCH   1   2
BRANCH   1   9
ATOM      8  C   LIG    1        2.905  -1.209   0.956  0.00  0.00    +0.024 C 
ATOM      9  C   LIG    1        2.452   0.044   0.206  0.00  0.00    +0.052 C 
BRANCH   9  10
ATOM     10  N   LIG    1        0.990  -0.013   0.069  0.00  0.00    -0.327 NA
ATOM     11  H   LIG    1        0.660   0.805  -0.443  0.00  0.00    +0.118 HD
ATOM     12  H   LIG    1        0.726  -0.823  -0.490  0.00  0.00    +0.118 HD
ENDBRANCH   9  10
ENDBRANCH   1   9
TORSDOF 3
