REMARK  Name = *****
REMARK                            x       y       z     vdW  Elec       q    Type
REMARK                         _______ _______ _______ _____ _____    ______ ____
ROOT
ATOM      1  C   LIG    1        5.425  -1.022   1.365  0.00  0.00    +0.077 C 
ATOM      2  C   LIG    1        4.876   0.360   1.752  0.00  0.00    +0.037 C 
ATOM      3  C   LIG    1        5.196   1.436   0.712  0.00  0.00    +0.094 C 
ATOM      4  C   LIG    1        4.442   1.037  -0.576  0.00  0.00    +0.093 C 
ATOM      5  C   LIG    1        4.987  -0.289  -1.109  0.00  0.00    +0.025 C 
ATOM      6  C   LIG    1        4.934  -1.410  -0.059  0.00  0.00    +0.015 C 
ENDROOT
BRANCH   1   9
ATOM      7  C   LIG    1        5.014  -2.968   4.662  0.00  0.00    +0.131 C 
ATOM      8  N   LIG    1        5.426  -1.932   3.728  0.00  0.00    -0.307 N 
ATOM      9  C   LIG    1        5.016  -2.088   2.403  0.00  0.00    +0.218 C 
ATOM     10  O   LIG    1        4.341  -3.064   2.061  0.00  0.00    -0.275 OA
ATOM     11  C   LIG    1        6.521  -1.074   4.162  0.00  0.00    +0.131 C 
ENDBRANCH   1   9
BRANCH   3  12
ATOM     12  N   LIG    1        6.648   1.587   0.566  0.00  0.00    -0.305 N 
ATOM     13  H   LIG    1        7.283   0.808   0.733  0.00  0.00    +0.149 HD
ATOM     14  C   LIG    1        7.288   2.768   0.228  0.00  0.00    +0.270 C 
ATOM     15  O   LIG    1        6.642   3.774  -0.061  0.00  0.00    -0.268 OA
BRANCH  14  16
ATOM     16  C   LIG    1        8.747   2.682   0.282  0.00  0.00    +0.163 A 
ATOM     17  S   LIG    1        9.727   4.062  -0.042  0.00  0.00    -0.066 S 
ATOM     18  C   LIG    1       11.104   3.150   0.352  0.00  0.00    +0.027 A 
ATOM     19  C   LIG    1       12.507   3.660   0.351  0.00  0.00    +0.128 C 
ATOM     20  N   LIG    1       13.468   2.565   0.078  0.00  0.00    -0.300 NA
ATOM     21  C   LIG    1       13.212   1.412   0.975  0.00  0.00    +0.090 C 
ATOM     22  C   LIG    1       11.782   0.807   0.941  0.00  0.00    +0.071 C 
ATOM     23  C   LIG    1       13.439   2.180  -1.335  0.00  0.00    +0.105 C 
ATOM     24  C   LIG    1       10.753   1.851   0.655  0.00  0.00    +0.055 A 
ATOM     25  N   LIG    1        9.398   1.574   0.615  0.00  0.00    -0.239 NA
ENDBRANCH  14  16
ENDBRANCH   3  12
BRANCH   4  26
ATOM     26  N   LIG    1        4.431   2.068  -1.591  0.00  0.00    -0.303 N 
ATOM     27  H   LIG    1        5.274   2.601  -1.807  0.00  0.00    +0.149 HD
ATOM     28  C   LIG    1        3.303   2.374  -2.327  0.00  0.00    +0.300 C 
ATOM     29  O   LIG    1        2.204   1.844  -2.232  0.00  0.00    -0.265 OA
BRANCH  28  30
ATOM     30  C   LIG    1        3.521   3.496  -3.358  0.00  0.00    +0.304 C 
ATOM     31  N   LIG    1        2.392   3.761  -4.110  0.00  0.00    -0.263 N 
ATOM     32  H   LIG    1        1.594   3.159  -3.966  0.00  0.00    +0.157 HD
ATOM     33  O   LIG    1        4.640   3.968  -3.441  0.00  0.00    -0.265 OA
BRANCH  31  34
ATOM     34  C   LIG    1        2.343   4.773  -5.073  0.00  0.00    +0.125 A 
ATOM     35  N   LIG    1        3.287   5.728  -5.066  0.00  0.00    -0.239 NA
ATOM     36  C   LIG    1        3.224   6.704  -6.001  0.00  0.00    +0.133 A 
ATOM     37  C   LIG    1        2.248   6.763  -6.976  0.00  0.00    +0.059 A 
ATOM     38 CL   LIG    1        2.244   8.020  -8.143  0.00  0.00    -0.082 Cl
ATOM     39  C   LIG    1        1.274   5.774  -6.981  0.00  0.00    +0.025 A 
ATOM     40  C   LIG    1        1.307   4.770  -6.004  0.00  0.00    +0.045 A 
ENDBRANCH  31  34
ENDBRANCH  28  30
ENDBRANCH   4  26
TORSDOF 6
