REMARK  Name = *****
REMARK                            x       y       z     vdW  Elec       q    Type
REMARK                         _______ _______ _______ _____ _____    ______ ____
ROOT
ATOM      1  C   LIG    1        7.540   1.070   0.369  0.00  0.00    +0.201 C 
ATOM      2  C   LIG    1        6.782   0.293   1.451  0.00  0.00    +0.181 C 
ATOM      3  C   LIG    1        6.366   1.387   2.421  0.00  0.00    +0.195 C 
ATOM      4  C   LIG    1        7.602   2.283   2.381  0.00  0.00    +0.253 C 
ATOM      5  O   LIG    1        8.138   2.216   1.036  0.00  0.00    -0.343 OA
ENDROOT
BRANCH   4   6
ATOM      6  N   LIG    1        7.384   3.664   2.763  0.00  0.00    -0.285 N 
ATOM      7  C   LIG    1        6.627   4.609   2.124  0.00  0.00    +0.167 A 
ATOM      8  N   LIG    1        5.849   4.450   1.039  0.00  0.00    -0.216 NA
ATOM      9  C   LIG    1        5.320   5.627   0.649  0.00  0.00    +0.225 A 
ATOM     10  N   LIG    1        5.497   6.849   1.190  0.00  0.00    -0.219 NA
ATOM     11  C   LIG    1        6.292   6.959   2.276  0.00  0.00    +0.147 A 
ATOM     12  C   LIG    1        6.878   5.794   2.804  0.00  0.00    +0.147 A 
ATOM     13  N   LIG    1        7.722   5.572   3.874  0.00  0.00    -0.231 NA
ATOM     14  C   LIG    1        7.983   4.282   3.834  0.00  0.00    +0.203 A 
BRANCH  11  15
ATOM     15  N   LIG    1        6.545   8.252   2.733  0.00  0.00    -0.341 N 
ATOM     16  H   LIG    1        7.504   8.355   3.047  0.00  0.00    +0.144 HD
ATOM     17  H   LIG    1        6.244   8.915   2.028  0.00  0.00    +0.144 HD
ENDBRANCH  11  15
ENDBRANCH   4   6
BRANCH   2  18
ATOM     18  O   LIG    1        7.679  -0.590   2.160  0.00  0.00    -0.386 OA
ATOM     19  H   LIG    1        7.916  -1.310   1.545  0.00  0.00    +0.210 HD
ENDBRANCH   2  18
BRANCH   3  20
ATOM     20  O   LIG    1        6.112   0.856   3.721  0.00  0.00    -0.385 OA
ATOM     21  H   LIG    1        6.718   0.091   3.815  0.00  0.00    +0.210 HD
ENDBRANCH   3  20
BRANCH   1  22
ATOM     22  C   LIG    1        6.649   1.587  -0.770  0.00  0.00    +0.311 C 
BRANCH  22  24
ATOM     23  C   LIG    1        5.022   1.257  -2.947  0.00  0.00    +0.340 C 
ATOM     24  S   LIG    1        5.950   0.248  -1.772  0.00  0.00    -0.011 S 
BRANCH  24  25
ATOM     25  C   LIG    1        7.345  -0.179  -2.853  0.00  0.00    +0.280 C 
BRANCH  25  26
ATOM     26  C   LIG    1        8.204   0.960  -3.404  0.00  0.00    +0.084 C 
BRANCH  26  27
ATOM     27  CA  LIG    1        9.366   0.435  -4.259  0.00  0.00    +0.165 C 
BRANCH  27  28
ATOM     28  N   LIG    1       10.333   1.534  -4.573  0.00  0.00    -0.318 NA
ATOM     29  H1  LIG    1       11.272   1.121  -4.601  0.00  0.00    +0.119 HD
ATOM     30  H2  LIG    1       10.374   2.176  -3.774  0.00  0.00    +0.119 HD
ENDBRANCH  27  28
BRANCH  27  31
ATOM     31  C   LIG    1        8.899  -0.194  -5.591  0.00  0.00    +0.322 C 
ATOM     32  O   LIG    1        8.120  -1.115  -5.700  0.00  0.00    -0.249 OA
BRANCH  31  33
ATOM     33  OXT LIG    1        9.509   0.393  -6.656  0.00  0.00    -0.479 OA
ATOM     34  HXT LIG    1       10.057   1.129  -6.288  0.00  0.00    +0.295 HD
ENDBRANCH  31  33
ENDBRANCH  27  31
ENDBRANCH  26  27
ENDBRANCH  25  26
ENDBRANCH  24  25
ENDBRANCH  22  24
ENDBRANCH   1  22
TORSDOF 12
