REMARK  Name = *****
REMARK                            x       y       z     vdW  Elec       q    Type
REMARK                         _______ _______ _______ _____ _____    ______ ____
ROOT
ATOM      1  C   LIG    1       -5.514   1.128  -0.950  0.00  0.00    +0.230 C 
ATOM      2  C   LIG    1       -5.030   2.203  -2.010  0.00  0.00    +0.014 C 
ATOM      3  C   LIG    1       -6.183   3.173  -2.346  0.00  0.00    +0.015 C 
ATOM      4  C   LIG    1       -4.544   1.328  -3.200  0.00  0.00    +0.007 C 
ATOM      5  C   LIG    1       -3.259   1.736  -3.952  0.00  0.00    -0.003 C 
ATOM      6  C   LIG    1       -3.150   3.248  -4.176  0.00  0.00    -0.001 C 
ATOM      7  C   LIG    1       -3.283   3.961  -2.787  0.00  0.00    +0.005 C 
ATOM      8  C   LIG    1       -3.883   3.851  -5.504  0.00  0.00    -0.021 C 
ATOM      9  C   LIG    1       -5.189   4.607  -5.166  0.00  0.00    +0.012 C 
ATOM     10  C   LIG    1       -4.292   2.764  -6.586  0.00  0.00    -0.001 C 
ATOM     11  C   LIG    1       -3.593   2.941  -7.935  0.00  0.00    +0.054 C 
ATOM     12  C   LIG    1       -3.865   4.342  -8.465  0.00  0.00    +0.225 C 
ATOM     13  C   LIG    1       -3.015   5.349  -7.646  0.00  0.00    +0.108 C 
ATOM     14  C   LIG    1       -4.218   1.283  -6.216  0.00  0.00    +0.004 C 
ATOM     15  C   LIG    1       -2.922   4.960  -6.125  0.00  0.00    +0.065 C 
ATOM     16  C   LIG    1       -3.085   0.980  -5.268  0.00  0.00    +0.004 C 
ATOM     17  C   LIG    1       -4.388  -0.101  -2.642  0.00  0.00    +0.062 C 
ATOM     18  C   LIG    1       -3.814   3.071  -1.604  0.00  0.00    +0.011 C 
ATOM     19  C   LIG    1       -5.527  -0.288  -1.653  0.00  0.00    +0.108 C 
ENDROOT
BRANCH  13  20
ATOM     20  N   LIG    1       -3.375   6.908  -7.944  0.00  0.00    +0.246 N 
ATOM     21  C   LIG    1       -2.477   7.836  -7.087  0.00  0.00    +0.133 C 
ATOM     22  C   LIG    1       -2.828   9.311  -7.253  0.00  0.00    +0.051 C 
ATOM     23  C   LIG    1       -4.299   9.564  -6.959  0.00  0.00    +0.010 C 
ATOM     24  C   LIG    1       -5.187   8.701  -7.841  0.00  0.00    +0.051 C 
ATOM     25  C   LIG    1       -4.855   7.218  -7.699  0.00  0.00    +0.133 C 
ATOM     26  C   LIG    1       -3.030   7.196  -9.429  0.00  0.00    +0.193 C 
ENDBRANCH  13  20
BRANCH  19  27
ATOM     27  N   LIG    1       -6.896  -0.841  -2.345  0.00  0.00    +0.246 N 
ATOM     28  C   LIG    1       -6.621  -2.244  -2.971  0.00  0.00    +0.133 C 
ATOM     29  C   LIG    1       -7.837  -2.811  -3.711  0.00  0.00    +0.051 C 
ATOM     30  C   LIG    1       -8.376  -1.846  -4.758  0.00  0.00    +0.010 C 
ATOM     31  C   LIG    1       -8.666  -0.484  -4.150  0.00  0.00    +0.051 C 
ATOM     32  C   LIG    1       -7.444   0.065  -3.433  0.00  0.00    +0.133 C 
ATOM     33  C   LIG    1       -7.963  -1.017  -1.247  0.00  0.00    +0.193 C 
ENDBRANCH  19  27
BRANCH   1  34
ATOM     34  O   LIG    1       -6.782   1.342  -0.325  0.00  0.00    -0.455 OA
BRANCH  34  36
ATOM     35  C   LIG    1       -7.930   1.268   1.710  0.00  0.00    +0.136 C 
ATOM     36  C   LIG    1       -6.791   1.838   0.933  0.00  0.00    +0.304 C 
ATOM     37  O   LIG    1       -5.878   2.536   1.400  0.00  0.00    -0.251 OA
ENDBRANCH  34  36
ENDBRANCH   1  34
BRANCH  12  38
ATOM     38  O   LIG    1       -3.549   4.397  -9.872  0.00  0.00    -0.456 OA
BRANCH  38  39
ATOM     39  C   LIG    1       -4.525   3.889 -10.689  0.00  0.00    +0.304 C 
ATOM     40  O   LIG    1       -5.456   3.200 -10.314  0.00  0.00    -0.251 OA
ATOM     41  C   LIG    1       -4.386   4.459 -12.070  0.00  0.00    +0.136 C 
ENDBRANCH  38  39
ENDBRANCH  12  38
TORSDOF 6
