REMARK  Name = *****
REMARK                            x       y       z     vdW  Elec       q    Type
REMARK                         _______ _______ _______ _____ _____    ______ ____
ROOT
ATOM      1  C   LIG    1        5.300   3.147   0.205  0.00  0.00    +0.010 A 
ATOM      2  C   LIG    1        6.663   3.341  -0.037  0.00  0.00    +0.121 A 
ATOM      3  C   LIG    1        7.198   4.623  -0.148  0.00  0.00    +0.047 A 
ATOM      4  C   LIG    1        6.366   5.741  -0.031  0.00  0.00    +0.027 A 
ATOM      5  C   LIG    1        5.002   5.601   0.222  0.00  0.00    +0.032 A 
ATOM      6  C   LIG    1        4.500   4.294   0.388  0.00  0.00    +0.031 A 
ENDROOT
BRANCH   2   7
ATOM      7  O   LIG    1        7.482   2.255  -0.173  0.00  0.00    -0.506 OA
ATOM      8  H   LIG    1        8.383   2.564  -0.366  0.00  0.00    +0.292 HD
ENDBRANCH   2   7
BRANCH   5   9
ATOM      9  N   LIG    1        4.107   6.685   0.348  0.00  0.00    -0.314 N 
ATOM     10  H   LIG    1        3.165   6.411   0.095  0.00  0.00    +0.152 HD
BRANCH   9  11
ATOM     11  C   LIG    1        4.219   8.024   0.796  0.00  0.00    +0.042 A 
ATOM     12  C   LIG    1        3.109   8.932   0.709  0.00  0.00    +0.022 A 
ATOM     13  C   LIG    1        3.275  10.225   1.254  0.00  0.00    +0.074 A 
ATOM     14  C   LIG    1        2.237  11.145   1.218  0.00  0.00    +0.048 A 
ATOM     15  C   LIG    1        1.025  10.834   0.613  0.00  0.00    +0.043 A 
ATOM     16  C   LIG    1        0.826   9.582   0.058  0.00  0.00    +0.021 A 
ATOM     17 CL   LIG    1       -0.220  12.019   0.537  0.00  0.00    -0.084 Cl
ATOM     18  N   LIG    1        4.415  10.650   1.817  0.00  0.00    -0.255 NA
ATOM     19  C   LIG    1        5.450   9.796   1.847  0.00  0.00    +0.113 A 
ATOM     20  C   LIG    1        1.851   8.632   0.111  0.00  0.00    +0.013 A 
ATOM     21  C   LIG    1        5.401   8.505   1.366  0.00  0.00    +0.043 A 
ENDBRANCH   9  11
ENDBRANCH   5   9
BRANCH   1  22
ATOM     22  C   LIG    1        4.728   1.742   0.323  0.00  0.00    +0.123 C 
BRANCH  22  23
ATOM     23  N   LIG    1        3.298   1.577  -0.053  0.00  0.00    -0.299 NA
BRANCH  23  25
ATOM     24  C   LIG    1        3.646   1.182  -2.562  0.00  0.00    +0.020 C 
ATOM     25  C   LIG    1        3.003   1.985  -1.437  0.00  0.00    +0.081 C 
ENDBRANCH  23  25
BRANCH  23  26
ATOM     26  C   LIG    1        2.872   0.197   0.251  0.00  0.00    +0.081 C 
ATOM     27  C   LIG    1        1.373  -0.037   0.088  0.00  0.00    +0.020 C 
ENDBRANCH  23  26
ENDBRANCH  22  23
ENDBRANCH   1  22
TORSDOF 7
