REMARK  Name = *****
REMARK                            x       y       z     vdW  Elec       q    Type
REMARK                         _______ _______ _______ _____ _____    ______ ____
ROOT
ATOM      1  C   LIG    1        2.871   0.655   0.109  0.00  0.00    +0.095 C 
ENDROOT
BRANCH   1   2
ATOM      2  C   LIG    1        3.391   0.829  -1.335  0.00  0.00    -0.016 A 
ATOM      3  C   LIG    1        2.897   0.023  -2.373  0.00  0.00    +0.006 A 
ATOM      4  C   LIG    1        3.385   0.120  -3.684  0.00  0.00    +0.000 A 
ATOM      5  C   LIG    1        4.397   1.033  -3.987  0.00  0.00    +0.000 A 
ATOM      6  C   LIG    1        4.892   1.851  -2.991  0.00  0.00    +0.000 A 
ATOM      7  C   LIG    1        4.389   1.765  -1.687  0.00  0.00    +0.006 A 
ENDBRANCH   1   2
BRANCH   1   8
ATOM      8  C   LIG    1        3.553   1.598   1.174  0.00  0.00    +0.025 C 
ATOM      9  C   LIG    1        3.017   1.429   2.615  0.00  0.00    +0.006 C 
ATOM     10  C   LIG    1        4.217   1.626   3.532  0.00  0.00    +0.000 C 
ATOM     11  C   LIG    1        5.332   0.951   2.765  0.00  0.00    +0.000 C 
ATOM     12  C   LIG    1        5.092   1.421   1.341  0.00  0.00    +0.006 C 
ENDBRANCH   1   8
BRANCH   1  13
ATOM     13  O   LIG    1        3.179  -0.700   0.502  0.00  0.00    -0.384 OA
ATOM     14  H   LIG    1        4.141  -0.818   0.440  0.00  0.00    +0.211 HD
ENDBRANCH   1  13
BRANCH   1  15
ATOM     15  C   LIG    1        1.306   0.715   0.182  0.00  0.00    +0.055 C 
BRANCH  15  16
ATOM     16  C   LIG    1        0.657   2.021  -0.296  0.00  0.00    +0.087 C 
BRANCH  16  17
ATOM     17  N   LIG    1       -0.823   2.037  -0.211  0.00  0.00    -0.302 NA
ATOM     18  C   LIG    1       -1.375   1.857   1.142  0.00  0.00    +0.084 C 
ATOM     19  C   LIG    1       -1.095   3.036   2.075  0.00  0.00    +0.015 C 
ATOM     20  C   LIG    1       -1.605   4.344   1.476  0.00  0.00    +0.002 C 
ATOM     21  C   LIG    1       -1.123   4.524   0.039  0.00  0.00    +0.015 C 
ATOM     22  C   LIG    1       -1.377   3.269  -0.804  0.00  0.00    +0.084 C 
ENDBRANCH  16  17
ENDBRANCH  15  16
ENDBRANCH   1  15
TORSDOF 6
