REMARK  Name = *****
REMARK                            x       y       z     vdW  Elec       q    Type
REMARK                         _______ _______ _______ _____ _____    ______ ____
ROOT
ATOM      1  C   LIG    1        4.439  -5.355  -1.085  0.00  0.00    +0.211 C 
ATOM      2  O   LIG    1        5.493  -5.195  -1.702  0.00  0.00    -0.285 OA
ENDROOT
BRANCH   1   3
ATOM      3  C   LIG    1        3.876  -6.732  -0.932  0.00  0.00    +0.110 C 
ATOM      4  C   LIG    1        2.634  -7.202  -0.650  0.00  0.00    +0.044 C 
ATOM      5  C   LIG    1        1.335  -6.551  -0.361  0.00  0.00    +0.065 C 
ATOM      6  N   LIG    1        2.681  -8.578  -0.677  0.00  0.00    -0.310 N 
ATOM      7  H   LIG    1        1.916  -9.215  -0.507  0.00  0.00    +0.170 HD
ATOM      8  C   LIG    1        3.977  -9.017  -0.974  0.00  0.00    +0.325 C 
ATOM      9  O   LIG    1        4.366 -10.157  -1.061  0.00  0.00    -0.247 OA
ATOM     10  N   LIG    1        4.697  -7.825  -1.127  0.00  0.00    -0.303 N 
ATOM     11  H   LIG    1        5.686  -7.800  -1.351  0.00  0.00    +0.171 HD
ENDBRANCH   1   3
BRANCH   1  15
ATOM     12  C   LIG    1        2.645  -1.808   0.594  0.00  0.00    +0.008 A 
ATOM     13  C   LIG    1        2.532  -3.030   1.259  0.00  0.00    +0.015 A 
ATOM     14  C   LIG    1        3.144  -4.179   0.744  0.00  0.00    +0.013 A 
ATOM     15  C   LIG    1        3.766  -4.158  -0.507  0.00  0.00    +0.024 A 
ATOM     16  C   LIG    1        3.842  -2.938  -1.195  0.00  0.00    +0.013 A 
ATOM     17  C   LIG    1        3.294  -1.770  -0.643  0.00  0.00    +0.015 A 
BRANCH  12  19
ATOM     18  C   LIG    1        2.963  -0.298   2.874  0.00  0.00    +0.090 C 
ATOM     19  S   LIG    1        2.010  -0.311   1.324  0.00  0.00    -0.129 S 
ENDBRANCH  12  19
ENDBRANCH   1  15
TORSDOF 3
