REMARK  Name = *****
REMARK                            x       y       z     vdW  Elec       q    Type
REMARK                         _______ _______ _______ _____ _____    ______ ____
ROOT
ATOM      1  C   LIG    1        8.845  -4.045  -3.996  0.00  0.00    +0.144 C 
ATOM      2  C   LIG    1       10.190  -4.422  -3.989  0.00  0.00    +0.014 C 
ENDROOT
BRANCH   2   3
ATOM      3  C   LIG    1       10.594  -5.608  -4.917  0.00  0.00    -0.016 A 
ATOM      4  C   LIG    1       11.732  -5.538  -5.745  0.00  0.00    +0.012 A 
ATOM      5  C   LIG    1       12.137  -6.634  -6.540  0.00  0.00    +0.046 A 
ATOM      6  C   LIG    1       11.338  -7.771  -6.643  0.00  0.00    +0.120 A 
ATOM      7  C   LIG    1       10.177  -7.825  -5.885  0.00  0.00    +0.046 A 
ATOM      8  C   LIG    1        9.871  -6.811  -4.972  0.00  0.00    +0.012 A 
BRANCH   6   9
ATOM      9  O   LIG    1       11.756  -8.764  -7.491  0.00  0.00    -0.495 OA
ATOM     10  C   LIG    1       10.846  -9.858  -7.632  0.00  0.00    +0.277 C 
ENDBRANCH   6   9
ENDBRANCH   2   3
BRANCH   2  11
ATOM     11  C   LIG    1       11.342  -3.780  -3.152  0.00  0.00    -0.016 A 
ATOM     12  C   LIG    1       11.466  -2.415  -2.839  0.00  0.00    +0.008 A 
ATOM     13  C   LIG    1       12.554  -1.874  -2.127  0.00  0.00    +0.001 A 
ATOM     14  C   LIG    1       13.641  -2.666  -1.805  0.00  0.00    +0.000 A 
ATOM     15  C   LIG    1       13.589  -4.016  -2.118  0.00  0.00    +0.001 A 
ATOM     16  C   LIG    1       12.445  -4.569  -2.737  0.00  0.00    +0.008 A 
ENDBRANCH   2  11
BRANCH   1  17
ATOM     17  C   LIG    1        8.262  -2.978  -3.198  0.00  0.00    +0.350 C 
ATOM     18  O   LIG    1        8.855  -2.260  -2.471  0.00  0.00    -0.244 OA
BRANCH  17  19
ATOM     19  O   LIG    1        6.909  -2.959  -3.348  0.00  0.00    -0.460 OA
BRANCH  19  20
ATOM     20  C   LIG    1        6.249  -2.333  -2.248  0.00  0.00    +0.236 C 
BRANCH  20  21
ATOM     21  C   LIG    1        6.531  -0.826  -2.135  0.00  0.00    +0.026 C 
BRANCH  21  22
ATOM     22  C   LIG    1        6.163  -0.078  -3.419  0.00  0.00    +0.003 C 
ATOM     23  C   LIG    1        4.692  -0.141  -3.779  0.00  0.00    +0.004 C 
ENDBRANCH  21  22
BRANCH  21  24
ATOM     24  C   LIG    1        6.064  -0.161  -0.832  0.00  0.00    +0.007 C 
BRANCH  24  25
ATOM     25  C   LIG    1        4.575  -0.077  -0.519  0.00  0.00    +0.000 C 
BRANCH  25  27
ATOM     26  C   LIG    1        2.366  -1.225  -0.153  0.00  0.00    +0.004 C 
ATOM     27  C   LIG    1        3.845  -1.415  -0.416  0.00  0.00    -0.003 C 
ENDBRANCH  25  27
ENDBRANCH  24  25
ENDBRANCH  21  24
ENDBRANCH  20  21
ENDBRANCH  19  20
ENDBRANCH  17  19
ENDBRANCH   1  17
BRANCH   1  28
ATOM     28  C   LIG    1        7.931  -4.801  -4.750  0.00  0.00    +0.107 C 
ATOM     29  N   LIG    1        7.183  -5.421  -5.368  0.00  0.00    -0.191 NA
ENDBRANCH   1  28
TORSDOF 12
