REMARK  Name = *****
REMARK                            x       y       z     vdW  Elec       q    Type
REMARK                         _______ _______ _______ _____ _____    ______ ____
ROOT
ATOM      1  C   LIG    1        4.043  -0.832   1.545  0.00  0.00    +0.104 C 
ATOM      2  C   LIG    1        2.575  -0.448   1.775  0.00  0.00    +0.046 C 
ATOM      3  C   LIG    1        2.552  -0.454   3.296  0.00  0.00    +0.236 C 
ATOM      4  O   LIG    1        3.380  -1.553   3.682  0.00  0.00    -0.464 OA
ATOM      5  C   LIG    1        4.276  -1.802   2.681  0.00  0.00    +0.311 C 
ATOM      6  O   LIG    1        5.144  -2.659   2.736  0.00  0.00    -0.251 OA
ENDROOT
BRANCH   1   8
ATOM      7  C   LIG    1        4.224  -0.441  -0.959  0.00  0.00    +0.004 C 
ATOM      8  C   LIG    1        4.444  -1.412   0.191  0.00  0.00    +0.012 C 
ENDBRANCH   1   8
BRANCH   2   9
ATOM      9  C   LIG    1        1.559  -1.435   1.160  0.00  0.00    +0.062 C 
BRANCH   9  10
ATOM     10  C   LIG    1        0.128  -1.155   1.501  0.00  0.00    +0.038 A 
ATOM     11  N   LIG    1       -0.611  -0.057   1.122  0.00  0.00    -0.337 N 
ATOM     12  C   LIG    1       -0.204   1.071   0.322  0.00  0.00    +0.150 C 
ATOM     13  C   LIG    1       -1.874  -0.208   1.626  0.00  0.00    +0.199 A 
ATOM     14  N   LIG    1       -2.002  -1.339   2.278  0.00  0.00    -0.244 NA
ATOM     15  C   LIG    1       -0.776  -1.940   2.195  0.00  0.00    +0.133 A 
ENDBRANCH   9  10
ENDBRANCH   2   9
TORSDOF 3
