REMARK  Name = *****
REMARK                            x       y       z     vdW  Elec       q    Type
REMARK                         _______ _______ _______ _____ _____    ______ ____
ROOT
ATOM      1  S   LIG    1        6.800   0.119  -0.433  0.00  0.00    +0.073 S 
ATOM      2  O   LIG    1        7.431   0.879   0.630  0.00  0.00    -0.150 OA
ATOM      3  O   LIG    1        6.801   0.616  -1.790  0.00  0.00    -0.150 OA
ENDROOT
BRANCH   1   7
ATOM      4  C   LIG    1        2.416  -0.146   0.866  0.00  0.00    +0.025 A 
ATOM      5  C   LIG    1        2.766  -0.352  -0.473  0.00  0.00    +0.024 A 
ATOM      6  C   LIG    1        4.105  -0.311  -0.880  0.00  0.00    +0.030 A 
ATOM      7  C   LIG    1        5.106  -0.124   0.074  0.00  0.00    +0.109 A 
ATOM      8  C   LIG    1        4.774  -0.005   1.427  0.00  0.00    +0.030 A 
ATOM      9  C   LIG    1        3.433  -0.046   1.819  0.00  0.00    +0.024 A 
BRANCH   4  10
ATOM     10  N   LIG    1        1.079  -0.250   1.273  0.00  0.00    -0.358 N 
ATOM     11  H   LIG    1        0.417   0.018   0.551  0.00  0.00    +0.142 HD
ATOM     12  H   LIG    1        0.887   0.227   2.150  0.00  0.00    +0.142 HD
ENDBRANCH   4  10
ENDBRANCH   1   7
BRANCH   1  13
ATOM     13  N   LIG    1        7.462  -1.437  -0.362  0.00  0.00    -0.200 N 
ATOM     14  H   LIG    1        7.002  -1.969   0.373  0.00  0.00    +0.175 HD
BRANCH  13  15
ATOM     15  C   LIG    1        7.351  -2.175  -1.559  0.00  0.00    +0.138 A 
ATOM     16  N   LIG    1        6.253  -2.944  -1.625  0.00  0.00    -0.239 NA
ATOM     17  C   LIG    1        6.121  -3.682  -2.752  0.00  0.00    +0.113 A 
ATOM     18  C   LIG    1        7.043  -3.690  -3.790  0.00  0.00    +0.020 A 
ATOM     19  C   LIG    1        8.168  -2.879  -3.678  0.00  0.00    +0.005 A 
ATOM     20  C   LIG    1        8.323  -2.092  -2.542  0.00  0.00    +0.045 A 
ENDBRANCH  13  15
ENDBRANCH   1  13
TORSDOF 4
