REMARK  Name = *****
REMARK                            x       y       z     vdW  Elec       q    Type
REMARK                         _______ _______ _______ _____ _____    ______ ____
ROOT
ATOM      1  O   LIG    1        1.123   0.141   0.145  0.00  0.00    -0.252 OA
ATOM      2  C   LIG    1        2.310  -0.019   0.372  0.00  0.00    +0.306 C 
ATOM      3  N   LIG    1        3.222   0.964   0.762  0.00  0.00    -0.271 N 
ATOM      4  C   LIG    1        4.580   0.421   0.792  0.00  0.00    +0.155 C 
ATOM      5  C   LIG    1        4.325  -1.088   0.899  0.00  0.00    +0.152 C 
ATOM      6  C   LIG    1        4.301  -1.450   2.387  0.00  0.00    +0.302 C 
ATOM      7  S   LIG    1        5.262  -0.250   3.365  0.00  0.00    -0.004 S 
ATOM      8  C   LIG    1        6.902  -1.028   3.173  0.00  0.00    +0.278 C 
ATOM      9  C   LIG    1        7.456  -0.648   1.816  0.00  0.00    +0.059 C 
ATOM     10  C   LIG    1        6.998   0.778   1.565  0.00  0.00    +0.064 C 
ATOM     11  C   LIG    1        5.510   0.868   1.921  0.00  0.00    +0.230 C 
ATOM     12  N   LIG    1        3.014  -1.220   0.281  0.00  0.00    -0.272 N 
ENDROOT
BRANCH   3  13
ATOM     13  C   LIG    1        2.852   2.361   0.890  0.00  0.00    +0.145 C 
BRANCH  13  14
ATOM     14  C   LIG    1        3.748   3.341   0.169  0.00  0.00    -0.030 A 
ATOM     15  C   LIG    1        3.900   3.295  -1.226  0.00  0.00    +0.005 A 
ATOM     16  C   LIG    1        4.685   4.246  -1.884  0.00  0.00    +0.000 A 
ATOM     17  C   LIG    1        5.321   5.253  -1.161  0.00  0.00    +0.000 A 
ATOM     18  C   LIG    1        5.172   5.313   0.225  0.00  0.00    +0.000 A 
ATOM     19  C   LIG    1        4.387   4.363   0.882  0.00  0.00    +0.005 A 
ENDBRANCH  13  14
ENDBRANCH   3  13
BRANCH  12  20
ATOM     20  C   LIG    1        2.418  -2.483  -0.109  0.00  0.00    +0.145 C 
BRANCH  20  21
ATOM     21  C   LIG    1        1.945  -3.337   1.041  0.00  0.00    -0.030 A 
ATOM     22  C   LIG    1        2.414  -4.649   1.204  0.00  0.00    +0.005 A 
ATOM     23  C   LIG    1        1.917  -5.457   2.230  0.00  0.00    +0.000 A 
ATOM     24  C   LIG    1        0.951  -4.963   3.105  0.00  0.00    +0.000 A 
ATOM     25  C   LIG    1        0.485  -3.659   2.960  0.00  0.00    +0.000 A 
ATOM     26  C   LIG    1        0.975  -2.854   1.932  0.00  0.00    +0.005 A 
ENDBRANCH  20  21
ENDBRANCH  12  20
TORSDOF 4
