REMARK  Name = *****
REMARK                            x       y       z     vdW  Elec       q    Type
REMARK                         _______ _______ _______ _____ _____    ______ ____
ROOT
ATOM      1  O   LIG    1        1.125   0.350   0.055  0.00  0.00    -0.270 OA
ATOM      2  C   LIG    1        2.326   0.211  -0.104  0.00  0.00    +0.246 C 
ATOM      3  N   LIG    1        2.931  -1.014  -0.330  0.00  0.00    -0.308 N 
ATOM      4  H   LIG    1        3.938  -1.080  -0.301  0.00  0.00    +0.149 HD
ENDROOT
BRANCH   2   5
ATOM      5  C   LIG    1        3.243   1.381  -0.048  0.00  0.00    +0.055 A 
ATOM      6  C   LIG    1        2.914   2.483   0.732  0.00  0.00    +0.123 A 
ATOM      7  N   LIG    1        3.684   3.600   0.823  0.00  0.00    -0.263 NA
ATOM      8  C   LIG    1        4.819   3.621   0.090  0.00  0.00    +0.111 A 
ATOM      9  C   LIG    1        5.226   2.575  -0.723  0.00  0.00    +0.020 A 
ATOM     10  C   LIG    1        4.422   1.439  -0.793  0.00  0.00    +0.016 A 
ENDBRANCH   2   5
BRANCH   3  11
ATOM     11  C   LIG    1        2.179  -2.260  -0.414  0.00  0.00    +0.153 C 
BRANCH  11  12
ATOM     12  C   LIG    1        1.695  -2.579  -1.832  0.00  0.00    +0.339 C 
BRANCH  12  13
ATOM     13  O   LIG    1        2.805  -2.698  -2.727  0.00  0.00    -0.215 OA
BRANCH  13  14
ATOM     14  N   LIG    1        3.343  -4.004  -2.808  0.00  0.00    +0.284 N 
ATOM     15  O   LIG    1        2.784  -4.892  -2.164  0.00  0.00    -0.534 OA
ATOM     16  O   LIG    1        4.347  -4.059  -3.516  0.00  0.00    +0.093 OA
ENDBRANCH  13  14
ENDBRANCH  12  13
ENDBRANCH  11  12
ENDBRANCH   3  11
TORSDOF 5
