REMARK  Name = *****
REMARK                            x       y       z     vdW  Elec       q    Type
REMARK                         _______ _______ _______ _____ _____    ______ ____
ROOT
ATOM      1  C   LIG    1        4.854  -0.582   1.059  0.00  0.00    +0.086 C 
ATOM      2  C   LIG    1        5.353  -1.721   1.876  0.00  0.00    +0.345 C 
ATOM      3  O   LIG    1        4.639  -2.347   2.657  0.00  0.00    -0.245 OA
ATOM      4  O   LIG    1        6.686  -2.071   1.755  0.00  0.00    -0.422 OA
ATOM      5  C   LIG    1        7.595  -1.314   0.997  0.00  0.00    +0.143 A 
ATOM      6  C   LIG    1        7.166  -0.205   0.276  0.00  0.00    +0.059 A 
ATOM      7  C   LIG    1        8.144   0.519  -0.425  0.00  0.00    +0.015 A 
ATOM      8  C   LIG    1        9.490   0.117  -0.406  0.00  0.00    +0.001 A 
ATOM      9  C   LIG    1        9.883  -1.001   0.326  0.00  0.00    +0.004 A 
ATOM     10  C   LIG    1        8.930  -1.722   1.037  0.00  0.00    +0.047 A 
ATOM     11  C   LIG    1        5.733   0.126   0.320  0.00  0.00    +0.138 C 
ENDROOT
BRANCH  11  12
ATOM     12  O   LIG    1        5.303   1.202  -0.435  0.00  0.00    -0.505 OA
ATOM     13  H   LIG    1        5.838   1.247  -1.244  0.00  0.00    +0.292 HD
ENDBRANCH  11  12
BRANCH   1  14
ATOM     14  C   LIG    1        3.355  -0.250   1.118  0.00  0.00    +0.059 C 
BRANCH  14  15
ATOM     15  C   LIG    1        2.464  -1.353   0.513  0.00  0.00    -0.040 A 
ATOM     16  C   LIG    1        2.145  -1.354  -0.858  0.00  0.00    +0.004 A 
ATOM     17  C   LIG    1        1.367  -2.378  -1.417  0.00  0.00    +0.000 A 
ATOM     18  C   LIG    1        0.875  -3.406  -0.616  0.00  0.00    +0.000 A 
ATOM     19  C   LIG    1        1.152  -3.405   0.746  0.00  0.00    +0.000 A 
ATOM     20  C   LIG    1        1.939  -2.393   1.300  0.00  0.00    +0.004 A 
ENDBRANCH  14  15
BRANCH  14  22
ATOM     21  C   LIG    1        3.510   1.451   3.077  0.00  0.00    +0.005 C 
ATOM     22  C   LIG    1        2.859   0.189   2.525  0.00  0.00    +0.010 C 
ENDBRANCH  14  22
ENDBRANCH   1  14
TORSDOF 4
