REMARK  Name = *****
REMARK                            x       y       z     vdW  Elec       q    Type
REMARK                         _______ _______ _______ _____ _____    ______ ____
ROOT
ATOM      1  C   LIG    1        5.346  -5.297  -2.756  0.00  0.00    +0.042 A 
ATOM      2  C   LIG    1        5.922  -5.900  -3.872  0.00  0.00    +0.063 A 
ATOM      3  C   LIG    1        6.089  -7.291  -3.929  0.00  0.00    +0.146 A 
ATOM      4  F   LIG    1        6.659  -7.764  -5.050  0.00  0.00    -0.203 F 
ATOM      5  C   LIG    1        5.713  -8.155  -2.878  0.00  0.00    +0.066 A 
ATOM      6  C   LIG    1        5.129  -7.525  -1.772  0.00  0.00    +0.028 A 
ATOM      7  C   LIG    1        4.963  -6.135  -1.708  0.00  0.00    +0.026 A 
ENDROOT
BRANCH   1  12
ATOM      8  C   LIG    1        4.901  -1.663  -3.296  0.00  0.00    +0.213 C 
ATOM      9  O   LIG    1        4.317  -1.905  -2.007  0.00  0.00    -0.444 OA
ATOM     10  C   LIG    1        4.564  -3.198  -1.643  0.00  0.00    +0.408 C 
ATOM     11  O   LIG    1        4.290  -3.596  -0.517  0.00  0.00    -0.226 OA
ATOM     12  N   LIG    1        5.121  -3.895  -2.702  0.00  0.00    -0.234 N 
ATOM     13  C   LIG    1        5.156  -3.049  -3.860  0.00  0.00    +0.163 C 
BRANCH   8  14
ATOM     14  C   LIG    1        6.190  -0.852  -3.120  0.00  0.00    +0.150 C 
BRANCH  14  17
ATOM     15  C   LIG    1        5.552   2.859  -2.594  0.00  0.00    +0.109 C 
ATOM     16  C   LIG    1        5.697   1.566  -3.354  0.00  0.00    +0.210 C 
ATOM     17  N   LIG    1        5.961   0.474  -2.562  0.00  0.00    -0.312 N 
ATOM     18  H   LIG    1        5.930   0.572  -1.554  0.00  0.00    +0.149 HD
ATOM     19  O   LIG    1        5.632   1.508  -4.578  0.00  0.00    -0.276 OA
ENDBRANCH  14  17
ENDBRANCH   8  14
ENDBRANCH   1  12
BRANCH   5  20
ATOM     20  N   LIG    1        5.849  -9.565  -2.897  0.00  0.00    -0.323 N 
ATOM     21  C   LIG    1        6.428 -10.135  -1.651  0.00  0.00    +0.133 C 
ATOM     22  C   LIG    1        6.490 -11.669  -1.712  0.00  0.00    +0.178 C 
ATOM     23  O   LIG    1        7.188 -12.130  -2.876  0.00  0.00    -0.377 OA
ATOM     24  C   LIG    1        6.502 -11.679  -4.050  0.00  0.00    +0.178 C 
ATOM     25  C   LIG    1        6.456 -10.148  -4.118  0.00  0.00    +0.133 C 
ENDBRANCH   5  20
TORSDOF 4
