REMARK  Name = *****
REMARK                            x       y       z     vdW  Elec       q    Type
REMARK                         _______ _______ _______ _____ _____    ______ ____
ROOT
ATOM      1  C   LIG    1        2.644   1.338   0.574  0.00  0.00    +0.033 A 
ATOM      2  C   LIG    1        1.914   2.539   0.336  0.00  0.00    -0.011 A 
ATOM      3  C   LIG    1        0.592   2.554  -0.401  0.00  0.00    +0.046 C 
ATOM      4  C   LIG    1        0.335   3.848  -1.185  0.00  0.00    +0.031 C 
ATOM      5  C   LIG    1        0.497   5.058  -0.318  0.00  0.00    +0.044 C 
ATOM      6  C   LIG    1        1.565   5.012   0.724  0.00  0.00    +0.197 C 
ATOM      7  O   LIG    1        1.689   5.950   1.509  0.00  0.00    -0.287 OA
ATOM      8  C   LIG    1       -0.240   6.176  -0.485  0.00  0.00    +0.141 C 
ATOM      9  C   LIG    1       -1.274   6.332  -1.578  0.00  0.00    +0.190 C 
ATOM     10  C   LIG    1       -1.433   5.113  -2.530  0.00  0.00    +0.061 C 
ATOM     11  C   LIG    1       -2.893   5.003  -3.114  0.00  0.00    +0.129 C 
ATOM     12  C   LIG    1       -3.596   6.367  -3.199  0.00  0.00    +0.127 C 
ATOM     13  C   LIG    1       -3.575   7.201  -2.135  0.00  0.00    +0.121 C 
ATOM     14  C   LIG    1       -2.684   6.687  -1.054  0.00  0.00    +0.210 C 
ATOM     15  O   LIG    1       -3.118   6.396   0.056  0.00  0.00    -0.288 OA
ATOM     16  C   LIG    1       -1.065   3.795  -1.818  0.00  0.00    +0.018 C 
ATOM     17  C   LIG    1        2.417   3.789   0.797  0.00  0.00    +0.068 A 
ATOM     18  C   LIG    1        3.692   3.873   1.365  0.00  0.00    +0.128 A 
ATOM     19  C   LIG    1        4.447   2.727   1.540  0.00  0.00    +0.048 A 
ATOM     20  C   LIG    1        3.920   1.490   1.165  0.00  0.00    +0.027 A 
ENDROOT
BRANCH  13  21
ATOM     21  C   LIG    1       -4.219   8.527  -2.017  0.00  0.00    +0.248 C 
ATOM     22  O   LIG    1       -4.238   9.168  -0.969  0.00  0.00    -0.270 OA
ATOM     23  N   LIG    1       -4.763   9.043  -3.151  0.00  0.00    -0.325 N 
ATOM     24  H   LIG    1       -4.742   8.520  -4.021  0.00  0.00    +0.145 HD
ATOM     25  H   LIG    1       -5.199   9.952  -3.117  0.00  0.00    +0.145 HD
ENDBRANCH  13  21
BRANCH   1  27
ATOM     26  C   LIG    1        0.780  -0.298   0.429  0.00  0.00    +0.129 C 
ATOM     27  N   LIG    1        2.188   0.055   0.225  0.00  0.00    -0.336 N 
ATOM     28  C   LIG    1        3.095  -1.092   0.332  0.00  0.00    +0.129 C 
ENDBRANCH   1  27
BRANCH  11  29
ATOM     29  N   LIG    1       -2.971   4.105  -4.281  0.00  0.00    -0.298 NA
ATOM     30  C   LIG    1       -4.277   3.518  -4.551  0.00  0.00    +0.105 C 
ATOM     31  C   LIG    1       -2.181   4.436  -5.455  0.00  0.00    +0.105 C 
ENDBRANCH  11  29
BRANCH   8  32
ATOM     32  O   LIG    1       -0.022   7.343   0.238  0.00  0.00    -0.507 OA
ATOM     33  H   LIG    1        0.632   7.142   0.951  0.00  0.00    +0.292 HD
ENDBRANCH   8  32
BRANCH   9  34
ATOM     34  O   LIG    1       -0.804   7.439  -2.378  0.00  0.00    -0.373 OA
ATOM     35  H   LIG    1       -0.479   8.098  -1.728  0.00  0.00    +0.211 HD
ENDBRANCH   9  34
BRANCH  12  36
ATOM     36  O   LIG    1       -4.276   6.689  -4.362  0.00  0.00    -0.509 OA
ATOM     37  H   LIG    1       -4.104   5.973  -4.997  0.00  0.00    +0.292 HD
ENDBRANCH  12  36
BRANCH  18  38
ATOM     38  O   LIG    1        4.237   5.077   1.708  0.00  0.00    -0.506 OA
ATOM     39  H   LIG    1        5.054   4.942   2.213  0.00  0.00    +0.292 HD
ENDBRANCH  18  38
TORSDOF 7
