REMARK  Name = *****
REMARK                            x       y       z     vdW  Elec       q    Type
REMARK                         _______ _______ _______ _____ _____    ______ ____
ROOT
ATOM      1  C   LIG    1        0.404  -1.403   1.702  0.00  0.00    +0.050 C 
ATOM      2  C   LIG    1       -0.637  -0.840   0.756  0.00  0.00    +0.173 C 
ATOM      3  S   LIG    1       -0.252  -1.031  -0.999  0.00  0.00    -0.127 S 
ATOM      4  C   LIG    1       -0.743   0.679  -1.367  0.00  0.00    +0.108 C 
ATOM      5  C   LIG    1       -1.513   1.147  -0.122  0.00  0.00    +0.095 C 
ATOM      6  C   LIG    1       -1.512   2.698   0.044  0.00  0.00    +0.026 C 
ATOM      7  C   LIG    1       -1.885   2.995   1.510  0.00  0.00    +0.022 C 
ATOM      8  C   LIG    1       -3.134   2.164   1.857  0.00  0.00    +0.085 C 
ATOM      9  N   LIG    1       -3.854   1.717   0.632  0.00  0.00    -0.299 NA
ATOM     10  C   LIG    1       -4.011   2.880  -0.261  0.00  0.00    +0.085 C 
ATOM     11  C   LIG    1       -2.642   3.326  -0.813  0.00  0.00    +0.022 C 
ATOM     12  C   LIG    1       -3.017   0.714  -0.098  0.00  0.00    +0.120 C 
ATOM     13  O   LIG    1       -0.805   0.559   1.003  0.00  0.00    -0.358 OA
ENDROOT
TORSDOF 0
