REMARK  Name = *****
REMARK                            x       y       z     vdW  Elec       q    Type
REMARK                         _______ _______ _______ _____ _____    ______ ____
ROOT
ATOM      1  C   LIG    1       -2.997   5.406  -0.244  0.00  0.00    +0.201 C 
ATOM      2  C   LIG    1       -4.078   4.814   0.670  0.00  0.00    +0.181 C 
ATOM      3  C   LIG    1       -4.569   6.034   1.423  0.00  0.00    +0.195 C 
ATOM      4  C   LIG    1       -3.250   6.785   1.633  0.00  0.00    +0.253 C 
ATOM      5  O   LIG    1       -2.429   6.539   0.472  0.00  0.00    -0.343 OA
ENDROOT
BRANCH   4   6
ATOM      6  N   LIG    1       -3.345   8.216   1.836  0.00  0.00    -0.285 N 
ATOM      7  C   LIG    1       -4.298   9.073   1.358  0.00  0.00    +0.167 A 
ATOM      8  N   LIG    1       -5.330   8.795   0.545  0.00  0.00    -0.216 NA
ATOM      9  C   LIG    1       -6.086   9.883   0.317  0.00  0.00    +0.225 A 
ATOM     10  N   LIG    1       -5.909  11.131   0.787  0.00  0.00    -0.219 NA
ATOM     11  C   LIG    1       -4.862  11.365   1.611  0.00  0.00    +0.147 A 
ATOM     12  C   LIG    1       -3.992  10.303   1.916  0.00  0.00    +0.147 A 
ATOM     13  N   LIG    1       -2.851  10.220   2.686  0.00  0.00    -0.231 NA
ATOM     14  C   LIG    1       -2.485   8.957   2.609  0.00  0.00    +0.203 A 
BRANCH  11  15
ATOM     15  N   LIG    1       -4.703  12.651   2.107  0.00  0.00    -0.341 N 
ATOM     16  H   LIG    1       -3.760  12.851   2.418  0.00  0.00    +0.144 HD
ATOM     17  H   LIG    1       -5.165  13.340   1.529  0.00  0.00    +0.144 HD
ENDBRANCH  11  15
ENDBRANCH   4   6
BRANCH   2  18
ATOM     18  O   LIG    1       -3.502   3.896   1.607  0.00  0.00    -0.386 OA
ATOM     19  H   LIG    1       -4.152   3.847   2.340  0.00  0.00    +0.210 HD
ENDBRANCH   2  18
BRANCH   3  20
ATOM     20  O   LIG    1       -5.230   5.673   2.635  0.00  0.00    -0.385 OA
ATOM     21  H   LIG    1       -5.653   6.484   2.976  0.00  0.00    +0.210 HD
ENDBRANCH   3  20
BRANCH   1  22
ATOM     22  C   LIG    1       -3.557   5.941  -1.570  0.00  0.00    +0.311 C 
BRANCH  22  24
ATOM     23  C   LIG    1       -2.755   4.003  -3.293  0.00  0.00    +0.340 C 
ATOM     24  S   LIG    1       -4.305   4.626  -2.577  0.00  0.00    -0.011 S 
BRANCH  24  25
ATOM     25  C   LIG    1       -4.829   5.614  -4.023  0.00  0.00    +0.280 C 
BRANCH  25  26
ATOM     26  C   LIG    1       -5.858   6.692  -3.656  0.00  0.00    +0.084 C 
BRANCH  26  27
ATOM     27  CA  LIG    1       -6.336   7.544  -4.842  0.00  0.00    +0.165 C 
BRANCH  27  28
ATOM     28  N   LIG    1       -7.274   8.617  -4.368  0.00  0.00    -0.318 NA
ATOM     29  H1  LIG    1       -7.078   9.468  -4.906  0.00  0.00    +0.119 HD
ATOM     30  H2  LIG    1       -7.024   8.867  -3.408  0.00  0.00    +0.119 HD
ENDBRANCH  27  28
BRANCH  27  31
ATOM     31  C   LIG    1       -7.052   6.728  -5.939  0.00  0.00    +0.322 C 
ATOM     32  O   LIG    1       -6.571   5.796  -6.542  0.00  0.00    -0.249 OA
BRANCH  31  33
ATOM     33  OXT LIG    1       -8.298   7.210  -6.197  0.00  0.00    -0.479 OA
ATOM     34  HXT LIG    1       -8.457   7.934  -5.546  0.00  0.00    +0.295 HD
ENDBRANCH  31  33
ENDBRANCH  27  31
ENDBRANCH  26  27
ENDBRANCH  25  26
ENDBRANCH  24  25
ENDBRANCH  22  24
ENDBRANCH   1  22
TORSDOF 12
