REMARK  Name = *****
REMARK                            x       y       z     vdW  Elec       q    Type
REMARK                         _______ _______ _______ _____ _____    ______ ____
ROOT
ATOM      1  C   LIG    1        5.830  -0.520  -2.372  0.00  0.00    +0.170 C 
ENDROOT
BRANCH   1   7
ATOM      2 CL   LIG    1        2.820  -5.085  -4.954  0.00  0.00    -0.084 Cl
ATOM      3  C   LIG    1        3.693  -3.807  -4.206  0.00  0.00    +0.042 A 
ATOM      4  C   LIG    1        5.043  -3.634  -4.491  0.00  0.00    +0.040 A 
ATOM      5  C   LIG    1        5.753  -2.590  -3.891  0.00  0.00    +0.048 A 
ATOM      6 CL   LIG    1        7.425  -2.442  -4.299  0.00  0.00    -0.083 Cl
ATOM      7  C   LIG    1        5.113  -1.702  -3.008  0.00  0.00    +0.001 A 
ATOM      8  C   LIG    1        3.747  -1.906  -2.729  0.00  0.00    +0.009 A 
ATOM      9  C   LIG    1        3.042  -2.951  -3.324  0.00  0.00    +0.020 A 
ENDBRANCH   1   7
BRANCH   1  10
ATOM     10  C   LIG    1        5.839  -0.612  -0.831  0.00  0.00    +0.159 C 
BRANCH  10  11
ATOM     11  N   LIG    1        6.441  -1.818  -0.302  0.00  0.00    -0.334 N 
ATOM     12  C   LIG    1        7.733  -2.216  -0.483  0.00  0.00    +0.199 A 
ATOM     13  N   LIG    1        7.969  -3.360   0.126  0.00  0.00    -0.244 NA
ATOM     14  C   LIG    1        6.790  -3.698   0.733  0.00  0.00    +0.130 A 
ATOM     15  C   LIG    1        5.822  -2.752   0.482  0.00  0.00    +0.107 A 
ENDBRANCH  10  11
ENDBRANCH   1  10
BRANCH   1  16
ATOM     16  O   LIG    1        5.158   0.707  -2.722  0.00  0.00    -0.365 OA
BRANCH  16  17
ATOM     17  C   LIG    1        5.239   1.038  -4.115  0.00  0.00    +0.197 C 
BRANCH  17  18
ATOM     18  C   LIG    1        4.580   2.361  -4.385  0.00  0.00    -0.007 A 
ATOM     19  C   LIG    1        3.192   2.684  -4.095  0.00  0.00    -0.004 A 
ATOM     20  C   LIG    1        2.161   1.889  -3.525  0.00  0.00    +0.009 A 
ATOM     21  C   LIG    1        0.882   2.409  -3.301  0.00  0.00    +0.002 A 
ATOM     22  C   LIG    1        0.598   3.722  -3.640  0.00  0.00    +0.021 A 
ATOM     23  C   LIG    1        1.583   4.531  -4.213  0.00  0.00    +0.055 A 
ATOM     24 CL   LIG    1        1.176   6.159  -4.618  0.00  0.00    -0.082 Cl
ATOM     25  C   LIG    1        2.876   4.007  -4.440  0.00  0.00    +0.038 A 
ATOM     26  S   LIG    1        4.243   4.802  -5.130  0.00  0.00    -0.095 S 
ATOM     27  C   LIG    1        5.233   3.433  -4.957  0.00  0.00    +0.052 A 
ENDBRANCH  17  18
ENDBRANCH  16  17
ENDBRANCH   1  16
TORSDOF 6
