REMARK  Name = *****
REMARK                            x       y       z     vdW  Elec       q    Type
REMARK                         _______ _______ _______ _____ _____    ______ ____
ROOT
ATOM      1  C   LIG    1        1.976   2.456  -0.530  0.00  0.00    +0.080 C 
ENDROOT
BRANCH   1   2
ATOM      2  C   LIG    1        0.815   2.521   0.517  0.00  0.00    -0.030 A 
ATOM      3  C   LIG    1        0.017   1.407   0.842  0.00  0.00    +0.005 A 
ATOM      4  C   LIG    1       -1.027   1.504   1.768  0.00  0.00    +0.000 A 
ATOM      5  C   LIG    1       -1.306   2.717   2.388  0.00  0.00    +0.000 A 
ATOM      6  C   LIG    1       -0.534   3.832   2.092  0.00  0.00    +0.000 A 
ATOM      7  C   LIG    1        0.518   3.729   1.182  0.00  0.00    +0.005 A 
ENDBRANCH   1   2
BRANCH   1   8
ATOM      8  C   LIG    1        1.819   3.465  -1.710  0.00  0.00    -0.030 A 
ATOM      9  C   LIG    1        2.797   3.601  -2.715  0.00  0.00    +0.005 A 
ATOM     10  C   LIG    1        2.616   4.490  -3.790  0.00  0.00    +0.000 A 
ATOM     11  C   LIG    1        1.464   5.266  -3.886  0.00  0.00    +0.000 A 
ATOM     12  C   LIG    1        0.474   5.133  -2.926  0.00  0.00    +0.000 A 
ATOM     13  C   LIG    1        0.643   4.231  -1.874  0.00  0.00    +0.005 A 
ENDBRANCH   1   8
BRANCH   1  14
ATOM     14  C   LIG    1        2.043   0.967  -1.126  0.00  0.00    +0.148 C 
ATOM     15  O   LIG    1        2.616   0.041  -0.505  0.00  0.00    -0.296 OA
BRANCH  14  17
ATOM     16  C   LIG    1        0.786  -0.757  -2.557  0.00  0.00    +0.012 C 
ATOM     17  C   LIG    1        1.370   0.649  -2.459  0.00  0.00    +0.072 C 
ENDBRANCH  14  17
ENDBRANCH   1  14
BRANCH   1  18
ATOM     18  C   LIG    1        3.345   2.600   0.263  0.00  0.00    +0.042 C 
BRANCH  18  19
ATOM     19  C   LIG    1        3.825   3.860   1.056  0.00  0.00    +0.054 C 
ATOM     20  C   LIG    1        3.864   5.176   0.263  0.00  0.00    +0.024 C 
BRANCH  19  21
ATOM     21  N   LIG    1        5.159   3.663   1.718  0.00  0.00    -0.306 NA
ATOM     22  C   LIG    1        6.294   3.628   0.794  0.00  0.00    +0.105 C 
ATOM     23  C   LIG    1        5.207   2.498   2.606  0.00  0.00    +0.105 C 
ENDBRANCH  19  21
ENDBRANCH  18  19
ENDBRANCH   1  18
TORSDOF 7
