REMARK  Name = *****
REMARK                            x       y       z     vdW  Elec       q    Type
REMARK                         _______ _______ _______ _____ _____    ______ ____
ROOT
ATOM      1  C   LIG    1       19.182  14.144   2.727  0.00  0.00    +0.168 A 
ATOM      2  N   LIG    1       18.570  13.579   1.700  0.00  0.00    -0.208 NA
ATOM      3  C   LIG    1       17.686  14.338   1.056  0.00  0.00    +0.168 A 
ATOM      4  N   LIG    1       17.358  15.581   1.415  0.00  0.00    -0.208 NA
ATOM      5  C   LIG    1       18.017  16.048   2.467  0.00  0.00    +0.164 A 
ATOM      6  N   LIG    1       18.934  15.383   3.160  0.00  0.00    -0.208 NA
ENDROOT
BRANCH   5   7
ATOM      7  C   LIG    1       17.736  17.431   2.879  0.00  0.00    +0.019 A 
ATOM      8  C   LIG    1       18.383  18.025   3.979  0.00  0.00    +0.015 A 
ATOM      9  C   LIG    1       18.114  19.349   4.346  0.00  0.00    +0.046 A 
ATOM     10  C   LIG    1       17.209  20.107   3.612  0.00  0.00    +0.120 A 
ATOM     11  C   LIG    1       16.542  19.536   2.530  0.00  0.00    +0.046 A 
ATOM     12  C   LIG    1       16.811  18.210   2.171  0.00  0.00    +0.015 A 
BRANCH  10  13
ATOM     13  O   LIG    1       17.016  21.390   4.050  0.00  0.00    -0.495 OA
ATOM     14  C   LIG    1       16.607  22.309   3.043  0.00  0.00    +0.277 C 
ENDBRANCH  10  13
ENDBRANCH   5   7
BRANCH   1  18
ATOM     15  C   LIG    1       22.006  11.863   5.064  0.00  0.00    +0.124 A 
ATOM     16  C   LIG    1       21.421  11.298   3.929  0.00  0.00    +0.091 A 
ATOM     17  C   LIG    1       20.530  12.034   3.135  0.00  0.00    +0.131 A 
ATOM     18  C   LIG    1       20.184  13.359   3.464  0.00  0.00    +0.061 A 
ATOM     19  C   LIG    1       20.831  13.921   4.583  0.00  0.00    +0.019 A 
ATOM     20  C   LIG    1       21.731  13.196   5.364  0.00  0.00    +0.046 A 
BRANCH  17  21
ATOM     21  O   LIG    1       20.009  11.369   2.055  0.00  0.00    -0.506 OA
ATOM     22  H   LIG    1       19.375  11.967   1.594  0.00  0.00    +0.292 HD
ENDBRANCH  17  21
BRANCH  15  23
ATOM     23  O   LIG    1       22.755  11.020   5.845  0.00  0.00    -0.492 OA
BRANCH  23  24
ATOM     24  C   LIG    1       23.768  11.638   6.644  0.00  0.00    +0.232 C 
BRANCH  24  25
ATOM     25  C   LIG    1       24.518  10.604   7.520  0.00  0.00    +0.026 C 
BRANCH  25  26
ATOM     26  C   LIG    1       25.287   9.630   6.596  0.00  0.00    +0.003 C 
ATOM     27  C   LIG    1       26.288   8.725   7.304  0.00  0.00    +0.004 C 
ENDBRANCH  25  26
BRANCH  25  28
ATOM     28  C   LIG    1       23.613   9.854   8.529  0.00  0.00    +0.007 C 
BRANCH  28  29
ATOM     29  C   LIG    1       22.801  10.725   9.507  0.00  0.00    +0.000 C 
BRANCH  29  31
ATOM     30  C   LIG    1       22.820  12.423  11.390  0.00  0.00    +0.004 C 
ATOM     31  C   LIG    1       23.662  11.601  10.422  0.00  0.00    -0.003 C 
ENDBRANCH  29  31
ENDBRANCH  28  29
ENDBRANCH  25  28
ENDBRANCH  24  25
ENDBRANCH  23  24
ENDBRANCH  15  23
ENDBRANCH   1  18
BRANCH   3  32
ATOM     32  C   LIG    1       17.027  13.787  -0.130  0.00  0.00    +0.061 A 
ATOM     33  C   LIG    1       17.671  12.855  -0.955  0.00  0.00    +0.131 A 
ATOM     34  C   LIG    1       17.039  12.326  -2.074  0.00  0.00    +0.091 A 
ATOM     35  C   LIG    1       15.731  12.660  -2.398  0.00  0.00    +0.124 A 
ATOM     36  C   LIG    1       15.075  13.618  -1.617  0.00  0.00    +0.046 A 
ATOM     37  C   LIG    1       15.728  14.169  -0.499  0.00  0.00    +0.019 A 
BRANCH  33  38
ATOM     38  O   LIG    1       18.946  12.437  -0.689  0.00  0.00    -0.506 OA
ATOM     39  H   LIG    1       19.241  11.816  -1.378  0.00  0.00    +0.292 HD
ENDBRANCH  33  38
BRANCH  35  40
ATOM     40  O   LIG    1       15.018  12.087  -3.421  0.00  0.00    -0.492 OA
BRANCH  40  41
ATOM     41  C   LIG    1       15.726  11.125  -4.218  0.00  0.00    +0.232 C 
BRANCH  41  42
ATOM     42  C   LIG    1       14.800  10.052  -4.809  0.00  0.00    +0.026 C 
BRANCH  42  43
ATOM     43  C   LIG    1       13.837  10.726  -5.798  0.00  0.00    +0.003 C 
ATOM     44  C   LIG    1       12.942   9.776  -6.580  0.00  0.00    +0.004 C 
ENDBRANCH  42  43
BRANCH  42  45
ATOM     45  C   LIG    1       14.079   9.249  -3.692  0.00  0.00    +0.007 C 
BRANCH  45  46
ATOM     46  C   LIG    1       15.041   8.558  -2.706  0.00  0.00    +0.000 C 
BRANCH  46  47
ATOM     47  C   LIG    1       14.314   7.782  -1.607  0.00  0.00    -0.003 C 
ATOM     48  C   LIG    1       15.304   7.138  -0.642  0.00  0.00    +0.004 C 
ENDBRANCH  46  47
ENDBRANCH  45  46
ENDBRANCH  42  45
ENDBRANCH  41  42
ENDBRANCH  40  41
ENDBRANCH  35  40
ENDBRANCH   3  32
TORSDOF 20
