REMARK  Name = *****
REMARK                            x       y       z     vdW  Elec       q    Type
REMARK                         _______ _______ _______ _____ _____    ______ ____
ROOT
ATOM      1  C   LIG    1        4.774  -1.240  -1.387  0.00  0.00    +0.099 A 
ATOM      2  C   LIG    1        4.220  -2.398  -0.809  0.00  0.00    +0.137 A 
ATOM      3  N   LIG    1        4.840  -3.583  -0.957  0.00  0.00    -0.239 NA
ATOM      4  C   LIG    1        5.971  -3.685  -1.688  0.00  0.00    +0.113 A 
ATOM      5  C   LIG    1        6.573  -2.609  -2.289  0.00  0.00    +0.021 A 
ATOM      6  C   LIG    1        5.978  -1.367  -2.126  0.00  0.00    +0.020 A 
ENDROOT
BRANCH   1   8
ATOM      7  O   LIG    1        3.260   0.300  -0.422  0.00  0.00    -0.245 OA
ATOM      8  C   LIG    1        4.133   0.076  -1.232  0.00  0.00    +0.343 C 
BRANCH   8   9
ATOM      9  O   LIG    1        4.663   0.959  -2.105  0.00  0.00    -0.460 OA
BRANCH   9  10
ATOM     10  C   LIG    1        4.190   2.306  -2.029  0.00  0.00    +0.247 C 
BRANCH  10  11
ATOM     11  C   LIG    1        2.915   2.466  -2.870  0.00  0.00    +0.125 C 
BRANCH  11  12
ATOM     12  N   LIG    1        2.373   3.833  -2.862  0.00  0.00    -0.295 NA
ATOM     13  C   LIG    1        1.254   3.976  -3.822  0.00  0.00    +0.112 C 
ATOM     14  C   LIG    1       -0.078   3.366  -3.349  0.00  0.00    +0.175 C 
ATOM     15  O   LIG    1       -0.466   3.875  -2.070  0.00  0.00    -0.377 OA
ATOM     16  C   LIG    1        0.558   3.648  -1.097  0.00  0.00    +0.175 C 
ATOM     17  C   LIG    1        1.893   4.271  -1.533  0.00  0.00    +0.112 C 
ENDBRANCH  11  12
ENDBRANCH  10  11
ENDBRANCH   9  10
ENDBRANCH   8   9
ENDBRANCH   1   8
BRANCH   2  18
ATOM     18  N   LIG    1        2.948  -2.356  -0.172  0.00  0.00    -0.299 N 
ATOM     19  H   LIG    1        2.748  -1.448   0.243  0.00  0.00    +0.154 HD
BRANCH  18  20
ATOM     20  C   LIG    1        2.144  -3.410   0.321  0.00  0.00    +0.033 A 
ATOM     21  C   LIG    1        0.879  -3.129   0.869  0.00  0.00    +0.035 A 
ATOM     22  C   LIG    1        0.011  -4.164   1.290  0.00  0.00    +0.057 A 
ATOM     23  C   LIG    1        0.415  -5.498   1.148  0.00  0.00    +0.012 A 
ATOM     24  C   LIG    1        1.646  -5.794   0.590  0.00  0.00    +0.002 A 
ATOM     25  C   LIG    1        2.483  -4.761   0.175  0.00  0.00    +0.023 A 
BRANCH  22  26
ATOM     26  C   LIG    1       -1.343  -3.853   1.876  0.00  0.00    +0.417 C 
ATOM     27  F   LIG    1       -2.143  -3.164   1.018  0.00  0.00    -0.166 F 
ATOM     28  F   LIG    1       -1.264  -3.099   3.007  0.00  0.00    -0.166 F 
ATOM     29  F   LIG    1       -2.049  -4.967   2.225  0.00  0.00    -0.166 F 
ENDBRANCH  22  26
ENDBRANCH  18  20
ENDBRANCH   2  18
TORSDOF 8
