REMARK  Name = *****
REMARK                            x       y       z     vdW  Elec       q    Type
REMARK                         _______ _______ _______ _____ _____    ______ ____
ROOT
ATOM      1  C   LIG    1        6.979   0.215  -4.150  0.00  0.00    +0.213 C 
ENDROOT
BRANCH   1   2
ATOM      2  C   LIG    1        8.209  -0.706  -4.076  0.00  0.00    -0.001 A 
ATOM      3  C   LIG    1        9.341  -0.336  -3.325  0.00  0.00    +0.007 A 
ATOM      4  C   LIG    1       10.456  -1.176  -3.237  0.00  0.00    +0.000 A 
ATOM      5  C   LIG    1       10.466  -2.397  -3.907  0.00  0.00    +0.000 A 
ATOM      6  C   LIG    1        9.365  -2.777  -4.668  0.00  0.00    +0.000 A 
ATOM      7  C   LIG    1        8.248  -1.940  -4.752  0.00  0.00    +0.007 A 
ENDBRANCH   1   2
BRANCH   1   8
ATOM      8  C   LIG    1        7.267   1.502  -4.949  0.00  0.00    -0.001 A 
ATOM      9  C   LIG    1        7.224   1.471  -6.360  0.00  0.00    +0.007 A 
ATOM     10  C   LIG    1        7.484   2.614  -7.122  0.00  0.00    +0.000 A 
ATOM     11  C   LIG    1        7.808   3.812  -6.496  0.00  0.00    +0.000 A 
ATOM     12  C   LIG    1        7.883   3.864  -5.110  0.00  0.00    +0.000 A 
ATOM     13  C   LIG    1        7.628   2.721  -4.348  0.00  0.00    +0.007 A 
ENDBRANCH   1   8
BRANCH   1  14
ATOM     14  C   LIG    1        6.426   0.452  -2.696  0.00  0.00    +0.349 C 
ATOM     15  O   LIG    1        6.730   1.352  -1.929  0.00  0.00    -0.247 OA
BRANCH  14  16
ATOM     16  O   LIG    1        5.567  -0.556  -2.316  0.00  0.00    -0.453 OA
BRANCH  16  20
ATOM     17  C   LIG    1        2.953  -3.526   0.058  0.00  0.00    +0.192 C 
ATOM     18  N   LIG    1        4.153  -2.596   0.034  0.00  0.00    +0.244 N 
ATOM     19  C   LIG    1        3.835  -1.348  -0.823  0.00  0.00    +0.178 C 
ATOM     20  C   LIG    1        5.103  -0.478  -0.956  0.00  0.00    +0.225 C 
ATOM     21  C   LIG    1        6.194  -1.016  -0.005  0.00  0.00    +0.045 C 
ATOM     22  C   LIG    1        5.608  -1.101   1.408  0.00  0.00    +0.058 C 
ATOM     23  C   LIG    1        6.598  -2.434  -0.441  0.00  0.00    +0.058 C 
ATOM     24  C   LIG    1        4.497  -2.151   1.464  0.00  0.00    +0.133 C 
ATOM     25  C   LIG    1        5.361  -3.321  -0.585  0.00  0.00    +0.133 C 
ENDBRANCH  16  20
ENDBRANCH  14  16
ENDBRANCH   1  14
BRANCH   1  26
ATOM     26  O   LIG    1        5.906  -0.480  -4.841  0.00  0.00    -0.370 OA
ATOM     27  H   LIG    1        5.277   0.203  -5.132  0.00  0.00    +0.212 HD
ENDBRANCH   1  26
TORSDOF 6
