REMARK  Name = *****
REMARK                            x       y       z     vdW  Elec       q    Type
REMARK                         _______ _______ _______ _____ _____    ______ ____
ROOT
ATOM      1  C   LIG    1       12.055   2.721  -2.177  0.00  0.00    +0.027 C 
ENDROOT
BRANCH   1   3
ATOM      2  C   LIG    1       11.540   4.547   0.004  0.00  0.00    -0.031 C 
ATOM      3  C   LIG    1       11.775   3.645  -0.978  0.00  0.00    -0.031 C 
BRANCH   2   4
ATOM      4  C   LIG    1       11.249   4.380   1.505  0.00  0.00    +0.027 C 
BRANCH   4   5
ATOM      5  C   LIG    1       12.428   4.373   2.517  0.00  0.00    +0.004 C 
BRANCH   5   6
ATOM      6  C   LIG    1       12.038   4.262   4.027  0.00  0.00    +0.000 C 
BRANCH   6   7
ATOM      7  C   LIG    1       11.280   2.987   4.434  0.00  0.00    +0.000 C 
BRANCH   7   8
ATOM      8  C   LIG    1       10.911   2.878   5.933  0.00  0.00    -0.000 C 
BRANCH   8   9
ATOM      9  C   LIG    1       10.022   3.996   6.494  0.00  0.00    -0.000 C 
BRANCH   9  11
ATOM     10  C   LIG    1        7.820   5.227   6.314  0.00  0.00    +0.004 C 
ATOM     11  C   LIG    1        8.681   4.102   5.766  0.00  0.00    -0.003 C 
ENDBRANCH   9  11
ENDBRANCH   8   9
ENDBRANCH   7   8
ENDBRANCH   6   7
ENDBRANCH   5   6
ENDBRANCH   4   5
ENDBRANCH   2   4
ENDBRANCH   1   3
BRANCH   1  12
ATOM     12  C   LIG    1       11.484   1.274  -2.245  0.00  0.00    +0.004 C 
BRANCH  12  13
ATOM     13  C   LIG    1       11.861   0.475  -3.547  0.00  0.00    +0.000 C 
BRANCH  13  14
ATOM     14  C   LIG    1       11.286  -0.979  -3.614  0.00  0.00    +0.000 C 
BRANCH  14  15
ATOM     15  C   LIG    1       11.749  -1.810  -2.408  0.00  0.00    +0.000 C 
BRANCH  15  16
ATOM     16  C   LIG    1       11.306  -3.273  -2.280  0.00  0.00    +0.011 C 
BRANCH  16  17
ATOM     17  C   LIG    1        9.803  -3.495  -2.277  0.00  0.00    +0.120 C 
BRANCH  17  18
ATOM     18  C   LIG    1        9.046  -2.928  -1.113  0.00  0.00    +0.305 C 
ATOM     19  O   LIG    1        9.473  -2.365  -0.121  0.00  0.00    -0.251 OA
BRANCH  18  20
ATOM     20  O   LIG    1        7.721  -3.091  -1.317  0.00  0.00    -0.481 OA
ATOM     21  H   LIG    1        7.290  -2.580  -0.604  0.00  0.00    +0.295 HD
ENDBRANCH  18  20
ENDBRANCH  17  18
ENDBRANCH  16  17
ENDBRANCH  15  16
ENDBRANCH  14  15
ENDBRANCH  13  14
ENDBRANCH  12  13
ENDBRANCH   1  12
TORSDOF 16
