REMARK  Name = *****
REMARK                            x       y       z     vdW  Elec       q    Type
REMARK                         _______ _______ _______ _____ _____    ______ ____
ROOT
ATOM      1  C   LIG    1        4.403   2.799   2.137  0.00  0.00    -0.000 C 
ATOM      2  C   LIG    1        4.734   3.119   3.402  0.00  0.00    -0.066 C 
ATOM      3  C   LIG    1        4.017   2.613   4.660  0.00  0.00    +0.021 C 
ATOM      4  C   LIG    1        2.723   1.806   4.515  0.00  0.00    +0.009 C 
ATOM      5  C   LIG    1        1.972   2.052   5.817  0.00  0.00    +0.005 C 
ATOM      6  C   LIG    1        2.209   3.538   6.141  0.00  0.00    +0.002 C 
ATOM      7  C   LIG    1        3.704   3.756   5.699  0.00  0.00    -0.022 C 
ATOM      8  C   LIG    1        4.608   3.518   6.946  0.00  0.00    +0.012 C 
ATOM      9  C   LIG    1        4.039   5.157   5.151  0.00  0.00    +0.008 C 
ATOM     10  C   LIG    1        5.436   5.267   4.533  0.00  0.00    +0.005 C 
ATOM     11  C   LIG    1        5.898   4.017   3.787  0.00  0.00    +0.031 C 
ENDROOT
BRANCH   1  19
ATOM     12  C   LIG    1        2.437   2.605  -0.715  0.00  0.00    +0.015 C 
ATOM     13  C   LIG    1        3.689   2.117  -0.790  0.00  0.00    -0.023 C 
ATOM     14  C   LIG    1        4.100   0.828  -1.461  0.00  0.00    +0.147 C 
ATOM     15  C   LIG    1        4.996   1.133  -2.666  0.00  0.00    +0.067 C 
ATOM     16  C   LIG    1        6.158   2.071  -2.310  0.00  0.00    +0.122 C 
ATOM     17  C   LIG    1        5.717   3.299  -1.491  0.00  0.00    +0.067 C 
ATOM     18  C   LIG    1        4.818   2.909  -0.328  0.00  0.00    -0.040 C 
ATOM     19  C   LIG    1        5.110   3.223   0.945  0.00  0.00    +0.004 C 
BRANCH  14  20
ATOM     20  O   LIG    1        2.971   0.080  -1.899  0.00  0.00    -0.387 OA
ATOM     21  H   LIG    1        2.456  -0.128  -1.101  0.00  0.00    +0.210 HD
ENDBRANCH  14  20
BRANCH  16  22
ATOM     22  O   LIG    1        7.171   1.344  -1.609  0.00  0.00    -0.391 OA
ATOM     23  H   LIG    1        6.889   1.238  -0.684  0.00  0.00    +0.210 HD
ENDBRANCH  16  22
ENDBRANCH   1  19
BRANCH   6  24
ATOM     24  C   LIG    1        1.048   4.444   5.598  0.00  0.00    +0.012 C 
ATOM     25  C   LIG    1        0.786   4.361   4.087  0.00  0.00    +0.012 C 
BRANCH  24  26
ATOM     26  C   LIG    1        1.112   5.861   6.147  0.00  0.00    -0.025 C 
ATOM     27  C   LIG    1        1.000   7.003   5.444  0.00  0.00    +0.000 C 
BRANCH  27  28
ATOM     28  C   LIG    1        1.055   8.389   6.026  0.00  0.00    +0.140 C 
BRANCH  28  29
ATOM     29  C   LIG    1        0.902   9.481   4.993  0.00  0.00    +0.022 C 
ATOM     30  C   LIG    1        1.830  10.674   4.923  0.00  0.00    +0.007 C 
ATOM     31  C   LIG    1        1.887   9.621   3.852  0.00  0.00    +0.007 C 
ENDBRANCH  28  29
BRANCH  28  32
ATOM     32  O   LIG    1        2.294   8.529   6.712  0.00  0.00    -0.388 OA
ATOM     33  H   LIG    1        2.984   8.401   6.041  0.00  0.00    +0.210 HD
ENDBRANCH  28  32
ENDBRANCH  27  28
ENDBRANCH  24  26
ENDBRANCH   6  24
TORSDOF 8
