REMARK  Name = *****
REMARK                            x       y       z     vdW  Elec       q    Type
REMARK                         _______ _______ _______ _____ _____    ______ ____
ROOT
ATOM      1  O   LIG    1        1.476  -0.304   1.776  0.00  0.00    -0.265 OA
ATOM      2  C   LIG    1        2.586  -0.334   1.258  0.00  0.00    +0.289 C 
ATOM      3  C   LIG    1        2.789  -0.318  -0.200  0.00  0.00    +0.204 C 
ATOM      4  F   LIG    1        1.698  -0.242  -0.984  0.00  0.00    -0.198 F 
ATOM      5  C   LIG    1        4.024  -0.371  -0.696  0.00  0.00    +0.137 C 
ATOM      6  N   LIG    1        5.145  -0.453   0.118  0.00  0.00    -0.271 N 
ATOM      7  C   LIG    1        5.026  -0.427   1.506  0.00  0.00    +0.332 C 
ATOM      8  O   LIG    1        5.959  -0.457   2.303  0.00  0.00    -0.246 OA
ATOM      9  N   LIG    1        3.740  -0.385   1.993  0.00  0.00    -0.273 N 
ATOM     10  H   LIG    1        3.644  -0.376   2.997  0.00  0.00    +0.173 HD
ENDROOT
BRANCH   6  11
ATOM     11  C   LIG    1        6.462  -0.423  -0.520  0.00  0.00    +0.223 C 
ATOM     12  O   LIG    1        6.979   0.911  -0.440  0.00  0.00    -0.356 OA
ATOM     13  C   LIG    1        8.369   0.825  -0.112  0.00  0.00    +0.162 C 
ATOM     14  C   LIG    1        8.556  -0.470   0.643  0.00  0.00    +0.033 C 
ATOM     15  C   LIG    1        7.525  -1.379   0.016  0.00  0.00    +0.057 C 
ENDBRANCH   6  11
TORSDOF 1
