REMARK  Name = *****
REMARK                            x       y       z     vdW  Elec       q    Type
REMARK                         _______ _______ _______ _____ _____    ______ ____
ROOT
ATOM      1  C   LIG    1        6.406  -0.556   0.028  0.00  0.00    +0.005 C 
ATOM      2  C   LIG    1        7.358   0.178  -0.596  0.00  0.00    -0.001 C 
ENDROOT
BRANCH   1   7
ATOM      3  C   LIG    1        1.821   2.516   1.847  0.00  0.00    +0.044 C 
ATOM      4  C   LIG    1        2.984   1.681   1.395  0.00  0.00    -0.050 A 
ATOM      5  C   LIG    1        2.996   1.104   0.120  0.00  0.00    +0.004 A 
ATOM      6  C   LIG    1        4.105   0.370  -0.317  0.00  0.00    +0.009 A 
ATOM      7  C   LIG    1        5.224   0.203   0.512  0.00  0.00    -0.016 A 
ATOM      8  C   LIG    1        5.215   0.785   1.784  0.00  0.00    +0.009 A 
ATOM      9  C   LIG    1        4.105   1.521   2.219  0.00  0.00    +0.004 A 
ENDBRANCH   1   7
BRANCH   1  10
ATOM     10  C   LIG    1        6.495  -2.031   0.151  0.00  0.00    +0.072 A 
ATOM     11  N   LIG    1        7.097  -2.521   1.270  0.00  0.00    -0.247 NA
ATOM     12  C   LIG    1        7.105  -3.864   1.451  0.00  0.00    +0.065 A 
ATOM     13  C   LIG    1        6.562  -4.747   0.524  0.00  0.00    +0.028 A 
ATOM     14  C   LIG    1        5.985  -4.233  -0.632  0.00  0.00    +0.004 A 
ATOM     15  C   LIG    1        5.944  -2.856  -0.822  0.00  0.00    +0.028 A 
BRANCH  12  16
ATOM     16  C   LIG    1        7.734  -4.387   2.672  0.00  0.00    +0.035 C 
ATOM     17  C   LIG    1        8.297  -3.756   3.716  0.00  0.00    +0.093 C 
BRANCH  17  18
ATOM     18  C   LIG    1        8.512  -2.333   4.051  0.00  0.00    +0.330 C 
ATOM     19  O   LIG    1        8.741  -1.997   5.198  0.00  0.00    -0.246 OA
BRANCH  18  20
ATOM     20  O   LIG    1        8.562  -1.476   3.022  0.00  0.00    -0.477 OA
ATOM     21  H   LIG    1        8.183  -1.857   2.197  0.00  0.00    +0.295 HD
ENDBRANCH  18  20
ENDBRANCH  17  18
ENDBRANCH  12  16
ENDBRANCH   1  10
BRANCH   2  22
ATOM     22  C   LIG    1        8.625  -0.295  -1.261  0.00  0.00    +0.112 C 
BRANCH  22  23
ATOM     23  N   LIG    1        8.698   0.118  -2.670  0.00  0.00    -0.299 NA
ATOM     24  C   LIG    1        9.935  -0.335  -3.317  0.00  0.00    +0.085 C 
ATOM     25  C   LIG    1        9.639  -0.096  -4.788  0.00  0.00    +0.017 C 
ATOM     26  C   LIG    1        8.157  -0.410  -4.923  0.00  0.00    +0.017 C 
ATOM     27  C   LIG    1        7.617  -0.427  -3.496  0.00  0.00    +0.085 C 
ENDBRANCH  22  23
ENDBRANCH   2  22
TORSDOF 7
