REMARK  Name = *****
REMARK                            x       y       z     vdW  Elec       q    Type
REMARK                         _______ _______ _______ _____ _____    ______ ____
ROOT
ATOM      1  N   LIG    1       10.387  -7.936   3.315  0.00  0.00    -0.298 NA
ATOM      2  C   LIG    1       10.696  -7.647   1.901  0.00  0.00    +0.100 C 
ATOM      3  C   LIG    1        9.493  -7.117   1.087  0.00  0.00    +0.100 C 
ATOM      4  N   LIG    1        8.818  -5.922   1.645  0.00  0.00    -0.289 NA
ATOM      5  C   LIG    1        8.619  -6.110   3.106  0.00  0.00    +0.100 C 
ATOM      6  C   LIG    1        9.818  -6.699   3.896  0.00  0.00    +0.100 C 
ENDROOT
BRANCH   1   7
ATOM      7  C   LIG    1        9.450  -9.066   3.496  0.00  0.00    +0.112 C 
BRANCH   7   8
ATOM      8  C   LIG    1        9.923 -10.420   2.943  0.00  0.00    +0.176 C 
BRANCH   8   9
ATOM      9  O   LIG    1        8.906 -11.406   3.197  0.00  0.00    -0.367 OA
BRANCH   9  10
ATOM     10  C   LIG    1        9.305 -12.686   2.681  0.00  0.00    +0.279 C 
BRANCH  10  12
ATOM     11  O   LIG    1        8.281 -14.892   2.630  0.00  0.00    -0.248 OA
ATOM     12  C   LIG    1        8.215 -13.710   2.952  0.00  0.00    +0.331 C 
BRANCH  12  13
ATOM     13  O   LIG    1        7.145 -13.177   3.590  0.00  0.00    -0.479 OA
ATOM     14  H   LIG    1        7.325 -12.222   3.738  0.00  0.00    +0.295 HD
ENDBRANCH  12  13
ENDBRANCH  10  12
ENDBRANCH   9  10
ENDBRANCH   8   9
ENDBRANCH   7   8
ENDBRANCH   1   7
BRANCH   4  15
ATOM     15  C   LIG    1        9.501  -4.637   1.314  0.00  0.00    +0.117 C 
BRANCH  15  16
ATOM     16  C   LIG    1        9.735  -4.466  -0.200  0.00  0.00    -0.026 A 
ATOM     17  C   LIG    1        8.659  -4.353  -1.102  0.00  0.00    +0.007 A 
ATOM     18  C   LIG    1        8.877  -4.226  -2.474  0.00  0.00    +0.020 A 
ATOM     19  C   LIG    1       10.178  -4.218  -2.965  0.00  0.00    +0.041 A 
ATOM     20 CL   LIG    1       10.448  -4.093  -4.660  0.00  0.00    -0.084 Cl
ATOM     21  C   LIG    1       11.260  -4.322  -2.094  0.00  0.00    +0.020 A 
ATOM     22  C   LIG    1       11.042  -4.442  -0.717  0.00  0.00    +0.007 A 
ENDBRANCH  15  16
BRANCH  15  23
ATOM     23  C   LIG    1        8.747  -3.402   1.841  0.00  0.00    -0.026 A 
ATOM     24  C   LIG    1        9.461  -2.300   2.335  0.00  0.00    +0.005 A 
ATOM     25  C   LIG    1        8.787  -1.163   2.790  0.00  0.00    +0.000 A 
ATOM     26  C   LIG    1        7.394  -1.109   2.750  0.00  0.00    +0.000 A 
ATOM     27  C   LIG    1        6.670  -2.187   2.251  0.00  0.00    +0.000 A 
ATOM     28  C   LIG    1        7.340  -3.322   1.798  0.00  0.00    +0.005 A 
ENDBRANCH  15  23
ENDBRANCH   4  15
TORSDOF 9
