REMARK  Name = *****
REMARK                            x       y       z     vdW  Elec       q    Type
REMARK                         _______ _______ _______ _____ _____    ______ ____
ROOT
ATOM      1  N   LIG    1        2.905   1.302   0.800  0.00  0.00    -0.225 N 
ATOM      2  C   LIG    1        2.170   2.345   0.298  0.00  0.00    +0.248 C 
ATOM      3  O   LIG    1        0.950   2.388   0.204  0.00  0.00    -0.273 OA
ATOM      4  C   LIG    1        3.139   3.449  -0.138  0.00  0.00    +0.191 C 
ATOM      5  N   LIG    1        4.391   2.867   0.268  0.00  0.00    -0.284 N 
ATOM      6  H   LIG    1        5.305   3.265   0.100  0.00  0.00    +0.151 HD
ATOM      7  C   LIG    1        4.235   1.589   0.749  0.00  0.00    +0.309 C 
ATOM      8  O   LIG    1        5.166   0.861   1.051  0.00  0.00    -0.252 OA
ENDROOT
BRANCH   4   9
ATOM      9  C   LIG    1        3.078   3.748  -1.617  0.00  0.00    -0.018 A 
ATOM     10  C   LIG    1        2.307   4.828  -2.074  0.00  0.00    +0.006 A 
ATOM     11  C   LIG    1        2.221   5.116  -3.438  0.00  0.00    +0.000 A 
ATOM     12  C   LIG    1        2.897   4.325  -4.364  0.00  0.00    +0.000 A 
ATOM     13  C   LIG    1        3.653   3.240  -3.929  0.00  0.00    +0.000 A 
ATOM     14  C   LIG    1        3.739   2.950  -2.566  0.00  0.00    +0.006 A 
ENDBRANCH   4   9
BRANCH   1  16
ATOM     15  C   LIG    1        2.203  -0.946   0.095  0.00  0.00    +0.025 C 
ATOM     16  C   LIG    1        2.349   0.041   1.243  0.00  0.00    +0.114 C 
ENDBRANCH   1  16
TORSDOF 2
