REMARK  Name = *****
REMARK                            x       y       z     vdW  Elec       q    Type
REMARK                         _______ _______ _______ _____ _____    ______ ____
ROOT
ATOM      1  N   LIG    1        2.190  -4.806  -7.440  0.00  0.00    -0.297 NA
ATOM      2  C   LIG    1        3.021  -3.689  -6.953  0.00  0.00    +0.100 C 
ATOM      3  C   LIG    1        2.613  -3.179  -5.536  0.00  0.00    +0.100 C 
ATOM      4  N   LIG    1        1.841  -4.163  -4.723  0.00  0.00    -0.299 NA
ATOM      5  C   LIG    1        0.605  -4.415  -5.503  0.00  0.00    +0.100 C 
ATOM      6  C   LIG    1        0.787  -4.595  -7.048  0.00  0.00    +0.100 C 
ENDROOT
BRANCH   1   7
ATOM      7  C   LIG    1        2.378  -5.181  -8.850  0.00  0.00    +0.120 C 
BRANCH   7   8
ATOM      8  C   LIG    1        3.840  -5.415  -9.414  0.00  0.00    +0.162 C 
BRANCH   8   9
ATOM      9  C   LIG    1        4.618  -6.567  -8.757  0.00  0.00    -0.018 A 
ATOM     10  C   LIG    1        5.556  -6.360  -7.732  0.00  0.00    +0.006 A 
ATOM     11  C   LIG    1        6.230  -7.434  -7.129  0.00  0.00    +0.000 A 
ATOM     12  C   LIG    1        5.948  -8.743  -7.506  0.00  0.00    +0.000 A 
ATOM     13  C   LIG    1        5.042  -8.975  -8.536  0.00  0.00    +0.000 A 
ATOM     14  C   LIG    1        4.419  -7.896  -9.183  0.00  0.00    +0.006 A 
ENDBRANCH   8   9
BRANCH   8  15
ATOM     15  O   LIG    1        4.622  -4.196  -9.452  0.00  0.00    -0.371 OA
BRANCH  15  17
ATOM     16  C   LIG    1        4.909  -1.941 -10.294  0.00  0.00    +0.034 C 
ATOM     17  C   LIG    1        4.029  -3.173 -10.256  0.00  0.00    +0.157 C 
ENDBRANCH  15  17
ENDBRANCH   8  15
ENDBRANCH   7   8
ENDBRANCH   1   7
BRANCH   4  18
ATOM     18  C   LIG    1        2.654  -5.395  -4.516  0.00  0.00    +0.095 C 
BRANCH  18  19
ATOM     19  C   LIG    1        1.995  -6.562  -3.739  0.00  0.00    +0.071 C 
ATOM     20  C   LIG    1        1.639  -6.282  -2.287  0.00  0.00    +0.017 C 
BRANCH  19  21
ATOM     21  C   LIG    1        3.023  -7.750  -3.715  0.00  0.00    +0.167 C 
ATOM     22  O   LIG    1        4.219  -7.590  -3.601  0.00  0.00    -0.292 OA
BRANCH  21  23
ATOM     23  C   LIG    1        2.485  -9.145  -3.722  0.00  0.00    +0.018 A 
ATOM     24  C   LIG    1        3.221 -10.155  -3.086  0.00  0.00    +0.011 A 
ATOM     25  C   LIG    1        2.752 -11.466  -3.056  0.00  0.00    +0.001 A 
ATOM     26  C   LIG    1        1.546 -11.793  -3.677  0.00  0.00    +0.000 A 
ATOM     27  C   LIG    1        0.809 -10.801  -4.320  0.00  0.00    +0.001 A 
ATOM     28  C   LIG    1        1.266  -9.486  -4.348  0.00  0.00    +0.011 A 
ENDBRANCH  21  23
ENDBRANCH  19  21
ENDBRANCH  18  19
ENDBRANCH   4  18
TORSDOF 9
