REMARK  Name = *****
REMARK                            x       y       z     vdW  Elec       q    Type
REMARK                         _______ _______ _______ _____ _____    ______ ____
ROOT
ATOM      1  C   LIG    1        0.889   0.131   0.078  0.00  0.00    +0.044 C 
ATOM      2  C   LIG    1        2.390   0.121   0.081  0.00  0.00    -0.050 C 
ATOM      3  C   LIG    1        3.067  -1.107   0.005  0.00  0.00    +0.013 C 
ATOM      4  C   LIG    1        4.475  -1.138   0.003  0.00  0.00    +0.004 C 
ATOM      5  C   LIG    1        5.434  -2.189  -0.068  0.00  0.00    -0.017 C 
ATOM      6  C   LIG    1        5.282  -3.663  -0.202  0.00  0.00    +0.037 C 
ATOM      7  C   LIG    1        6.617  -4.382   0.107  0.00  0.00    +0.007 C 
ATOM      8  C   LIG    1        7.833  -3.690  -0.555  0.00  0.00    +0.025 C 
ATOM      9  C   LIG    1        8.004  -2.231  -0.068  0.00  0.00    +0.101 C 
ATOM     10  N   LIG    1        8.909  -1.486  -0.941  0.00  0.00    -0.306 NA
ATOM     11  H   LIG    1        9.871  -1.771  -0.778  0.00  0.00    +0.123 HD
ATOM     12  C   LIG    1        8.772  -0.017  -0.899  0.00  0.00    +0.103 C 
ATOM     13  C   LIG    1        7.686   0.600   0.011  0.00  0.00    +0.137 C 
ATOM     14  N   LIG    1        6.513  -0.246   0.031  0.00  0.00    -0.341 NA
ATOM     15  C   LIG    1        6.668  -1.594  -0.034  0.00  0.00    +0.040 C 
ATOM     16  C   LIG    1        5.180   0.076   0.071  0.00  0.00    +0.050 C 
ATOM     17  C   LIG    1        4.521   1.311   0.150  0.00  0.00    +0.026 C 
ATOM     18  C   LIG    1        3.121   1.310   0.154  0.00  0.00    +0.005 C 
ENDROOT
TORSDOF 0
