REMARK  Name = *****
REMARK                            x       y       z     vdW  Elec       q    Type
REMARK                         _______ _______ _______ _____ _____    ______ ____
ROOT
ATOM      1  C   LIG    1       -4.224   0.832   1.142  0.00  0.00    +0.122 C 
ATOM      2  C   LIG    1       -4.456  -0.424   0.251  0.00  0.00    +0.036 C 
ATOM      3  C   LIG    1       -5.760  -1.157   0.699  0.00  0.00    +0.028 C 
ATOM      4  C   LIG    1       -6.116  -1.057   2.204  0.00  0.00    +0.058 C 
ATOM      5  N   LIG    1       -6.121   0.381   2.559  0.00  0.00    -0.296 NA
ATOM      6  C   LIG    1       -5.079  -1.643   3.161  0.00  0.00    +0.020 C 
ATOM      7  C   LIG    1       -4.072  -0.516   3.366  0.00  0.00    +0.021 C 
ATOM      8  C   LIG    1       -4.669   0.679   2.618  0.00  0.00    +0.071 C 
ENDROOT
BRANCH   2   9
ATOM      9  C   LIG    1       -3.252  -1.339  -0.021  0.00  0.00    -0.043 A 
ATOM     10  C   LIG    1       -2.245  -0.952  -0.926  0.00  0.00    +0.005 A 
ATOM     11  C   LIG    1       -1.148  -1.783  -1.207  0.00  0.00    +0.014 A 
ATOM     12  C   LIG    1       -1.045  -3.029  -0.598  0.00  0.00    +0.013 A 
ATOM     13  I   LIG    1        0.571  -4.271  -0.981  0.00  0.00    -0.044 I 
ATOM     14  C   LIG    1       -2.039  -3.451   0.271  0.00  0.00    +0.014 A 
ATOM     15  C   LIG    1       -3.128  -2.618   0.535  0.00  0.00    +0.005 A 
ENDBRANCH   2   9
BRANCH   1  16
ATOM     16  C   LIG    1       -2.844   1.469   1.039  0.00  0.00    +0.312 C 
ATOM     17  O   LIG    1       -1.980   1.439   1.881  0.00  0.00    -0.251 OA
BRANCH  16  19
ATOM     18  C   LIG    1       -1.509   2.748  -0.433  0.00  0.00    +0.280 C 
ATOM     19  O   LIG    1       -2.769   2.131  -0.161  0.00  0.00    -0.468 OA
ENDBRANCH  16  19
ENDBRANCH   1  16
BRANCH   5  20
ATOM     20  C   LIG    1       -6.856   0.625   3.815  0.00  0.00    +0.087 C 
BRANCH  20  21
ATOM     21  C   LIG    1       -6.897   2.101   4.218  0.00  0.00    +0.049 C 
BRANCH  21  22
ATOM     22  C   LIG    1       -7.675   2.280   5.511  0.00  0.00    +0.214 C 
ATOM     23  F   LIG    1       -8.949   1.842   5.339  0.00  0.00    -0.249 F 
ENDBRANCH  21  22
ENDBRANCH  20  21
ENDBRANCH   5  20
TORSDOF 6
