REMARK  Name = *****
REMARK                            x       y       z     vdW  Elec       q    Type
REMARK                         _______ _______ _______ _____ _____    ______ ____
ROOT
ATOM      1  C   LIG    1        3.297   1.546  -0.064  0.00  0.00    +0.158 C 
ATOM      2  N   LIG    1        3.793   1.844   1.249  0.00  0.00    -0.293 N 
ATOM      3  H   LIG    1        4.338   1.143   1.732  0.00  0.00    +0.151 HD
ATOM      4  C   LIG    1        4.070   3.127   1.639  0.00  0.00    +0.247 C 
ATOM      5  O   LIG    1        4.811   3.374   2.580  0.00  0.00    -0.270 OA
ATOM      6  C   LIG    1        3.386   4.190   0.878  0.00  0.00    +0.059 A 
ATOM      7  C   LIG    1        2.459   3.801  -0.095  0.00  0.00    +0.042 A 
ATOM      8  C   LIG    1        1.716   4.789  -0.745  0.00  0.00    +0.045 A 
ATOM      9  C   LIG    1        1.956   6.148  -0.492  0.00  0.00    +0.069 A 
ATOM     10  C   LIG    1        2.924   6.517   0.447  0.00  0.00    +0.124 A 
ATOM     11 CL   LIG    1        1.011   7.287  -1.383  0.00  0.00    -0.082 Cl
ATOM     12  C   LIG    1        3.634   5.535   1.148  0.00  0.00    +0.045 A 
ATOM     13  N   LIG    1        2.178   2.441  -0.342  0.00  0.00    -0.325 N 
ATOM     14  H   LIG    1        1.387   2.168   0.242  0.00  0.00    +0.148 HD
ENDROOT
BRANCH  10  15
ATOM     15  S   LIG    1        3.252   8.220   0.756  0.00  0.00    +0.057 S 
ATOM     16  O   LIG    1        2.110   8.801   1.417  0.00  0.00    -0.153 OA
ATOM     17  O   LIG    1        3.877   8.790  -0.415  0.00  0.00    -0.153 OA
BRANCH  15  18
ATOM     18  N   LIG    1        4.465   8.211   1.923  0.00  0.00    -0.203 NA
ATOM     19  H   LIG    1        4.122   8.657   2.776  0.00  0.00    +0.144 HD
ATOM     20  H   LIG    1        5.309   8.645   1.544  0.00  0.00    +0.144 HD
ENDBRANCH  15  18
ENDBRANCH  10  15
BRANCH   1  22
ATOM     21  C   LIG    1        3.889   1.240  -2.521  0.00  0.00    +0.007 C 
ATOM     22  C   LIG    1        4.391   1.636  -1.140  0.00  0.00    +0.038 C 
ENDBRANCH   1  22
TORSDOF 3
