REMARK  Name = *****
REMARK                            x       y       z     vdW  Elec       q    Type
REMARK                         _______ _______ _______ _____ _____    ______ ____
ROOT
ATOM      1  C   LIG    1        3.882  -1.207   0.967  0.00  0.00    +0.022 C 
ENDROOT
BRANCH   1   2
ATOM      2  C   LIG    1        2.336  -1.195   1.031  0.00  0.00    +0.051 C 
ATOM      3  C   LIG    1        1.822   0.069   0.328  0.00  0.00    +0.024 C 
BRANCH   2   5
ATOM      4  C   LIG    1        0.350  -2.517   0.463  0.00  0.00    +0.101 C 
ATOM      5  N   LIG    1        1.803  -2.425   0.432  0.00  0.00    -0.317 NA
ATOM      6  H   LIG    1        2.127  -2.512  -0.531  0.00  0.00    +0.122 HD
ENDBRANCH   2   5
ENDBRANCH   1   2
BRANCH   1   7
ATOM      7  C   LIG    1        4.532  -2.395   1.687  0.00  0.00    +0.029 C 
BRANCH   7   8
ATOM      8  C   LIG    1        6.041  -2.296   1.684  0.00  0.00    -0.028 C 
ATOM      9  C   LIG    1        6.914  -2.781   0.783  0.00  0.00    -0.080 C 
ATOM     10  C   LIG    1        8.398  -2.610   0.984  0.00  0.00    +0.038 C 
ATOM     11  C   LIG    1        6.553  -3.508  -0.485  0.00  0.00    +0.038 C 
ENDBRANCH   7   8
ENDBRANCH   1   7
TORSDOF 4
