REMARK  Name = *****
REMARK                            x       y       z     vdW  Elec       q    Type
REMARK                         _______ _______ _______ _____ _____    ______ ____
ROOT
ATOM      1  O   LIG    1        0.958  -0.013   0.395  0.00  0.00    -0.271 OA
ATOM      2  C   LIG    1        2.184  -0.040   0.268  0.00  0.00    +0.269 C 
ATOM      3  C   LIG    1        2.941  -1.195  -0.442  0.00  0.00    +0.320 C 
ATOM      4  N   LIG    1        3.737  -1.893   0.553  0.00  0.00    -0.243 NA
ATOM      5  C   LIG    1        4.762  -1.304   1.069  0.00  0.00    +0.078 C 
ATOM      6  C   LIG    1        5.215   0.083   0.738  0.00  0.00    +0.023 A 
ATOM      7  C   LIG    1        4.318   1.163   0.672  0.00  0.00    +0.043 A 
ATOM      8  C   LIG    1        4.823   2.468   0.588  0.00  0.00    +0.025 A 
ATOM      9  C   LIG    1        6.197   2.693   0.483  0.00  0.00    +0.022 A 
ATOM     10  C   LIG    1        7.075   1.615   0.475  0.00  0.00    +0.042 A 
ATOM     11 CL   LIG    1        8.766   1.891   0.334  0.00  0.00    -0.084 Cl
ATOM     12  C   LIG    1        6.595   0.314   0.606  0.00  0.00    +0.032 A 
ATOM     13  N   LIG    1        2.922   1.036   0.698  0.00  0.00    -0.281 N 
ATOM     14  H   LIG    1        2.350   1.839   0.927  0.00  0.00    +0.155 HD
ENDROOT
BRANCH   5  15
ATOM     15  C   LIG    1        5.536  -2.081   2.091  0.00  0.00    +0.001 A 
ATOM     16  C   LIG    1        6.033  -1.466   3.247  0.00  0.00    +0.010 A 
ATOM     17  C   LIG    1        6.748  -2.217   4.182  0.00  0.00    +0.001 A 
ATOM     18  C   LIG    1        6.957  -3.580   3.972  0.00  0.00    +0.000 A 
ATOM     19  C   LIG    1        6.445  -4.199   2.832  0.00  0.00    +0.001 A 
ATOM     20  C   LIG    1        5.731  -3.453   1.894  0.00  0.00    +0.010 A 
ENDBRANCH   5  15
BRANCH   3  21
ATOM     21  O   LIG    1        2.025  -2.059  -1.094  0.00  0.00    -0.364 OA
ATOM     22  H   LIG    1        1.486  -2.414  -0.365  0.00  0.00    +0.212 HD
ENDBRANCH   3  21
TORSDOF 2
