REMARK  Name = *****
REMARK                            x       y       z     vdW  Elec       q    Type
REMARK                         _______ _______ _______ _____ _____    ______ ____
ROOT
ATOM      1  C   LIG    1        3.212  -1.580   0.022  0.00  0.00    +0.119 A 
ATOM      2  C   LIG    1        2.480  -2.721   0.383  0.00  0.00    +0.083 A 
ATOM      3  C   LIG    1        3.053  -3.991   0.105  0.00  0.00    +0.039 A 
ATOM      4  C   LIG    1        4.297  -4.146  -0.523  0.00  0.00    +0.056 A 
ATOM      5  N   LIG    1        4.806  -5.421  -0.721  0.00  0.00    -0.326 N 
ATOM      6  H   LIG    1        4.113  -6.165  -0.723  0.00  0.00    +0.148 HD
ATOM      7  C   LIG    1        5.903  -5.647  -1.647  0.00  0.00    +0.164 C 
ATOM      8  N   LIG    1        6.997  -4.728  -1.369  0.00  0.00    -0.170 NA
ATOM      9  H   LIG    1        7.782  -4.913  -1.996  0.00  0.00    +0.150 HD
ATOM     10  S   LIG    1        6.621  -3.102  -1.465  0.00  0.00    +0.062 S 
ATOM     11  O   LIG    1        6.521  -2.760  -2.866  0.00  0.00    -0.153 OA
ATOM     12  O   LIG    1        7.531  -2.401  -0.588  0.00  0.00    -0.153 OA
ATOM     13  C   LIG    1        5.007  -2.985  -0.796  0.00  0.00    +0.128 A 
ATOM     14  C   LIG    1        4.482  -1.712  -0.553  0.00  0.00    +0.059 A 
ENDROOT
BRANCH   2  15
ATOM     15  C   LIG    1        1.129  -2.738   1.063  0.00  0.00    +0.419 C 
ATOM     16  F   LIG    1        1.187  -3.418   2.246  0.00  0.00    -0.166 F 
ATOM     17  F   LIG    1        0.203  -3.405   0.316  0.00  0.00    -0.166 F 
ATOM     18  F   LIG    1        0.561  -1.548   1.372  0.00  0.00    -0.166 F 
ENDBRANCH   2  15
BRANCH   1  19
ATOM     19  S   LIG    1        2.584   0.068   0.224  0.00  0.00    +0.057 S 
ATOM     20  O   LIG    1        3.634   1.010  -0.076  0.00  0.00    -0.153 OA
ATOM     21  O   LIG    1        1.292   0.130  -0.414  0.00  0.00    -0.153 OA
BRANCH  19  22
ATOM     22  N   LIG    1        2.366   0.173   1.879  0.00  0.00    -0.203 NA
ATOM     23  H   LIG    1        2.957   0.912   2.264  0.00  0.00    +0.144 HD
ATOM     24  H   LIG    1        1.371   0.289   2.089  0.00  0.00    +0.144 HD
ENDBRANCH  19  22
ENDBRANCH   1  19
BRANCH   7  25
ATOM     25  C   LIG    1        5.434  -5.676  -3.120  0.00  0.00    +0.075 C 
BRANCH  25  26
ATOM     26  C   LIG    1        6.534  -5.959  -4.122  0.00  0.00    -0.044 A 
ATOM     27  C   LIG    1        7.260  -7.157  -4.080  0.00  0.00    +0.003 A 
ATOM     28  C   LIG    1        8.275  -7.404  -5.006  0.00  0.00    +0.000 A 
ATOM     29  C   LIG    1        8.569  -6.464  -5.991  0.00  0.00    +0.000 A 
ATOM     30  C   LIG    1        7.850  -5.274  -6.050  0.00  0.00    +0.000 A 
ATOM     31  C   LIG    1        6.838  -5.023  -5.122  0.00  0.00    +0.003 A 
ENDBRANCH  25  26
ENDBRANCH   7  25
TORSDOF 5
