REMARK  Name = *****
REMARK                            x       y       z     vdW  Elec       q    Type
REMARK                         _______ _______ _______ _____ _____    ______ ____
ROOT
ATOM      1  C   LIG    1       -9.241   2.576   8.558  0.00  0.00    +0.078 C 
ATOM      2  C   LIG    1      -10.447   1.611   8.577  0.00  0.00    +0.142 C 
ATOM      3  O   LIG    1      -10.572   0.795   9.501  0.00  0.00    -0.297 OA
ATOM      4  C   LIG    1      -11.487   1.606   7.471  0.00  0.00    +0.106 C 
ATOM      5  C   LIG    1      -10.966   1.425   6.043  0.00  0.00    +0.128 C 
ATOM      6  C   LIG    1      -10.907  -0.021   5.484  0.00  0.00    +0.060 C 
ATOM      7  C   LIG    1      -10.316  -1.034   6.475  0.00  0.00    +0.014 C 
ATOM      8  C   LIG    1      -10.110  -0.109   4.119  0.00  0.00    +0.207 C 
ATOM      9  O   LIG    1      -10.196   1.126   3.384  0.00  0.00    -0.455 OA
ATOM     10  C   LIG    1       -9.046   1.639   2.882  0.00  0.00    +0.328 C 
ATOM     11  O   LIG    1       -7.956   1.042   2.911  0.00  0.00    -0.249 OA
ATOM     12  C   LIG    1       -9.258   3.080   2.396  0.00  0.00    +0.185 C 
ATOM     13  N   LIG    1       -8.490   3.690   1.281  0.00  0.00    -0.281 N 
ATOM     14  C   LIG    1       -9.180   4.871   0.753  0.00  0.00    +0.109 C 
ATOM     15  C   LIG    1       -9.266   5.955   1.835  0.00  0.00    +0.019 C 
ATOM     16  C   LIG    1       -9.888   5.412   3.126  0.00  0.00    +0.004 C 
ATOM     17  C   LIG    1       -7.084   3.798   1.244  0.00  0.00    +0.288 C 
ATOM     18  O   LIG    1       -6.521   4.767   0.731  0.00  0.00    -0.267 OA
ATOM     19  C   LIG    1       -6.175   2.660   1.663  0.00  0.00    +0.276 C 
ATOM     20  O   LIG    1       -6.107   1.677   0.920  0.00  0.00    -0.281 OA
ATOM     21  C   LIG    1       -5.214   2.862   2.883  0.00  0.00    +0.240 C 
ATOM     22  C   LIG    1       -4.738   4.322   3.059  0.00  0.00    +0.056 C 
ATOM     23  C   LIG    1       -3.745   4.787   1.981  0.00  0.00    +0.013 C 
ATOM     24  C   LIG    1       -4.078   4.564   4.419  0.00  0.00    +0.043 C 
ATOM     25  C   LIG    1       -4.924   4.006   5.556  0.00  0.00    +0.150 C 
ATOM     26  C   LIG    1       -5.196   2.502   5.341  0.00  0.00    +0.179 C 
ATOM     27  C   LIG    1       -4.059   1.432   5.534  0.00  0.00    +0.149 C 
ATOM     28  C   LIG    1       -4.512   0.138   6.271  0.00  0.00    +0.038 C 
ATOM     29  C   LIG    1       -4.790   0.039   7.797  0.00  0.00    -0.008 C 
ATOM     30  C   LIG    1       -3.855   0.773   8.746  0.00  0.00    +0.008 C 
ATOM     31  C   LIG    1       -6.288   0.079   8.170  0.00  0.00    +0.033 C 
ATOM     32  C   LIG    1       -7.004   1.306   8.711  0.00  0.00    -0.076 C 
ATOM     33  C   LIG    1       -6.623   1.754  10.098  0.00  0.00    +0.038 C 
ATOM     34  O   LIG    1       -5.877   2.360   4.059  0.00  0.00    -0.334 OA
ATOM     35  C   LIG    1       -9.274   4.072   3.562  0.00  0.00    +0.034 C 
ATOM     36  C   LIG    1       -8.090   1.743   8.040  0.00  0.00    -0.017 C 
ENDROOT
BRANCH   8  37
ATOM     37  C   LIG    1      -10.548  -1.232   3.168  0.00  0.00    -0.036 C 
ATOM     38  C   LIG    1      -11.843  -1.575   3.002  0.00  0.00    -0.021 C 
ATOM     39  C   LIG    1       -9.423  -1.848   2.374  0.00  0.00    +0.042 C 
BRANCH  38  40
ATOM     40  C   LIG    1      -12.432  -2.668   2.138  0.00  0.00    +0.014 C 
ATOM     41  C   LIG    1      -13.588  -3.424   2.837  0.00  0.00    +0.040 C 
ATOM     42  C   LIG    1      -14.919  -2.648   2.900  0.00  0.00    +0.136 C 
ATOM     43  C   LIG    1      -15.292  -2.178   1.477  0.00  0.00    +0.109 C 
ATOM     44 CL   LIG    1      -16.841  -1.279   1.467  0.00  0.00    -0.119 Cl
ATOM     45  C   LIG    1      -14.191  -1.326   0.846  0.00  0.00    +0.022 C 
ATOM     46  C   LIG    1      -12.875  -2.103   0.781  0.00  0.00    +0.009 C 
BRANCH  42  47
ATOM     47  O   LIG    1      -14.852  -1.524   3.791  0.00  0.00    -0.378 OA
ATOM     48  C   LIG    1      -14.672  -1.873   5.158  0.00  0.00    +0.194 C 
ENDBRANCH  42  47
ENDBRANCH  38  40
ENDBRANCH   8  37
BRANCH   1  50
ATOM     49  C   LIG    1       -8.232   4.833   7.964  0.00  0.00    +0.005 C 
ATOM     50  C   LIG    1       -9.437   3.908   7.825  0.00  0.00    +0.011 C 
ENDBRANCH   1  50
BRANCH   5  51
ATOM     51  O   LIG    1      -11.836   2.214   5.213  0.00  0.00    -0.391 OA
ATOM     52  H   LIG    1      -12.694   1.756   5.146  0.00  0.00    +0.210 HD
ENDBRANCH   5  51
BRANCH  27  53
ATOM     53  O   LIG    1       -2.841   1.931   6.090  0.00  0.00    -0.377 OA
ATOM     54  C   LIG    1       -1.691   1.233   5.605  0.00  0.00    +0.194 C 
ENDBRANCH  27  53
BRANCH  25  55
ATOM     55  O   LIG    1       -4.394   4.305   6.845  0.00  0.00    -0.377 OA
ATOM     56  C   LIG    1       -4.327   5.703   7.116  0.00  0.00    +0.194 C 
ENDBRANCH  25  55
BRANCH  21  57
ATOM     57  O   LIG    1       -4.069   2.049   2.606  0.00  0.00    -0.358 OA
ATOM     58  H   LIG    1       -4.405   1.308   2.063  0.00  0.00    +0.213 HD
ENDBRANCH  21  57
TORSDOF 8
