REMARK  Name = *****
REMARK                            x       y       z     vdW  Elec       q    Type
REMARK                         _______ _______ _______ _____ _____    ______ ____
ROOT
ATOM      1  C   LIG    1        2.341   0.252  -0.385  0.00  0.00    +0.210 C 
ATOM      2  C   LIG    1        2.798  -1.013   0.293  0.00  0.00    +0.237 C 
ATOM      3  N   LIG    1        3.567  -1.806  -0.668  0.00  0.00    -0.273 NA
ATOM      4  C   LIG    1        4.659  -1.316  -1.158  0.00  0.00    +0.075 C 
ATOM      5  C   LIG    1        5.254  -0.004  -0.756  0.00  0.00    +0.027 A 
ATOM      6  C   LIG    1        4.465   1.152  -0.612  0.00  0.00    +0.077 A 
ATOM      7  C   LIG    1        5.098   2.352  -0.258  0.00  0.00    +0.030 A 
ATOM      8  C   LIG    1        6.473   2.404  -0.017  0.00  0.00    +0.022 A 
ATOM      9  C   LIG    1        7.233   1.245  -0.128  0.00  0.00    +0.042 A 
ATOM     10 CL   LIG    1        8.923   1.299   0.183  0.00  0.00    -0.084 Cl
ATOM     11  C   LIG    1        6.634   0.042  -0.491  0.00  0.00    +0.032 A 
ATOM     12  N   LIG    1        3.075   1.223  -0.815  0.00  0.00    -0.215 NA
ENDROOT
BRANCH   4  13
ATOM     13  C   LIG    1        5.375  -2.137  -2.187  0.00  0.00    +0.001 A 
ATOM     14  C   LIG    1        6.018  -1.536  -3.276  0.00  0.00    +0.010 A 
ATOM     15  C   LIG    1        6.676  -2.326  -4.221  0.00  0.00    +0.001 A 
ATOM     16  C   LIG    1        6.684  -3.715  -4.087  0.00  0.00    +0.000 A 
ATOM     17  C   LIG    1        6.028  -4.318  -3.014  0.00  0.00    +0.001 A 
ATOM     18  C   LIG    1        5.369  -3.532  -2.068  0.00  0.00    +0.010 A 
ENDBRANCH   4  13
BRANCH   1  19
ATOM     19  O   LIG    1        1.017   0.363  -0.559  0.00  0.00    -0.494 OA
ATOM     20  H   LIG    1        0.860   1.191  -1.041  0.00  0.00    +0.293 HD
ENDBRANCH   1  19
TORSDOF 2
