REMARK  Name = *****
REMARK                            x       y       z     vdW  Elec       q    Type
REMARK                         _______ _______ _______ _____ _____    ______ ____
ROOT
ATOM      1  C   LIG    1        4.590   1.762  -0.207  0.00  0.00    +0.150 A 
ATOM      2  C   LIG    1        5.843   1.119  -0.098  0.00  0.00    +0.147 A 
ATOM      3  C   LIG    1        6.923   1.917   0.245  0.00  0.00    +0.163 A 
ATOM      4  N   LIG    1        7.998   1.077   0.279  0.00  0.00    -0.329 N 
ATOM      5  H   LIG    1        8.944   1.351   0.494  0.00  0.00    +0.168 HD
ATOM      6  C   LIG    1        7.551  -0.176  -0.042  0.00  0.00    +0.198 A 
ATOM      7  N   LIG    1        6.933   3.234   0.488  0.00  0.00    -0.216 NA
ATOM      8  C   LIG    1        5.697   3.747   0.351  0.00  0.00    +0.225 A 
ATOM      9  N   LIG    1        6.249  -0.193  -0.263  0.00  0.00    -0.231 NA
ATOM     10  N   LIG    1        4.555   3.103   0.030  0.00  0.00    -0.219 NA
ENDROOT
BRANCH   1  11
ATOM     11  N   LIG    1        3.416   1.087  -0.564  0.00  0.00    -0.320 N 
ATOM     12  H   LIG    1        3.509   0.086  -0.406  0.00  0.00    +0.148 HD
BRANCH  11  13
ATOM     13  C   LIG    1        2.201   1.681  -0.021  0.00  0.00    +0.177 C 
BRANCH  13  16
ATOM     14  C   LIG    1       -0.931   0.113  -1.270  0.00  0.00    +0.041 A 
ATOM     15  C   LIG    1        0.126   1.024  -1.511  0.00  0.00    +0.046 A 
ATOM     16  C   LIG    1        0.950   0.967  -0.405  0.00  0.00    +0.122 A 
ATOM     17  O   LIG    1        0.453   0.071   0.499  0.00  0.00    -0.466 OA
ATOM     18  C   LIG    1       -0.687  -0.439  -0.034  0.00  0.00    +0.195 A 
ENDBRANCH  13  16
ENDBRANCH  11  13
ENDBRANCH   1  11
TORSDOF 3
