REMARK  Name = *****
REMARK                            x       y       z     vdW  Elec       q    Type
REMARK                         _______ _______ _______ _____ _____    ______ ____
ROOT
ATOM      1  N   LIG    1       -1.867  -1.287  -2.485  0.00  0.00    -0.297 NA
ATOM      2  C   LIG    1       -2.017  -0.660  -3.804  0.00  0.00    +0.100 C 
ATOM      3  C   LIG    1       -1.430  -1.431  -5.007  0.00  0.00    +0.100 C 
ATOM      4  N   LIG    1       -1.951  -2.796  -5.205  0.00  0.00    -0.292 NA
ATOM      5  C   LIG    1       -1.874  -3.498  -3.894  0.00  0.00    +0.100 C 
ATOM      6  C   LIG    1       -2.195  -2.723  -2.564  0.00  0.00    +0.100 C 
ENDROOT
BRANCH   1   7
ATOM      7  C   LIG    1       -0.667  -0.942  -1.678  0.00  0.00    +0.119 C 
BRANCH   7   8
ATOM      8  C   LIG    1       -0.349   0.588  -1.514  0.00  0.00    +0.166 C 
BRANCH   8   9
ATOM      9  O   LIG    1        0.013   1.184  -2.764  0.00  0.00    -0.387 OA
ATOM     10  H   LIG    1        0.717   0.617  -3.129  0.00  0.00    +0.210 HD
ENDBRANCH   8   9
BRANCH   8  11
ATOM     11  C   LIG    1        0.818   0.914  -0.554  0.00  0.00    +0.261 C 
BRANCH  11  12
ATOM     12  O   LIG    1        2.069   0.383  -1.055  0.00  0.00    -0.486 OA
BRANCH  12  14
ATOM     13  C   LIG    1        4.454   0.807  -0.969  0.00  0.00    +0.162 A 
ATOM     14  C   LIG    1        3.195   0.717  -0.323  0.00  0.00    +0.162 A 
ATOM     15  C   LIG    1        3.135   0.919   1.066  0.00  0.00    +0.049 A 
ATOM     16  C   LIG    1        4.281   1.219   1.805  0.00  0.00    +0.004 A 
ATOM     17  C   LIG    1        5.512   1.297   1.172  0.00  0.00    +0.004 A 
ATOM     18  C   LIG    1        5.598   1.081  -0.201  0.00  0.00    +0.049 A 
BRANCH  13  20
ATOM     19  C   LIG    1        5.694   1.161  -2.975  0.00  0.00    +0.277 C 
ATOM     20  O   LIG    1        4.534   0.613  -2.332  0.00  0.00    -0.491 OA
ENDBRANCH  13  20
ENDBRANCH  12  14
ENDBRANCH  11  12
ENDBRANCH   8  11
ENDBRANCH   7   8
ENDBRANCH   1   7
BRANCH   4  21
ATOM     21  C   LIG    1       -3.310  -2.861  -5.808  0.00  0.00    +0.180 C 
BRANCH  21  22
ATOM     22  C   LIG    1       -3.454  -2.152  -7.178  0.00  0.00    +0.231 C 
ATOM     23  N   LIG    1       -3.189  -2.924  -8.308  0.00  0.00    -0.284 N 
ATOM     24  H   LIG    1       -2.444  -3.598  -8.153  0.00  0.00    +0.155 HD
ATOM     25  O   LIG    1       -3.809  -0.946  -7.224  0.00  0.00    -0.274 OA
BRANCH  23  26
ATOM     26  C   LIG    1       -3.302  -2.392  -9.638  0.00  0.00    +0.039 A 
ATOM     27  C   LIG    1       -2.193  -2.415 -10.512  0.00  0.00    -0.029 A 
ATOM     28  C   LIG    1       -0.915  -3.143 -10.202  0.00  0.00    +0.045 C 
ATOM     29  C   LIG    1       -2.266  -1.744 -11.751  0.00  0.00    +0.005 A 
ATOM     30  C   LIG    1       -3.429  -1.100 -12.153  0.00  0.00    +0.001 A 
ATOM     31  C   LIG    1       -4.562  -1.192 -11.358  0.00  0.00    +0.005 A 
ATOM     32  C   LIG    1       -4.525  -1.861 -10.117  0.00  0.00    -0.029 A 
ATOM     33  C   LIG    1       -5.849  -2.148  -9.459  0.00  0.00    +0.045 C 
ENDBRANCH  23  26
ENDBRANCH  21  22
ENDBRANCH   4  21
TORSDOF 10
