REMARK  Name = *****
REMARK                            x       y       z     vdW  Elec       q    Type
REMARK                         _______ _______ _______ _____ _____    ______ ____
ROOT
ATOM      1  C   LIG    1        3.978  -3.735   3.304  0.00  0.00    +0.138 C 
ENDROOT
BRANCH   1   2
ATOM      2  N   LIG    1        2.916  -3.893   4.277  0.00  0.00    -0.323 N 
ATOM      3  C   LIG    1        2.713  -5.004   5.052  0.00  0.00    +0.151 A 
ATOM      4  C   LIG    1        3.339  -6.269   5.109  0.00  0.00    +0.282 C 
ATOM      5  N   LIG    1        2.909  -7.045   6.178  0.00  0.00    -0.262 N 
ATOM      6  C   LIG    1        1.813  -6.745   7.018  0.00  0.00    +0.333 C 
ATOM      7  N   LIG    1        1.163  -5.534   6.793  0.00  0.00    -0.280 N 
ATOM      8  C   LIG    1       -0.032  -5.167   7.531  0.00  0.00    +0.155 C 
ATOM      9  O   LIG    1        1.445  -7.520   7.900  0.00  0.00    -0.246 OA
ATOM     10  C   LIG    1        3.582  -8.304   6.420  0.00  0.00    +0.157 C 
ATOM     11  O   LIG    1        4.174  -6.644   4.265  0.00  0.00    -0.265 OA
ATOM     12  C   LIG    1        1.663  -4.680   5.859  0.00  0.00    +0.168 A 
ATOM     13  N   LIG    1        1.186  -3.439   5.620  0.00  0.00    -0.218 NA
ATOM     14  C   LIG    1        1.974  -2.982   4.676  0.00  0.00    +0.202 A 
ENDBRANCH   1   2
BRANCH   1  15
ATOM     15  C   LIG    1        3.760  -2.670   2.210  0.00  0.00    +0.103 C 
BRANCH  15  16
ATOM     16  N   LIG    1        3.497  -1.267   2.543  0.00  0.00    -0.311 NA
ATOM     17  H   LIG    1        2.555  -1.113   2.887  0.00  0.00    +0.122 HD
BRANCH  16  19
ATOM     18  C   LIG    1        4.947  -1.164   4.612  0.00  0.00    +0.024 C 
ATOM     19  C   LIG    1        4.499  -0.505   3.307  0.00  0.00    +0.055 C 
BRANCH  19  20
ATOM     20  C   LIG    1        3.934   0.913   3.612  0.00  0.00    +0.053 C 
BRANCH  20  21
ATOM     21  C   LIG    1        4.898   1.819   4.352  0.00  0.00    -0.046 A 
ATOM     22  C   LIG    1        4.905   1.869   5.757  0.00  0.00    +0.003 A 
ATOM     23  C   LIG    1        5.835   2.655   6.438  0.00  0.00    +0.000 A 
ATOM     24  C   LIG    1        6.759   3.414   5.725  0.00  0.00    +0.000 A 
ATOM     25  C   LIG    1        6.751   3.387   4.331  0.00  0.00    +0.000 A 
ATOM     26  C   LIG    1        5.829   2.592   3.647  0.00  0.00    +0.003 A 
ENDBRANCH  20  21
ENDBRANCH  19  20
ENDBRANCH  16  19
ENDBRANCH  15  16
ENDBRANCH   1  15
TORSDOF 6
