REMARK  Name = *****
REMARK                            x       y       z     vdW  Elec       q    Type
REMARK                         _______ _______ _______ _____ _____    ______ ____
ROOT
ATOM      1  C   LIG    1        4.297   0.453  -1.316  0.00  0.00    +0.036 C 
ATOM      2  C   LIG    1        4.235  -0.620  -0.279  0.00  0.00    -0.021 C 
ATOM      3  C   LIG    1        3.273  -1.546  -0.037  0.00  0.00    -0.015 C 
ENDROOT
BRANCH   3   4
ATOM      4  C   LIG    1        3.582  -2.405   1.139  0.00  0.00    -0.017 A 
ATOM      5  C   LIG    1        4.251  -3.628   0.998  0.00  0.00    +0.012 A 
ATOM      6  C   LIG    1        4.572  -4.390   2.126  0.00  0.00    +0.046 A 
ATOM      7  C   LIG    1        4.224  -3.933   3.393  0.00  0.00    +0.117 A 
ATOM      8  C   LIG    1        3.567  -2.718   3.555  0.00  0.00    +0.046 A 
ATOM      9  C   LIG    1        3.250  -1.954   2.428  0.00  0.00    +0.012 A 
BRANCH   7  10
ATOM     10  O   LIG    1        4.553  -4.710   4.464  0.00  0.00    -0.507 OA
ATOM     11  H   LIG    1        4.254  -4.265   5.274  0.00  0.00    +0.292 HD
ENDBRANCH   7  10
ENDBRANCH   3   4
BRANCH   3  12
ATOM     12  C   LIG    1        2.048  -1.735  -0.827  0.00  0.00    -0.015 C 
ATOM     13  C   LIG    1        1.094  -0.792  -1.033  0.00  0.00    -0.021 C 
ATOM     14  C   LIG    1        1.034   0.617  -0.540  0.00  0.00    +0.036 C 
BRANCH  12  15
ATOM     15  C   LIG    1        1.710  -3.057  -1.425  0.00  0.00    -0.017 A 
ATOM     16  C   LIG    1        2.083  -3.363  -2.741  0.00  0.00    +0.012 A 
ATOM     17  C   LIG    1        1.759  -4.604  -3.298  0.00  0.00    +0.046 A 
ATOM     18  C   LIG    1        1.061  -5.540  -2.542  0.00  0.00    +0.117 A 
ATOM     19  C   LIG    1        0.659  -5.247  -1.243  0.00  0.00    +0.046 A 
ATOM     20  C   LIG    1        0.983  -4.005  -0.687  0.00  0.00    +0.012 A 
BRANCH  18  21
ATOM     21  O   LIG    1        0.788  -6.747  -3.116  0.00  0.00    -0.507 OA
ATOM     22  H   LIG    1        0.376  -7.321  -2.449  0.00  0.00    +0.292 HD
ENDBRANCH  18  21
ENDBRANCH  12  15
ENDBRANCH   3  12
TORSDOF 5
