REMARK  Name = *****
REMARK                            x       y       z     vdW  Elec       q    Type
REMARK                         _______ _______ _______ _____ _____    ______ ____
ROOT
ATOM      1  C   LIG    1        6.566  -2.094   1.795  0.00  0.00    +0.042 A 
ATOM      2  C   LIG    1        7.982  -1.967   1.790  0.00  0.00    +0.074 A 
ATOM      3 CL   LIG    1        9.118  -3.265   1.996  0.00  0.00    -0.081 Cl
ATOM      4  C   LIG    1        8.572  -0.683   1.740  0.00  0.00    +0.102 A 
ATOM      5 CL   LIG    1       10.307  -0.460   1.674  0.00  0.00    -0.078 Cl
ATOM      6  C   LIG    1        7.782   0.459   1.841  0.00  0.00    +0.141 A 
ATOM      7  C   LIG    1        6.455   0.306   2.176  0.00  0.00    +0.048 A 
ATOM      8  C   LIG    1        5.824  -0.914   1.994  0.00  0.00    +0.017 A 
ENDROOT
BRANCH   1   9
ATOM      9  C   LIG    1        5.662  -3.303   1.712  0.00  0.00    +0.190 C 
ATOM     10  O   LIG    1        4.599  -3.255   2.334  0.00  0.00    -0.287 OA
BRANCH   9  12
ATOM     11  C   LIG    1        5.117  -5.553   0.882  0.00  0.00    +0.016 C 
ATOM     12  C   LIG    1        5.930  -4.482   0.824  0.00  0.00    -0.007 C 
BRANCH  12  13
ATOM     13  C   LIG    1        7.111  -4.538  -0.075  0.00  0.00    +0.035 C 
ATOM     14  C   LIG    1        7.166  -3.468  -1.149  0.00  0.00    +0.009 C 
ENDBRANCH  12  13
ENDBRANCH   9  12
ENDBRANCH   1   9
BRANCH   6  15
ATOM     15  O   LIG    1        8.363   1.658   1.592  0.00  0.00    -0.479 OA
BRANCH  15  16
ATOM     16  C   LIG    1        7.602   2.840   1.597  0.00  0.00    +0.349 C 
BRANCH  16  17
ATOM     17  C   LIG    1        6.471   3.241   0.615  0.00  0.00    +0.343 C 
ATOM     18  O   LIG    1        6.573   4.211  -0.087  0.00  0.00    -0.247 OA
BRANCH  17  19
ATOM     19  O   LIG    1        5.298   2.565   0.608  0.00  0.00    -0.478 OA
ATOM     20  H   LIG    1        5.174   1.754   1.053  0.00  0.00    +0.295 HD
ENDBRANCH  17  19
ENDBRANCH  16  17
ENDBRANCH  15  16
ENDBRANCH   6  15
TORSDOF 7
