REMARK  Name = *****
REMARK                            x       y       z     vdW  Elec       q    Type
REMARK                         _______ _______ _______ _____ _____    ______ ____
ROOT
ATOM      1  C   LIG    1        4.491   0.768  -1.025  0.00  0.00    +0.107 A 
ATOM      2  N   LIG    1        5.431   1.612  -0.411  0.00  0.00    -0.318 N 
ATOM      3  C   LIG    1        6.704   1.219  -0.790  0.00  0.00    +0.147 A 
ATOM      4  C   LIG    1        6.599   0.207  -1.713  0.00  0.00    +0.038 A 
ATOM      5  C   LIG    1        7.790  -0.350  -2.159  0.00  0.00    +0.126 A 
ATOM      6  N   LIG    1        8.971   0.125  -1.695  0.00  0.00    -0.222 NA
ATOM      7  C   LIG    1        8.966   1.175  -0.851  0.00  0.00    +0.222 A 
ATOM      8  N   LIG    1        7.855   1.740  -0.356  0.00  0.00    -0.196 NA
ATOM      9  C   LIG    1        5.228   0.040  -1.963  0.00  0.00    +0.044 A 
ENDROOT
BRANCH   1  12
ATOM     10  C   LIG    1        0.897  -0.471  -0.684  0.00  0.00    +0.132 C 
ATOM     11  N   LIG    1        2.326  -0.462  -0.961  0.00  0.00    -0.302 N 
ATOM     12  C   LIG    1        3.051   0.724  -0.754  0.00  0.00    +0.263 C 
ATOM     13  O   LIG    1        2.458   1.722  -0.310  0.00  0.00    -0.268 OA
ATOM     14  C   LIG    1        2.817  -1.671  -1.603  0.00  0.00    +0.132 C 
ENDBRANCH   1  12
BRANCH   2  15
ATOM     15  C   LIG    1        5.177   2.739   0.478  0.00  0.00    +0.089 C 
ATOM     16  C   LIG    1        5.772   2.649   1.891  0.00  0.00    +0.025 C 
ATOM     17  C   LIG    1        5.649   4.082   2.396  0.00  0.00    +0.002 C 
ATOM     18  C   LIG    1        6.007   4.939   1.190  0.00  0.00    +0.002 C 
ATOM     19  C   LIG    1        5.680   4.098  -0.048  0.00  0.00    +0.025 C 
ENDBRANCH   2  15
BRANCH   7  20
ATOM     20  N   LIG    1       10.216   1.693  -0.509  0.00  0.00    -0.268 N 
ATOM     21  H   LIG    1       10.971   1.159  -0.907  0.00  0.00    +0.156 HD
BRANCH  20  22
ATOM     22  C   LIG    1       10.555   3.020  -0.242  0.00  0.00    +0.125 A 
ATOM     23  N   LIG    1       11.805   3.432  -0.534  0.00  0.00    -0.238 NA
ATOM     24  C   LIG    1       12.135   4.729  -0.238  0.00  0.00    +0.136 A 
ATOM     25  C   LIG    1       11.313   5.673   0.386  0.00  0.00    +0.048 A 
ATOM     26  C   LIG    1       10.025   5.212   0.623  0.00  0.00    +0.028 A 
ATOM     27  C   LIG    1        9.654   3.906   0.321  0.00  0.00    +0.045 A 
BRANCH  25  28
ATOM     28  N   LIG    1       11.666   6.981   0.730  0.00  0.00    -0.326 N 
ATOM     29  C   LIG    1       11.174   7.479   2.044  0.00  0.00    +0.120 C 
ATOM     30  C   LIG    1       12.165   7.106   3.170  0.00  0.00    +0.100 C 
ATOM     31  N   LIG    1       13.528   7.626   2.926  0.00  0.00    -0.313 NA
ATOM     32  H   LIG    1       13.467   8.644   2.882  0.00  0.00    +0.122 HD
ATOM     33  C   LIG    1       13.996   7.141   1.607  0.00  0.00    +0.100 C 
ATOM     34  C   LIG    1       13.029   7.472   0.445  0.00  0.00    +0.120 C 
ENDBRANCH  25  28
ENDBRANCH  20  22
ENDBRANCH   7  20
TORSDOF 5
