REMARK  Name = *****
REMARK                            x       y       z     vdW  Elec       q    Type
REMARK                         _______ _______ _______ _____ _____    ______ ____
ROOT
ATOM      1  C   LIG    1       -3.129 -14.930  11.088  0.00  0.00    +0.007 C 
ENDROOT
BRANCH   1   2
ATOM      2  C   LIG    1       -3.859 -13.853  10.296  0.00  0.00    +0.041 C 
BRANCH   2   3
ATOM      3  C   LIG    1       -4.597 -12.943  11.254  0.00  0.00    +0.232 C 
BRANCH   3   4
ATOM      4  O   LIG    1       -5.262 -11.877  10.575  0.00  0.00    -0.465 OA
BRANCH   4   5
ATOM      5  C   LIG    1       -6.454 -12.219  10.059  0.00  0.00    +0.312 C 
ATOM      6  O   LIG    1       -6.635 -13.143   9.237  0.00  0.00    -0.251 OA
BRANCH   5   7
ATOM      7  C   LIG    1       -7.587 -11.452  10.652  0.00  0.00    +0.171 C 
BRANCH   7   8
ATOM      8  C   LIG    1       -7.109 -10.493  11.730  0.00  0.00    +0.145 C 
BRANCH   8   9
ATOM      9  N   LIG    1       -8.239  -9.662  12.413  0.00  0.00    +0.247 N 
ATOM     10  C   LIG    1       -9.142 -10.628  13.183  0.00  0.00    +0.193 C 
ATOM     11  C   LIG    1       -9.034  -8.765  11.324  0.00  0.00    +0.102 C 
ATOM     12  C   LIG    1       -8.060  -7.756  10.688  0.00  0.00    +0.008 A 
ATOM     13  C   LIG    1       -7.082  -7.160  11.474  0.00  0.00    -0.030 A 
ATOM     14  C   LIG    1       -6.249  -6.114  11.080  0.00  0.00    +0.053 A 
ATOM     15  C   LIG    1       -6.213  -5.746   9.773  0.00  0.00    +0.162 A 
ATOM     16  C   LIG    1       -6.976  -6.503   8.880  0.00  0.00    +0.162 A 
ATOM     17  C   LIG    1       -6.904  -7.479  12.883  0.00  0.00    +0.086 C 
ATOM     18  C   LIG    1       -7.938  -7.451   9.341  0.00  0.00    +0.059 A 
ATOM     19  C   LIG    1       -7.489  -8.782  13.448  0.00  0.00    +0.138 C 
BRANCH  15  20
ATOM     20  O   LIG    1       -5.329  -4.745   9.537  0.00  0.00    -0.491 OA
ATOM     21  C   LIG    1       -5.793  -3.773   8.619  0.00  0.00    +0.277 C 
ENDBRANCH  15  20
BRANCH  16  22
ATOM     22  O   LIG    1       -6.880  -6.449   7.516  0.00  0.00    -0.491 OA
ATOM     23  C   LIG    1       -5.555  -6.403   6.976  0.00  0.00    +0.277 C 
ENDBRANCH  16  22
BRANCH  11  24
ATOM     24  C   LIG    1      -10.508  -8.230  11.811  0.00  0.00    +0.095 C 
BRANCH  24  25
ATOM     25  C   LIG    1      -10.729  -7.261  12.978  0.00  0.00    -0.038 A 
ATOM     26  C   LIG    1       -9.625  -6.754  13.638  0.00  0.00    +0.053 A 
ATOM     27  C   LIG    1       -9.477  -5.948  14.769  0.00  0.00    +0.162 A 
ATOM     28  C   LIG    1      -10.685  -5.455  15.212  0.00  0.00    +0.162 A 
ATOM     29  C   LIG    1      -11.870  -5.836  14.521  0.00  0.00    +0.050 A 
ATOM     30  C   LIG    1      -11.905  -6.737  13.433  0.00  0.00    +0.007 A 
BRANCH  28  31
ATOM     31  O   LIG    1      -10.678  -4.614  16.294  0.00  0.00    -0.491 OA
ATOM     32  C   LIG    1      -11.967  -4.149  16.684  0.00  0.00    +0.277 C 
ENDBRANCH  28  31
BRANCH  27  33
ATOM     33  O   LIG    1       -8.292  -5.477  15.289  0.00  0.00    -0.491 OA
ATOM     34  C   LIG    1       -7.163  -6.298  15.605  0.00  0.00    +0.277 C 
ENDBRANCH  27  33
ENDBRANCH  24  25
ENDBRANCH  11  24
ENDBRANCH   8   9
ENDBRANCH   7   8
ENDBRANCH   5   7
ENDBRANCH   4   5
ENDBRANCH   3   4
ENDBRANCH   2   3
ENDBRANCH   1   2
BRANCH   1  35
ATOM     35  C   LIG    1       -2.303 -15.853  10.203  0.00  0.00    +0.041 C 
BRANCH  35  36
ATOM     36  C   LIG    1       -3.206 -16.589   9.234  0.00  0.00    +0.232 C 
BRANCH  36  37
ATOM     37  O   LIG    1       -2.470 -17.488   8.417  0.00  0.00    -0.465 OA
BRANCH  37  38
ATOM     38  C   LIG    1       -2.867 -18.754   8.502  0.00  0.00    +0.312 C 
ATOM     39  O   LIG    1       -3.554 -19.259   9.479  0.00  0.00    -0.251 OA
BRANCH  38  40
ATOM     40  C   LIG    1       -2.546 -19.530   7.310  0.00  0.00    +0.171 C 
BRANCH  40  41
ATOM     41  C   LIG    1       -1.773 -20.777   7.716  0.00  0.00    +0.145 C 
BRANCH  41  43
ATOM     42  C   LIG    1       -0.690 -22.994   6.962  0.00  0.00    +0.102 C 
ATOM     43  N   LIG    1       -1.409 -21.659   6.506  0.00  0.00    +0.247 N 
ATOM     44  C   LIG    1       -2.661 -21.922   5.664  0.00  0.00    +0.193 C 
ATOM     45  C   LIG    1       -0.428 -20.980   5.496  0.00  0.00    +0.138 C 
ATOM     46  C   LIG    1        0.867 -20.526   6.122  0.00  0.00    +0.086 C 
ATOM     47  C   LIG    1        1.542 -21.663   6.802  0.00  0.00    -0.030 A 
ATOM     48  C   LIG    1        2.941 -21.586   6.955  0.00  0.00    +0.053 A 
ATOM     49  C   LIG    1        3.691 -22.537   7.658  0.00  0.00    +0.162 A 
ATOM     50  C   LIG    1        2.961 -23.542   8.308  0.00  0.00    +0.162 A 
ATOM     51  C   LIG    1        1.534 -23.569   8.147  0.00  0.00    +0.059 A 
ATOM     52  C   LIG    1        0.798 -22.709   7.347  0.00  0.00    +0.008 A 
BRANCH  50  53
ATOM     53  O   LIG    1        3.547 -24.516   9.097  0.00  0.00    -0.491 OA
ATOM     54  C   LIG    1        2.599 -25.450   9.669  0.00  0.00    +0.277 C 
ENDBRANCH  50  53
BRANCH  49  55
ATOM     55  O   LIG    1        5.003 -22.190   7.560  0.00  0.00    -0.491 OA
ATOM     56  C   LIG    1        6.106 -23.014   7.876  0.00  0.00    +0.277 C 
ENDBRANCH  49  55
BRANCH  42  57
ATOM     57  C   LIG    1       -1.503 -24.008   7.914  0.00  0.00    +0.095 C 
BRANCH  57  61
ATOM     58  C   LIG    1       -5.700 -25.395   7.681  0.00  0.00    +0.162 A 
ATOM     59  C   LIG    1       -5.340 -24.289   8.455  0.00  0.00    +0.162 A 
ATOM     60  C   LIG    1       -4.002 -23.823   8.436  0.00  0.00    +0.053 A 
ATOM     61  C   LIG    1       -2.963 -24.461   7.739  0.00  0.00    -0.038 A 
ATOM     62  C   LIG    1       -3.332 -25.617   7.027  0.00  0.00    +0.007 A 
ATOM     63  C   LIG    1       -4.681 -26.064   6.983  0.00  0.00    +0.050 A 
BRANCH  58  65
ATOM     64  C   LIG    1       -7.506 -26.222   6.367  0.00  0.00    +0.277 C 
ATOM     65  O   LIG    1       -7.017 -25.762   7.628  0.00  0.00    -0.491 OA
ENDBRANCH  58  65
BRANCH  59  66
ATOM     66  O   LIG    1       -6.157 -23.463   9.183  0.00  0.00    -0.491 OA
ATOM     67  C   LIG    1       -7.320 -23.994   9.809  0.00  0.00    +0.277 C 
ENDBRANCH  59  66
ENDBRANCH  57  61
ENDBRANCH  42  57
ENDBRANCH  41  43
ENDBRANCH  40  41
ENDBRANCH  38  40
ENDBRANCH  37  38
ENDBRANCH  36  37
ENDBRANCH  35  36
ENDBRANCH   1  35
TORSDOF 26
