REMARK  Name = *****
REMARK                            x       y       z     vdW  Elec       q    Type
REMARK                         _______ _______ _______ _____ _____    ______ ____
ROOT
ATOM      1  O   LIG    1        3.140  -0.258   0.772  0.00  0.00    -0.274 OA
ATOM      2  C   LIG    1        2.444   0.366  -0.029  0.00  0.00    +0.233 C 
ATOM      3  N   LIG    1        2.942   0.948  -1.175  0.00  0.00    -0.310 N 
ATOM      4  H   LIG    1        2.299   1.248  -1.897  0.00  0.00    +0.149 HD
ENDROOT
BRANCH   3   5
ATOM      5  C   LIG    1        4.313   0.727  -1.587  0.00  0.00    +0.139 C 
BRANCH   5   6
ATOM      6  C   LIG    1        4.597   1.392  -2.910  0.00  0.00    -0.030 A 
ATOM      7  C   LIG    1        5.008   0.630  -4.014  0.00  0.00    +0.005 A 
ATOM      8  C   LIG    1        5.255   1.238  -5.247  0.00  0.00    +0.000 A 
ATOM      9  C   LIG    1        5.095   2.614  -5.392  0.00  0.00    +0.000 A 
ATOM     10  C   LIG    1        4.696   3.385  -4.302  0.00  0.00    +0.000 A 
ATOM     11  C   LIG    1        4.452   2.780  -3.067  0.00  0.00    +0.005 A 
ENDBRANCH   5   6
ENDBRANCH   3   5
BRANCH   2  12
ATOM     12  C   LIG    1        0.961   0.597   0.175  0.00  0.00    +0.224 C 
BRANCH  12  13
ATOM     13  N   LIG    1        0.294  -0.452   0.933  0.00  0.00    -0.263 N 
ATOM     14  C   LIG    1        0.077  -1.769   0.607  0.00  0.00    +0.451 A 
ATOM     15  N   LIG    1       -0.688  -2.375   1.496  0.00  0.00    -0.172 NA
ATOM     16  C   LIG    1       -0.954  -1.430   2.449  0.00  0.00    +0.137 A 
ATOM     17  C   LIG    1       -0.363  -0.231   2.124  0.00  0.00    +0.114 A 
BRANCH  14  18
ATOM     18  N   LIG    1        0.570  -2.433  -0.575  0.00  0.00    +0.119 N 
ATOM     19  O   LIG    1        0.276  -3.626  -0.724  0.00  0.00    -0.574 OA
ATOM     20  O   LIG    1        1.221  -1.757  -1.383  0.00  0.00    +0.045 OA
ENDBRANCH  14  18
ENDBRANCH  12  13
ENDBRANCH   2  12
TORSDOF 5
