REMARK  Name = *****
REMARK                            x       y       z     vdW  Elec       q    Type
REMARK                         _______ _______ _______ _____ _____    ______ ____
ROOT
ATOM      1  S   LIG    1        6.566  -3.056  -3.443  0.00  0.00    +0.103 S 
ATOM      2  O   LIG    1        7.011  -2.348  -4.628  0.00  0.00    -0.146 OA
ATOM      3  O   LIG    1        5.779  -4.277  -3.546  0.00  0.00    -0.146 OA
ENDROOT
BRANCH   1   4
ATOM      4  C   LIG    1        8.070  -3.537  -2.594  0.00  0.00    +0.113 A 
ATOM      5  C   LIG    1        9.026  -2.562  -2.284  0.00  0.00    +0.030 A 
ATOM      6  C   LIG    1       10.227  -2.948  -1.679  0.00  0.00    +0.022 A 
ATOM      7  C   LIG    1       10.465  -4.295  -1.398  0.00  0.00    +0.041 A 
ATOM      8 CL   LIG    1       11.954  -4.769  -0.678  0.00  0.00    -0.084 Cl
ATOM      9  C   LIG    1        9.508  -5.263  -1.702  0.00  0.00    +0.022 A 
ATOM     10  C   LIG    1        8.305  -4.885  -2.301  0.00  0.00    +0.030 A 
ENDBRANCH   1   4
BRANCH   1  12
ATOM     11  C   LIG    1        4.670  -1.625  -2.663  0.00  0.00    +0.298 C 
ATOM     12  N   LIG    1        5.859  -2.030  -2.405  0.00  0.00    -0.076 NA
BRANCH  11  13
ATOM     13  N   LIG    1        3.921  -0.751  -1.935  0.00  0.00    -0.298 N 
ATOM     14  H   LIG    1        2.921  -0.917  -1.938  0.00  0.00    +0.150 HD
BRANCH  13  15
ATOM     15  C   LIG    1        4.398  -0.117  -0.716  0.00  0.00    +0.105 C 
BRANCH  15  17
ATOM     16  C   LIG    1        4.447  -0.299   1.811  0.00  0.00    +0.005 C 
ATOM     17  C   LIG    1        3.994  -0.937   0.506  0.00  0.00    +0.015 C 
ENDBRANCH  15  17
ENDBRANCH  13  15
ENDBRANCH  11  13
BRANCH  11  18
ATOM     18  O   LIG    1        3.991  -2.025  -3.748  0.00  0.00    -0.481 OA
ATOM     19  H   LIG    1        3.195  -1.496  -3.883  0.00  0.00    +0.295 HD
ENDBRANCH  11  18
ENDBRANCH   1  12
TORSDOF 6
