REMARK  Name = *****
REMARK                            x       y       z     vdW  Elec       q    Type
REMARK                         _______ _______ _______ _____ _____    ______ ____
ROOT
ATOM      1  C   LIG    1        0.846  -0.064  -0.084  0.00  0.00    +0.138 C 
ATOM      2  N   LIG    1        2.294  -0.061   0.074  0.00  0.00    -0.272 N 
ATOM      3  C   LIG    1        2.932  -1.306   0.016  0.00  0.00    +0.241 C 
ATOM      4  O   LIG    1        2.303  -2.364  -0.094  0.00  0.00    -0.273 OA
ATOM      5  C   LIG    1        4.454  -1.309  -0.010  0.00  0.00    +0.238 C 
ATOM      6  N   LIG    1        4.960  -0.909   1.299  0.00  0.00    -0.273 NA
ATOM      7  C   LIG    1        4.813   0.323   1.653  0.00  0.00    +0.075 C 
ATOM      8  C   LIG    1        4.214   1.376   0.781  0.00  0.00    +0.023 A 
ATOM      9  C   LIG    1        4.894   2.605   0.705  0.00  0.00    +0.032 A 
ATOM     10  C   LIG    1        4.337   3.670   0.008  0.00  0.00    +0.042 A 
ATOM     11 CL   LIG    1        5.165   5.174  -0.068  0.00  0.00    -0.084 Cl
ATOM     12  C   LIG    1        3.106   3.526  -0.618  0.00  0.00    +0.022 A 
ATOM     13  C   LIG    1        2.440   2.297  -0.566  0.00  0.00    +0.025 A 
ATOM     14  C   LIG    1        2.990   1.189   0.107  0.00  0.00    +0.045 A 
ENDROOT
BRANCH   7  15
ATOM     15  C   LIG    1        5.284   0.703   3.025  0.00  0.00    +0.001 A 
ATOM     16  C   LIG    1        4.606   1.663   3.788  0.00  0.00    +0.010 A 
ATOM     17  C   LIG    1        5.069   1.994   5.064  0.00  0.00    +0.001 A 
ATOM     18  C   LIG    1        6.198   1.362   5.584  0.00  0.00    +0.000 A 
ATOM     19  C   LIG    1        6.863   0.392   4.836  0.00  0.00    +0.001 A 
ATOM     20  C   LIG    1        6.405   0.058   3.561  0.00  0.00    +0.010 A 
ENDBRANCH   7  15
TORSDOF 1
