REMARK  Name = *****
REMARK                            x       y       z     vdW  Elec       q    Type
REMARK                         _______ _______ _______ _____ _____    ______ ____
ROOT
ATOM      1  C   LIG    1        5.285  -0.435   2.533  0.00  0.00    +0.186 A 
ATOM      2  C   LIG    1        5.820   0.642   3.263  0.00  0.00    +0.151 A 
ATOM      3  N   LIG    1        6.556   0.428   4.381  0.00  0.00    -0.213 NA
ATOM      4  C   LIG    1        6.755  -0.856   4.751  0.00  0.00    +0.155 A 
ATOM      5  C   LIG    1        6.228  -1.914   3.993  0.00  0.00    +0.170 A 
ATOM      6 CL   LIG    1        6.463  -3.562   4.423  0.00  0.00    -0.058 Cl
ATOM      7  N   LIG    1        5.483  -1.739   2.883  0.00  0.00    -0.222 NA
ENDROOT
BRANCH   2   8
ATOM      8  N   LIG    1        5.558   1.983   2.992  0.00  0.00    -0.341 N 
ATOM      9  H   LIG    1        5.616   2.203   1.998  0.00  0.00    +0.144 HD
ATOM     10  H   LIG    1        6.141   2.571   3.580  0.00  0.00    +0.144 HD
ENDBRANCH   2   8
BRANCH   4  11
ATOM     11  N   LIG    1        7.549  -1.039   5.886  0.00  0.00    -0.341 N 
ATOM     12  H   LIG    1        7.732  -0.127   6.296  0.00  0.00    +0.144 HD
ATOM     13  H   LIG    1        7.133  -1.689   6.545  0.00  0.00    +0.144 HD
ENDBRANCH   4  11
BRANCH   1  14
ATOM     14  C   LIG    1        4.520  -0.192   1.272  0.00  0.00    +0.362 C 
ATOM     15  O   LIG    1        4.739   0.824   0.608  0.00  0.00    -0.246 OA
BRANCH  14  17
ATOM     16  C   LIG    1        3.299  -1.339  -0.297  0.00  0.00    +0.375 C 
ATOM     17  N   LIG    1        3.605  -1.165   0.939  0.00  0.00    +0.002 NA
BRANCH  16  18
ATOM     18  N   LIG    1        2.403  -2.288  -0.652  0.00  0.00    -0.291 N 
ATOM     19  H   LIG    1        2.197  -2.897   0.134  0.00  0.00    +0.255 HD
ATOM     20  H   LIG    1        2.705  -2.824  -1.456  0.00  0.00    +0.255 HD
ENDBRANCH  16  18
BRANCH  16  21
ATOM     21  N   LIG    1        3.759  -0.703  -1.399  0.00  0.00    -0.291 N 
ATOM     22  H   LIG    1        4.261   0.153  -1.158  0.00  0.00    +0.255 HD
ATOM     23  H   LIG    1        3.020  -0.498  -2.061  0.00  0.00    +0.255 HD
ENDBRANCH  16  21
ENDBRANCH  14  17
ENDBRANCH   1  14
TORSDOF 6
