REMARK  Name = *****
REMARK                            x       y       z     vdW  Elec       q    Type
REMARK                         _______ _______ _______ _____ _____    ______ ____
ROOT
ATOM      1  C   LIG    1       16.164   7.258 -11.885  0.00  0.00    +0.188 C 
ENDROOT
BRANCH   1   2
ATOM      2  O   LIG    1       16.012   8.168 -13.006  0.00  0.00    -0.375 OA
BRANCH   2   3
ATOM      3  C   LIG    1       16.731   9.415 -13.175  0.00  0.00    +0.188 C 
BRANCH   3   4
ATOM      4  C   LIG    1       15.993  10.899 -12.696  0.00  0.00    +0.188 C 
BRANCH   4   5
ATOM      5  O   LIG    1       15.533  10.927 -11.336  0.00  0.00    -0.375 OA
BRANCH   5   6
ATOM      6  C   LIG    1       15.445  12.048 -10.407  0.00  0.00    +0.188 C 
BRANCH   6   7
ATOM      7  C   LIG    1       14.006  12.495 -10.322  0.00  0.00    +0.188 C 
BRANCH   7   8
ATOM      8  O   LIG    1       13.591  13.037 -11.579  0.00  0.00    -0.375 OA
BRANCH   8   9
ATOM      9  C   LIG    1       12.206  13.387 -11.559  0.00  0.00    +0.188 C 
BRANCH   9  10
ATOM     10  C   LIG    1       11.651  14.036 -12.874  0.00  0.00    +0.188 C 
BRANCH  10  11
ATOM     11  O   LIG    1       12.271  15.275 -13.266  0.00  0.00    -0.375 OA
BRANCH  11  12
ATOM     12  C   LIG    1       11.776  15.910 -14.480  0.00  0.00    +0.188 C 
BRANCH  12  13
ATOM     13  C   LIG    1       10.283  16.303 -14.441  0.00  0.00    +0.188 C 
BRANCH  13  14
ATOM     14  O   LIG    1        9.825  17.001 -15.613  0.00  0.00    -0.375 OA
BRANCH  14  15
ATOM     15  C   LIG    1        8.401  17.295 -15.619  0.00  0.00    +0.188 C 
BRANCH  15  16
ATOM     16  C   LIG    1        7.520  16.013 -15.585  0.00  0.00    +0.188 C 
BRANCH  16  17
ATOM     17  O   LIG    1        6.095  16.121 -15.620  0.00  0.00    -0.375 OA
BRANCH  17  18
ATOM     18  C   LIG    1        5.408  16.224 -14.363  0.00  0.00    +0.187 C 
BRANCH  18  19
ATOM     19  C   LIG    1        5.530  17.650 -13.861  0.00  0.00    +0.184 C 
BRANCH  19  20
ATOM     20  O   LIG    1        5.007  18.571 -14.814  0.00  0.00    -0.393 OA
ATOM     21  H   LIG    1        5.707  18.723 -15.477  0.00  0.00    +0.209 HD
ENDBRANCH  19  20
ENDBRANCH  18  19
ENDBRANCH  17  18
ENDBRANCH  16  17
ENDBRANCH  15  16
ENDBRANCH  14  15
ENDBRANCH  13  14
ENDBRANCH  12  13
ENDBRANCH  11  12
ENDBRANCH  10  11
ENDBRANCH   9  10
ENDBRANCH   8   9
ENDBRANCH   7   8
ENDBRANCH   6   7
ENDBRANCH   5   6
ENDBRANCH   4   5
ENDBRANCH   3   4
ENDBRANCH   2   3
ENDBRANCH   1   2
BRANCH   1  22
ATOM     22  C   LIG    1       15.301   7.546 -10.645  0.00  0.00    +0.188 C 
BRANCH  22  23
ATOM     23  O   LIG    1       16.119   8.004  -9.532  0.00  0.00    -0.375 OA
BRANCH  23  24
ATOM     24  C   LIG    1       16.357   9.406  -9.592  0.00  0.00    +0.188 C 
BRANCH  24  25
ATOM     25  C   LIG    1       17.670   9.818 -10.391  0.00  0.00    +0.188 C 
BRANCH  25  26
ATOM     26  O   LIG    1       17.930  11.213 -10.735  0.00  0.00    -0.375 OA
BRANCH  26  27
ATOM     27  C   LIG    1       18.672  11.594 -11.936  0.00  0.00    +0.188 C 
BRANCH  27  28
ATOM     28  C   LIG    1       20.086  11.109 -11.871  0.00  0.00    +0.188 C 
BRANCH  28  29
ATOM     29  O   LIG    1       20.872  11.519 -12.954  0.00  0.00    -0.378 OA
BRANCH  29  30
ATOM     30  C   LIG    1       20.784  10.747 -14.155  0.00  0.00    +0.160 C 
BRANCH  30  31
ATOM     31  C   LIG    1       19.628  11.099 -15.119  0.00  0.00    +0.028 C 
BRANCH  31  32
ATOM     32  C   LIG    1       19.517  12.598 -15.481  0.00  0.00    +0.002 C 
BRANCH  32  33
ATOM     33  C   LIG    1       18.306  12.925 -16.384  0.00  0.00    +0.000 C 
BRANCH  33  34
ATOM     34  C   LIG    1       18.189  14.395 -16.886  0.00  0.00    -0.000 C 
BRANCH  34  35
ATOM     35  C   LIG    1       17.980  15.463 -15.803  0.00  0.00    -0.000 C 
BRANCH  35  36
ATOM     36  C   LIG    1       17.886  16.955 -16.224  0.00  0.00    -0.000 C 
BRANCH  36  37
ATOM     37  C   LIG    1       16.770  17.411 -17.194  0.00  0.00    -0.000 C 
BRANCH  37  38
ATOM     38  C   LIG    1       17.027  17.097 -18.685  0.00  0.00    -0.000 C 
BRANCH  38  39
ATOM     39  C   LIG    1       16.044  17.788 -19.655  0.00  0.00    -0.000 C 
BRANCH  39  41
ATOM     40  C   LIG    1       17.606  17.845 -21.729  0.00  0.00    +0.004 C 
ATOM     41  C   LIG    1       16.239  17.493 -21.159  0.00  0.00    -0.003 C 
ENDBRANCH  39  41
ENDBRANCH  38  39
ENDBRANCH  37  38
ENDBRANCH  36  37
ENDBRANCH  35  36
ENDBRANCH  34  35
ENDBRANCH  33  34
ENDBRANCH  32  33
ENDBRANCH  31  32
ENDBRANCH  30  31
ENDBRANCH  29  30
ENDBRANCH  28  29
ENDBRANCH  27  28
ENDBRANCH  26  27
ENDBRANCH  25  26
ENDBRANCH  24  25
ENDBRANCH  23  24
ENDBRANCH  22  23
ENDBRANCH   1  22
TORSDOF 38
