REMARK  Name = *****
REMARK                            x       y       z     vdW  Elec       q    Type
REMARK                         _______ _______ _______ _____ _____    ______ ____
ROOT
ATOM      1  C   LIG    1       -3.026  -2.612   5.080  0.00  0.00    +0.045 C 
ATOM      2  C   LIG    1       -2.567  -3.560   3.849  0.00  0.00    +0.083 C 
ATOM      3  N   LIG    1       -2.220  -4.913   4.251  0.00  0.00    -0.294 NA
ATOM      4  C   LIG    1       -0.826  -4.898   4.697  0.00  0.00    +0.086 C 
ATOM      5  C   LIG    1       -0.211  -3.599   4.078  0.00  0.00    +0.030 C 
ATOM      6  C   LIG    1       -3.248  -5.572   5.044  0.00  0.00    +0.112 C 
ATOM      7  C   LIG    1       -4.337  -4.667   5.591  0.00  0.00    -0.015 C 
ATOM      8  C   LIG    1       -1.313  -3.116   3.114  0.00  0.00    +0.037 C 
ATOM      9  C   LIG    1       -1.633  -1.680   2.606  0.00  0.00    +0.140 C 
ATOM     10  C   LIG    1       -2.276  -0.582   3.514  0.00  0.00    +0.220 C 
ATOM     11  N   LIG    1       -0.555  -1.389   1.634  0.00  0.00    -0.266 N 
ATOM     12  C   LIG    1        0.086  -0.208   1.351  0.00  0.00    +0.333 C 
ATOM     13  O   LIG    1        0.979  -0.007   0.537  0.00  0.00    -0.279 OA
ATOM     14  C   LIG    1       -0.273  -2.624   1.014  0.00  0.00    +0.044 A 
ATOM     15  C   LIG    1        0.476  -2.842  -0.118  0.00  0.00    +0.069 A 
ATOM     16  C   LIG    1        0.851  -4.151  -0.487  0.00  0.00    +0.127 A 
ATOM     17  C   LIG    1        0.391  -5.281   0.261  0.00  0.00    +0.017 A 
ATOM     18  C   LIG    1       -0.455  -4.999   1.383  0.00  0.00    +0.014 A 
ATOM     19  C   LIG    1       -0.789  -3.684   1.758  0.00  0.00    -0.016 A 
ATOM     20  C   LIG    1       -3.358  -1.174   4.505  0.00  0.00    +0.232 C 
ATOM     21  C   LIG    1       -4.277  -3.322   5.597  0.00  0.00    -0.018 C 
ENDROOT
BRANCH  17  22
ATOM     22  C   LIG    1        0.936  -6.755   0.014  0.00  0.00    +0.136 C 
ATOM     23  C   LIG    1        0.647  -7.339  -1.462  0.00  0.00    +0.042 C 
ATOM     24  C   LIG    1       -0.458  -7.424  -2.354  0.00  0.00    -0.017 C 
ATOM     25  C   LIG    1       -0.038  -8.211  -3.492  0.00  0.00    +0.003 C 
ATOM     26  C   LIG    1        1.257  -8.641  -3.261  0.00  0.00    +0.047 C 
ATOM     27  C   LIG    1        1.955  -9.474  -4.147  0.00  0.00    +0.026 C 
ATOM     28  C   LIG    1        1.305  -9.863  -5.322  0.00  0.00    +0.002 C 
ATOM     29  C   LIG    1        0.010  -9.437  -5.595  0.00  0.00    +0.001 C 
ATOM     30  C   LIG    1       -0.672  -8.618  -4.687  0.00  0.00    +0.010 C 
ATOM     31  C   LIG    1       -1.894  -6.898  -2.288  0.00  0.00    +0.053 C 
ATOM     32  C   LIG    1       -2.982  -7.918  -1.759  0.00  0.00    +0.089 C 
ATOM     33  N   LIG    1       -2.595  -8.632  -0.554  0.00  0.00    -0.299 NA
ATOM     34  C   LIG    1       -3.525  -9.472   0.188  0.00  0.00    +0.119 C 
ATOM     35  C   LIG    1       -2.751 -10.260   1.344  0.00  0.00    +0.079 C 
ATOM     36  C   LIG    1       -1.386  -9.623   1.850  0.00  0.00    +0.040 C 
ATOM     37  C   LIG    1       -0.772  -8.703   0.781  0.00  0.00    +0.007 C 
ATOM     38  C   LIG    1       -1.907  -7.793   0.393  0.00  0.00    +0.088 C 
ATOM     39  N   LIG    1        1.641  -8.107  -2.062  0.00  0.00    -0.356 NA
ATOM     40  H   LIG    1        2.553  -8.271  -1.650  0.00  0.00    +0.166 HD
ATOM     41  C   LIG    1        0.497  -7.902   1.095  0.00  0.00    +0.034 C 
BRANCH  22  42
ATOM     42  C   LIG    1        2.506  -6.748   0.307  0.00  0.00    +0.324 C 
ATOM     43  O   LIG    1        3.342  -7.422  -0.293  0.00  0.00    -0.249 OA
BRANCH  42  44
ATOM     44  O   LIG    1        2.802  -6.073   1.465  0.00  0.00    -0.467 OA
ATOM     45  C   LIG    1        4.158  -6.186   1.920  0.00  0.00    +0.280 C 
ENDBRANCH  42  44
ENDBRANCH  22  42
BRANCH  35  46
ATOM     46  C   LIG    1       -3.693 -10.538   2.540  0.00  0.00    +0.033 C 
ATOM     47  C   LIG    1       -4.259  -9.290   3.216  0.00  0.00    +0.007 C 
ENDBRANCH  35  46
BRANCH  35  48
ATOM     48  O   LIG    1       -2.393 -11.547   0.796  0.00  0.00    -0.387 OA
ATOM     49  H   LIG    1       -1.940 -11.362  -0.049  0.00  0.00    +0.210 HD
ENDBRANCH  35  48
ENDBRANCH  17  22
BRANCH   1  51
ATOM     50  C   LIG    1       -2.582  -1.841   7.653  0.00  0.00    +0.005 C 
ATOM     51  C   LIG    1       -2.100  -2.549   6.369  0.00  0.00    +0.013 C 
ENDBRANCH   1  51
BRANCH  10  52
ATOM     52  O   LIG    1       -1.248   0.073   4.253  0.00  0.00    -0.373 OA
ATOM     53  H   LIG    1       -1.214   0.995   3.922  0.00  0.00    +0.211 HD
ENDBRANCH  10  52
BRANCH  10  54
ATOM     54  C   LIG    1       -3.085   0.316   2.493  0.00  0.00    +0.345 C 
ATOM     55  O   LIG    1       -4.207   0.053   2.070  0.00  0.00    -0.247 OA
BRANCH  54  56
ATOM     56  O   LIG    1       -2.325   1.363   2.065  0.00  0.00    -0.466 OA
ATOM     57  C   LIG    1       -2.851   2.167   0.997  0.00  0.00    +0.280 C 
ENDBRANCH  54  56
ENDBRANCH  10  54
BRANCH  16  58
ATOM     58  O   LIG    1        1.718  -4.346  -1.541  0.00  0.00    -0.495 OA
ATOM     59  C   LIG    1        2.390  -3.166  -2.019  0.00  0.00    +0.277 C 
ENDBRANCH  16  58
BRANCH  20  60
ATOM     60  O   LIG    1       -3.638  -0.313   5.660  0.00  0.00    -0.457 OA
BRANCH  60  61
ATOM     61  C   LIG    1       -3.981   0.996   5.591  0.00  0.00    +0.304 C 
ATOM     62  O   LIG    1       -4.028   1.659   4.596  0.00  0.00    -0.251 OA
ATOM     63  C   LIG    1       -4.293   1.520   6.977  0.00  0.00    +0.136 C 
ENDBRANCH  60  61
ENDBRANCH  20  60
TORSDOF 12
