REMARK  Name = *****
REMARK                            x       y       z     vdW  Elec       q    Type
REMARK                         _______ _______ _______ _____ _____    ______ ____
ROOT
ATOM      1  C   LIG    1        8.938  -3.634   0.548  0.00  0.00    +0.190 C 
ENDROOT
BRANCH   1   2
ATOM      2  C   LIG    1        9.732  -4.982   0.479  0.00  0.00    +0.036 C 
ATOM      3  C   LIG    1        8.973  -6.151  -0.192  0.00  0.00    +0.007 C 
ATOM      4  C   LIG    1        9.094  -6.224  -1.709  0.00  0.00    +0.000 C 
ATOM      5  C   LIG    1       10.548  -6.223  -2.152  0.00  0.00    +0.000 C 
ATOM      6  C   LIG    1       11.280  -4.998  -1.625  0.00  0.00    +0.000 C 
ATOM      7  C   LIG    1       11.162  -4.855  -0.109  0.00  0.00    +0.007 C 
ENDBRANCH   1   2
BRANCH   1   8
ATOM      8  C   LIG    1        9.590  -2.517   1.381  0.00  0.00    -0.005 A 
ATOM      9  C   LIG    1        9.322  -1.156   1.131  0.00  0.00    +0.007 A 
ATOM     10  C   LIG    1        9.855  -0.151   1.946  0.00  0.00    +0.000 A 
ATOM     11  C   LIG    1       10.664  -0.480   3.029  0.00  0.00    +0.000 A 
ATOM     12  C   LIG    1       10.939  -1.814   3.301  0.00  0.00    +0.000 A 
ATOM     13  C   LIG    1       10.403  -2.819   2.493  0.00  0.00    +0.007 A 
ENDBRANCH   1   8
BRANCH   1  14
ATOM     14  C   LIG    1        7.564  -3.925   1.213  0.00  0.00    +0.344 C 
ATOM     15  O   LIG    1        7.389  -4.351   2.341  0.00  0.00    -0.247 OA
BRANCH  14  16
ATOM     16  O   LIG    1        6.504  -3.693   0.349  0.00  0.00    -0.457 OA
BRANCH  16  17
ATOM     17  C   LIG    1        5.205  -3.820   0.953  0.00  0.00    +0.283 C 
BRANCH  17  18
ATOM     18  C   LIG    1        4.779  -5.297   1.086  0.00  0.00    +0.174 C 
BRANCH  18  19
ATOM     19  N   LIG    1        3.386  -5.525   1.761  0.00  0.00    +0.243 N 
ATOM     20  C   LIG    1        2.284  -4.838   0.959  0.00  0.00    +0.192 C 
BRANCH  19  22
ATOM     21  C   LIG    1        3.123  -7.786   0.518  0.00  0.00    +0.060 C 
ATOM     22  C   LIG    1        3.114  -7.053   1.857  0.00  0.00    +0.129 C 
ENDBRANCH  19  22
BRANCH  19  23
ATOM     23  C   LIG    1        3.469  -4.931   3.198  0.00  0.00    +0.129 C 
ATOM     24  C   LIG    1        2.251  -5.176   4.075  0.00  0.00    +0.060 C 
ENDBRANCH  19  23
ENDBRANCH  18  19
ENDBRANCH  17  18
ENDBRANCH  16  17
ENDBRANCH  14  16
ENDBRANCH   1  14
BRANCH   1  25
ATOM     25  O   LIG    1        8.769  -3.166  -0.802  0.00  0.00    -0.373 OA
ATOM     26  H   LIG    1        7.947  -2.645  -0.833  0.00  0.00    +0.211 HD
ENDBRANCH   1  25
TORSDOF 10
