REMARK  Name = *****
REMARK                            x       y       z     vdW  Elec       q    Type
REMARK                         _______ _______ _______ _____ _____    ______ ____
ROOT
ATOM      1  C   LIG    1        7.513   2.022   1.693  0.00  0.00    +0.146 C 
ENDROOT
BRANCH   1   2
ATOM      2  C   LIG    1        7.970   3.421   2.213  0.00  0.00    -0.004 A 
ATOM      3  C   LIG    1        9.171   3.583   2.937  0.00  0.00    +0.007 A 
ATOM      4  C   LIG    1        9.621   4.840   3.372  0.00  0.00    +0.000 A 
ATOM      5  C   LIG    1        8.853   5.974   3.149  0.00  0.00    +0.000 A 
ATOM      6  C   LIG    1        7.651   5.848   2.467  0.00  0.00    +0.000 A 
ATOM      7  C   LIG    1        7.224   4.595   2.000  0.00  0.00    +0.007 A 
ENDBRANCH   1   2
BRANCH   1   8
ATOM      8  C   LIG    1        7.254   0.991   2.926  0.00  0.00    +0.049 C 
ATOM      9  C   LIG    1        6.917  -0.438   2.442  0.00  0.00    +0.013 C 
BRANCH   8  10
ATOM     10  C   LIG    1        6.133   1.437   3.963  0.00  0.00    +0.091 C 
BRANCH  10  11
ATOM     11  N   LIG    1        6.028   0.700   5.267  0.00  0.00    -0.308 NA
ATOM     12  C   LIG    1        5.750  -0.735   5.192  0.00  0.00    +0.104 C 
ATOM     13  C   LIG    1        4.990   1.288   6.131  0.00  0.00    +0.104 C 
ENDBRANCH  10  11
ENDBRANCH   8  10
ENDBRANCH   1   8
BRANCH   1  14
ATOM     14  O   LIG    1        6.159   2.097   1.060  0.00  0.00    -0.453 OA
BRANCH  14  15
ATOM     15  C   LIG    1        5.828   2.751  -0.109  0.00  0.00    +0.308 C 
ATOM     16  O   LIG    1        6.581   3.297  -0.883  0.00  0.00    -0.251 OA
BRANCH  15  18
ATOM     17  C   LIG    1        3.886   1.962  -1.480  0.00  0.00    +0.015 C 
ATOM     18  C   LIG    1        4.310   2.756  -0.261  0.00  0.00    +0.117 C 
ENDBRANCH  15  18
ENDBRANCH  14  15
ENDBRANCH   1  14
BRANCH   1  19
ATOM     19  C   LIG    1        8.570   1.435   0.644  0.00  0.00    +0.088 C 
BRANCH  19  20
ATOM     20  C   LIG    1       10.039   1.181   1.003  0.00  0.00    -0.043 A 
ATOM     21  C   LIG    1       11.021   2.131   0.661  0.00  0.00    +0.004 A 
ATOM     22  C   LIG    1       12.385   1.885   0.871  0.00  0.00    +0.000 A 
ATOM     23  C   LIG    1       12.801   0.677   1.422  0.00  0.00    +0.000 A 
ATOM     24  C   LIG    1       11.847  -0.270   1.786  0.00  0.00    +0.000 A 
ATOM     25  C   LIG    1       10.479  -0.021   1.581  0.00  0.00    +0.004 A 
ENDBRANCH  19  20
ENDBRANCH   1  19
TORSDOF 9
