REMARK  Name = *****
REMARK                            x       y       z     vdW  Elec       q    Type
REMARK                         _______ _______ _______ _____ _____    ______ ____
ROOT
ATOM      1  C   LIG    1        6.383   2.495  -1.780  0.00  0.00    +0.234 C 
ATOM      2  N   LIG    1        7.334   1.480  -1.697  0.00  0.00    -0.284 N 
ATOM      3  H   LIG    1        7.000   0.560  -1.952  0.00  0.00    +0.155 HD
ATOM      4  O   LIG    1        6.577   3.691  -1.567  0.00  0.00    -0.274 OA
ENDROOT
BRANCH   2   5
ATOM      5  C   LIG    1        8.716   1.608  -1.402  0.00  0.00    +0.036 A 
ATOM      6  C   LIG    1        9.586   0.530  -1.667  0.00  0.00    -0.029 A 
ATOM      7  C   LIG    1        9.114  -0.773  -2.257  0.00  0.00    +0.045 C 
ATOM      8  C   LIG    1       10.973   0.676  -1.430  0.00  0.00    +0.005 A 
ATOM      9  C   LIG    1       11.487   1.863  -0.915  0.00  0.00    +0.000 A 
ATOM     10  C   LIG    1       10.625   2.910  -0.617  0.00  0.00    +0.002 A 
ATOM     11  C   LIG    1        9.255   2.782  -0.856  0.00  0.00    +0.023 A 
ENDBRANCH   2   5
BRANCH   1  12
ATOM     12  C   LIG    1        5.002   1.973  -2.258  0.00  0.00    +0.138 C 
ATOM     13  C   LIG    1        4.081   3.097  -2.748  0.00  0.00    +0.034 C 
BRANCH  12  14
ATOM     14  N   LIG    1        4.379   1.079  -1.244  0.00  0.00    -0.306 NA
ATOM     15  H   LIG    1        3.555   0.647  -1.664  0.00  0.00    +0.123 HD
BRANCH  14  16
ATOM     16  C   LIG    1        3.953   1.791  -0.030  0.00  0.00    +0.081 C 
BRANCH  16  18
ATOM     17  C   LIG    1        2.862   1.580   2.232  0.00  0.00    +0.005 C 
ATOM     18  C   LIG    1        3.281   0.838   0.967  0.00  0.00    +0.012 C 
ENDBRANCH  16  18
ENDBRANCH  14  16
ENDBRANCH  12  14
ENDBRANCH   1  12
TORSDOF 5
