REMARK  Name = *****
REMARK                            x       y       z     vdW  Elec       q    Type
REMARK                         _______ _______ _______ _____ _____    ______ ____
ROOT
ATOM      1  C   LIG    1        1.605   0.245   0.011  0.00  0.00    +0.036 C 
ATOM      2  C   LIG    1        1.975  -1.217   0.259  0.00  0.00    +0.140 C 
ENDROOT
BRANCH   2   3
ATOM      3  C   LIG    1        1.778  -1.599   1.713  0.00  0.00    +0.013 A 
ATOM      4  S   LIG    1        3.119  -2.122   2.640  0.00  0.00    -0.091 S 
ATOM      5  C   LIG    1        2.168  -2.358   4.055  0.00  0.00    +0.020 A 
ATOM      6  C   LIG    1        0.832  -2.023   3.832  0.00  0.00    -0.011 A 
ATOM      7  C   LIG    1       -0.083  -2.171   4.903  0.00  0.00    +0.009 A 
ATOM      8  C   LIG    1        0.349  -2.653   6.143  0.00  0.00    +0.001 A 
ATOM      9  C   LIG    1        1.684  -2.977   6.341  0.00  0.00    +0.001 A 
ATOM     10  C   LIG    1        2.611  -2.827   5.308  0.00  0.00    +0.015 A 
ATOM     11  C   LIG    1        0.631  -1.570   2.484  0.00  0.00    +0.021 A 
ENDBRANCH   2   3
BRANCH   2  12
ATOM     12  N   LIG    1        1.227  -2.148  -0.605  0.00  0.00    -0.160 N 
ATOM     13  C   LIG    1        1.707  -2.608  -1.813  0.00  0.00    +0.323 C 
ATOM     14  O   LIG    1        2.873  -2.535  -2.180  0.00  0.00    -0.251 OA
ATOM     15  N   LIG    1        0.767  -3.230  -2.584  0.00  0.00    -0.312 N 
ATOM     16  H   LIG    1        1.067  -3.482  -3.511  0.00  0.00    +0.146 HD
ATOM     17  H   LIG    1       -0.172  -2.877  -2.474  0.00  0.00    +0.146 HD
BRANCH  12  18
ATOM     18  O   LIG    1       -0.185  -2.077  -0.475  0.00  0.00    -0.291 OA
ATOM     19  H   LIG    1       -0.340  -2.871   0.072  0.00  0.00    +0.242 HD
ENDBRANCH  12  18
ENDBRANCH   2  12
TORSDOF 3
