REMARK  Name = *****
REMARK                            x       y       z     vdW  Elec       q    Type
REMARK                         _______ _______ _______ _____ _____    ______ ____
ROOT
ATOM      1  C   LIG    1       -2.361   3.221 -20.623  0.00  0.00    +0.007 C 
ENDROOT
BRANCH   1   2
ATOM      2  C   LIG    1       -1.045   3.037 -19.853  0.00  0.00    +0.041 C 
BRANCH   2   3
ATOM      3  C   LIG    1       -0.762   4.054 -18.742  0.00  0.00    +0.232 C 
BRANCH   3   4
ATOM      4  O   LIG    1       -0.885   5.368 -19.331  0.00  0.00    -0.465 OA
BRANCH   4   5
ATOM      5  C   LIG    1       -1.781   6.225 -18.861  0.00  0.00    +0.312 C 
ATOM      6  O   LIG    1       -2.141   6.340 -17.639  0.00  0.00    -0.251 OA
BRANCH   5   7
ATOM      7  C   LIG    1       -2.533   6.867 -20.006  0.00  0.00    +0.171 C 
BRANCH   7   8
ATOM      8  C   LIG    1       -1.706   6.890 -21.288  0.00  0.00    +0.145 C 
BRANCH   8   9
ATOM      9  N   LIG    1       -2.492   7.413 -22.533  0.00  0.00    +0.247 N 
ATOM     10  C   LIG    1       -2.872   8.847 -22.148  0.00  0.00    +0.193 C 
ATOM     11  C   LIG    1       -3.742   6.499 -22.969  0.00  0.00    +0.102 C 
ATOM     12  C   LIG    1       -3.320   5.145 -23.532  0.00  0.00    +0.008 A 
ATOM     13  C   LIG    1       -2.179   5.060 -24.314  0.00  0.00    -0.030 A 
ATOM     14  C   LIG    1       -1.974   3.917 -25.094  0.00  0.00    +0.053 A 
ATOM     15  C   LIG    1       -2.807   2.787 -25.040  0.00  0.00    +0.162 A 
ATOM     16  C   LIG    1       -3.914   2.825 -24.181  0.00  0.00    +0.162 A 
ATOM     17  C   LIG    1       -1.117   6.120 -24.302  0.00  0.00    +0.086 C 
ATOM     18  C   LIG    1       -4.161   4.010 -23.457  0.00  0.00    +0.059 A 
ATOM     19  C   LIG    1       -1.539   7.485 -23.754  0.00  0.00    +0.138 C 
BRANCH  15  20
ATOM     20  O   LIG    1       -2.587   1.718 -25.863  0.00  0.00    -0.491 OA
ATOM     21  C   LIG    1       -1.235   1.457 -26.266  0.00  0.00    +0.277 C 
ENDBRANCH  15  20
BRANCH  16  22
ATOM     22  O   LIG    1       -4.904   1.891 -24.015  0.00  0.00    -0.491 OA
ATOM     23  C   LIG    1       -4.553   0.518 -23.876  0.00  0.00    +0.277 C 
ENDBRANCH  16  22
BRANCH  11  24
ATOM     24  C   LIG    1       -4.625   7.205 -24.069  0.00  0.00    +0.095 C 
BRANCH  24  25
ATOM     25  C   LIG    1       -5.894   6.453 -24.429  0.00  0.00    -0.038 A 
ATOM     26  C   LIG    1       -6.154   6.003 -25.737  0.00  0.00    +0.053 A 
ATOM     27  C   LIG    1       -7.300   5.237 -26.050  0.00  0.00    +0.162 A 
ATOM     28  C   LIG    1       -8.186   4.888 -25.018  0.00  0.00    +0.162 A 
ATOM     29  C   LIG    1       -7.909   5.345 -23.721  0.00  0.00    +0.050 A 
ATOM     30  C   LIG    1       -6.815   6.151 -23.435  0.00  0.00    +0.007 A 
BRANCH  28  31
ATOM     31  O   LIG    1       -9.304   4.130 -25.261  0.00  0.00    -0.491 OA
ATOM     32  C   LIG    1      -10.289   4.118 -24.225  0.00  0.00    +0.277 C 
ENDBRANCH  28  31
BRANCH  27  33
ATOM     33  O   LIG    1       -7.431   5.021 -27.397  0.00  0.00    -0.491 OA
ATOM     34  C   LIG    1       -8.062   3.834 -27.854  0.00  0.00    +0.277 C 
ENDBRANCH  27  33
ENDBRANCH  24  25
ENDBRANCH  11  24
ENDBRANCH   8   9
ENDBRANCH   7   8
ENDBRANCH   5   7
ENDBRANCH   4   5
ENDBRANCH   3   4
ENDBRANCH   2   3
ENDBRANCH   1   2
BRANCH   1  35
ATOM     35  C   LIG    1       -3.681   3.060 -19.867  0.00  0.00    +0.041 C 
BRANCH  35  36
ATOM     36  C   LIG    1       -3.983   4.050 -18.754  0.00  0.00    +0.232 C 
BRANCH  36  37
ATOM     37  O   LIG    1       -5.298   3.880 -18.246  0.00  0.00    -0.465 OA
BRANCH  37  38
ATOM     38  C   LIG    1       -5.306   3.197 -17.067  0.00  0.00    +0.312 C 
ATOM     39  O   LIG    1       -4.362   2.692 -16.526  0.00  0.00    -0.251 OA
BRANCH  38  40
ATOM     40  C   LIG    1       -6.737   3.005 -16.635  0.00  0.00    +0.171 C 
BRANCH  40  41
ATOM     41  C   LIG    1       -7.585   2.171 -17.608  0.00  0.00    +0.145 C 
BRANCH  41  43
ATOM     42  C   LIG    1       -8.146  -0.022 -18.852  0.00  0.00    +0.102 C 
ATOM     43  N   LIG    1       -7.179   0.662 -17.793  0.00  0.00    +0.247 N 
ATOM     44  C   LIG    1       -5.781   0.583 -18.366  0.00  0.00    +0.193 C 
ATOM     45  C   LIG    1       -7.228  -0.119 -16.464  0.00  0.00    +0.138 C 
ATOM     46  C   LIG    1       -8.634  -0.409 -15.918  0.00  0.00    +0.086 C 
ATOM     47  C   LIG    1       -9.745  -0.500 -16.927  0.00  0.00    -0.030 A 
ATOM     48  C   LIG    1      -11.057  -0.792 -16.506  0.00  0.00    +0.053 A 
ATOM     49  C   LIG    1      -12.144  -0.730 -17.399  0.00  0.00    +0.162 A 
ATOM     50  C   LIG    1      -11.913  -0.374 -18.733  0.00  0.00    +0.162 A 
ATOM     51  C   LIG    1      -10.620  -0.048 -19.132  0.00  0.00    +0.059 A 
ATOM     52  C   LIG    1       -9.527  -0.178 -18.268  0.00  0.00    +0.008 A 
BRANCH  50  53
ATOM     53  O   LIG    1      -12.962  -0.356 -19.602  0.00  0.00    -0.491 OA
ATOM     54  C   LIG    1      -12.701  -0.487 -20.989  0.00  0.00    +0.277 C 
ENDBRANCH  50  53
BRANCH  49  55
ATOM     55  O   LIG    1      -13.354  -1.064 -16.852  0.00  0.00    -0.491 OA
ATOM     56  C   LIG    1      -14.535  -0.495 -17.420  0.00  0.00    +0.277 C 
ENDBRANCH  49  55
BRANCH  42  57
ATOM     57  C   LIG    1       -7.556  -1.374 -19.435  0.00  0.00    +0.095 C 
BRANCH  57  61
ATOM     58  C   LIG    1       -9.518  -3.747 -22.576  0.00  0.00    +0.162 A 
ATOM     59  C   LIG    1       -8.229  -3.235 -22.795  0.00  0.00    +0.162 A 
ATOM     60  C   LIG    1       -7.640  -2.398 -21.793  0.00  0.00    +0.053 A 
ATOM     61  C   LIG    1       -8.270  -2.094 -20.572  0.00  0.00    -0.038 A 
ATOM     62  C   LIG    1       -9.530  -2.638 -20.383  0.00  0.00    +0.007 A 
ATOM     63  C   LIG    1      -10.148  -3.406 -21.370  0.00  0.00    +0.050 A 
BRANCH  58  65
ATOM     64  C   LIG    1      -10.028  -5.586 -24.110  0.00  0.00    +0.277 C 
ATOM     65  O   LIG    1      -10.398  -4.445 -23.354  0.00  0.00    -0.491 OA
ENDBRANCH  58  65
BRANCH  59  66
ATOM     66  O   LIG    1       -7.360  -3.346 -23.849  0.00  0.00    -0.491 OA
ATOM     67  C   LIG    1       -7.712  -4.130 -24.966  0.00  0.00    +0.277 C 
ENDBRANCH  59  66
ENDBRANCH  57  61
ENDBRANCH  42  57
ENDBRANCH  41  43
ENDBRANCH  40  41
ENDBRANCH  38  40
ENDBRANCH  37  38
ENDBRANCH  36  37
ENDBRANCH  35  36
ENDBRANCH   1  35
TORSDOF 26
