REMARK  Name = *****
REMARK                            x       y       z     vdW  Elec       q    Type
REMARK                         _______ _______ _______ _____ _____    ______ ____
ROOT
ATOM      1  C   LIG    1        3.206  -0.945   2.400  0.00  0.00    -0.003 C 
ENDROOT
BRANCH   1   2
ATOM      2  C   LIG    1        3.575  -0.584   3.917  0.00  0.00    -0.008 C 
ATOM      3  C   LIG    1        2.883   0.627   4.580  0.00  0.00    +0.004 C 
ATOM      4  C   LIG    1        1.408   0.392   4.885  0.00  0.00    +0.000 C 
ATOM      5  C   LIG    1        1.279  -0.721   5.913  0.00  0.00    +0.000 C 
ATOM      6  C   LIG    1        1.969  -1.991   5.424  0.00  0.00    +0.000 C 
ATOM      7  C   LIG    1        3.407  -1.742   4.950  0.00  0.00    +0.004 C 
ENDBRANCH   1   2
BRANCH   1   8
ATOM      8  C   LIG    1        4.056  -2.224   1.917  0.00  0.00    -0.008 C 
ATOM      9  C   LIG    1        3.493  -3.031   0.725  0.00  0.00    +0.004 C 
ATOM     10  C   LIG    1        4.056  -2.723  -0.660  0.00  0.00    +0.000 C 
ATOM     11  C   LIG    1        5.570  -2.576  -0.689  0.00  0.00    +0.000 C 
ATOM     12  C   LIG    1        6.079  -1.636   0.391  0.00  0.00    +0.000 C 
ATOM     13  C   LIG    1        5.581  -2.019   1.783  0.00  0.00    +0.004 C 
ENDBRANCH   1   8
BRANCH   1  14
ATOM     14  C   LIG    1        3.388   0.227   1.365  0.00  0.00    +0.022 C 
BRANCH  14  15
ATOM     15  C   LIG    1        2.520   1.509   1.452  0.00  0.00    +0.054 C 
ATOM     16  N   LIG    1        1.081   1.212   1.419  0.00  0.00    -0.313 NA
ATOM     17  H   LIG    1        0.835   0.840   0.510  0.00  0.00    +0.122 HD
ATOM     18  C   LIG    1        0.294   2.428   1.676  0.00  0.00    +0.081 C 
ATOM     19  C   LIG    1        0.591   3.533   0.667  0.00  0.00    +0.015 C 
ATOM     20  C   LIG    1        2.081   3.829   0.580  0.00  0.00    +0.003 C 
ATOM     21  C   LIG    1        2.872   2.533   0.354  0.00  0.00    +0.019 C 
ENDBRANCH  14  15
ENDBRANCH   1  14
TORSDOF 4
