REMARK  Name = *****
REMARK                            x       y       z     vdW  Elec       q    Type
REMARK                         _______ _______ _______ _____ _____    ______ ____
ROOT
ATOM      1  C   LIG    1        2.995  -1.721  -0.686  0.00  0.00    +0.044 C 
ATOM      2  C   LIG    1        2.861  -0.401   0.027  0.00  0.00    -0.050 C 
ATOM      3  C   LIG    1        2.292  -0.182   1.225  0.00  0.00    +0.003 C 
ENDROOT
BRANCH   2   4
ATOM      4  C   LIG    1        3.409   0.732  -0.696  0.00  0.00    +0.003 C 
ATOM      5  C   LIG    1        4.428   1.472  -0.232  0.00  0.00    +0.004 C 
BRANCH   5   6
ATOM      6  C   LIG    1        5.028   2.582  -0.960  0.00  0.00    -0.043 C 
ATOM      7  C   LIG    1        5.019   3.950  -0.231  0.00  0.00    -0.010 C 
ATOM      8  C   LIG    1        3.621   4.317   0.325  0.00  0.00    +0.016 C 
ATOM      9  C   LIG    1        6.009   3.929   0.957  0.00  0.00    +0.016 C 
ATOM     10  C   LIG    1        5.411   5.098  -1.200  0.00  0.00    +0.011 C 
ATOM     11  C   LIG    1        6.610   4.739  -2.060  0.00  0.00    +0.005 C 
ATOM     12  C   LIG    1        6.292   3.525  -2.919  0.00  0.00    +0.031 C 
ATOM     13  C   LIG    1        5.602   2.402  -2.177  0.00  0.00    -0.069 C 
ATOM     14  C   LIG    1        5.663   1.100  -2.948  0.00  0.00    +0.039 C 
ENDBRANCH   5   6
ENDBRANCH   2   4
BRANCH   3  15
ATOM     15  C   LIG    1        1.719  -1.181   2.087  0.00  0.00    +0.001 C 
ATOM     16  C   LIG    1        1.127  -0.870   3.250  0.00  0.00    +0.003 C 
BRANCH  16  17
ATOM     17  C   LIG    1        0.549  -1.857   4.135  0.00  0.00    -0.044 C 
ATOM     18  C   LIG    1        0.654  -1.850   5.480  0.00  0.00    +0.094 C 
ATOM     19  C   LIG    1       -0.287  -2.933   3.474  0.00  0.00    +0.044 C 
BRANCH  18  20
ATOM     20  C   LIG    1        1.365  -0.982   6.440  0.00  0.00    +0.330 C 
ATOM     21  O   LIG    1        1.179  -1.111   7.651  0.00  0.00    -0.246 OA
BRANCH  20  22
ATOM     22  O   LIG    1        2.213  -0.074   5.949  0.00  0.00    -0.477 OA
ATOM     23  H   LIG    1        2.447  -0.207   5.013  0.00  0.00    +0.295 HD
ENDBRANCH  20  22
ENDBRANCH  18  20
ENDBRANCH  16  17
ENDBRANCH   3  15
TORSDOF 6
