REMARK  Name = *****
REMARK                            x       y       z     vdW  Elec       q    Type
REMARK                         _______ _______ _______ _____ _____    ______ ____
ROOT
ATOM      1  C   LIG    1        2.691  -0.926  -0.616  0.00  0.00    +0.148 C 
ATOM      2  C   LIG    1        3.925  -1.512   0.086  0.00  0.00    +0.240 C 
ATOM      3  O   LIG    1        4.686  -0.862   0.804  0.00  0.00    -0.274 OA
ATOM      4  N   LIG    1        4.202  -2.828  -0.167  0.00  0.00    -0.239 N 
ATOM      5  H   LIG    1        5.028  -3.196   0.286  0.00  0.00    +0.159 HD
ATOM      6  C   LIG    1        3.268  -3.756  -0.495  0.00  0.00    +0.312 C 
ATOM      7  O   LIG    1        3.466  -4.953  -0.312  0.00  0.00    -0.252 OA
ATOM      8  N   LIG    1        2.065  -3.296  -0.923  0.00  0.00    -0.239 N 
ATOM      9  H   LIG    1        1.348  -4.002  -1.019  0.00  0.00    +0.159 HD
ATOM     10  C   LIG    1        1.617  -2.017  -0.737  0.00  0.00    +0.240 C 
ATOM     11  O   LIG    1        0.405  -1.798  -0.729  0.00  0.00    -0.274 OA
ENDROOT
BRANCH   1  12
ATOM     12  C   LIG    1        3.076  -0.382  -2.021  0.00  0.00    -0.024 A 
ATOM     13  C   LIG    1        2.145  -0.359  -3.078  0.00  0.00    +0.005 A 
ATOM     14  C   LIG    1        2.484   0.163  -4.330  0.00  0.00    +0.000 A 
ATOM     15  C   LIG    1        3.753   0.688  -4.550  0.00  0.00    +0.000 A 
ATOM     16  C   LIG    1        4.681   0.702  -3.514  0.00  0.00    +0.000 A 
ATOM     17  C   LIG    1        4.345   0.182  -2.261  0.00  0.00    +0.005 A 
ENDBRANCH   1  12
BRANCH   1  19
ATOM     18  C   LIG    1        1.698  -0.047   1.621  0.00  0.00    +0.005 C 
ATOM     19  C   LIG    1        2.137   0.281   0.194  0.00  0.00    +0.027 C 
ENDBRANCH   1  19
TORSDOF 2
