REMARK  Name = *****
REMARK                            x       y       z     vdW  Elec       q    Type
REMARK                         _______ _______ _______ _____ _____    ______ ____
ROOT
ATOM      1  C   LIG    1       12.791  -5.797   2.212  0.00  0.00    +0.189 C 
ATOM      2  C   LIG    1       12.963  -4.529   1.232  0.00  0.00    +0.022 C 
ATOM      3  C   LIG    1       13.469  -3.423   2.207  0.00  0.00    +0.006 C 
ATOM      4  C   LIG    1       12.362  -2.522   2.837  0.00  0.00    +0.037 C 
ATOM      5  C   LIG    1       11.470  -1.866   1.762  0.00  0.00    +0.153 C 
ATOM      6  C   LIG    1       10.775  -3.020   0.991  0.00  0.00    +0.154 C 
ATOM      7  F   LIG    1       12.347  -1.272   0.872  0.00  0.00    -0.238 F 
ATOM      8  C   LIG    1       10.490  -0.688   2.285  0.00  0.00    +0.047 C 
ATOM      9  C   LIG    1       10.996   0.042   3.560  0.00  0.00    -0.020 C 
ATOM     10  C   LIG    1       10.189   0.940   4.177  0.00  0.00    +0.054 C 
ATOM     11  C   LIG    1        8.916   0.253   4.613  0.00  0.00    +0.179 C 
ATOM     12  C   LIG    1        8.337  -0.718   3.643  0.00  0.00    +0.047 C 
ATOM     13  O   LIG    1        8.337   0.566   5.644  0.00  0.00    -0.288 OA
ATOM     14  C   LIG    1       11.908  -0.719   4.480  0.00  0.00    +0.194 C 
ATOM     15  F   LIG    1       11.196  -1.646   5.183  0.00  0.00    -0.241 F 
ATOM     16  C   LIG    1       10.380   0.389   1.162  0.00  0.00    +0.023 C 
ATOM     17  C   LIG    1        9.045  -1.125   2.574  0.00  0.00    -0.009 C 
ATOM     18  C   LIG    1       12.998  -1.445   3.725  0.00  0.00    +0.048 C 
ATOM     19  C   LIG    1       14.259  -4.181   3.299  0.00  0.00    +0.012 C 
ATOM     20  C   LIG    1       14.075  -4.783   0.159  0.00  0.00    +0.016 C 
ATOM     21  C   LIG    1       11.740  -4.058   0.402  0.00  0.00    +0.046 C 
ATOM     22  C   LIG    1       14.126  -5.684   3.022  0.00  0.00    +0.039 C 
ATOM     23  C   LIG    1       14.346  -6.463   4.317  0.00  0.00    +0.012 C 
ENDROOT
BRANCH   6  24
ATOM     24  O   LIG    1        9.996  -2.509  -0.101  0.00  0.00    -0.389 OA
ATOM     25  H   LIG    1       10.610  -2.051  -0.707  0.00  0.00    +0.210 HD
ENDBRANCH   6  24
BRANCH   1  26
ATOM     26  C   LIG    1       12.545  -7.127   1.413  0.00  0.00    +0.236 C 
ATOM     27  O   LIG    1       11.418  -7.494   1.087  0.00  0.00    -0.281 OA
BRANCH  26  28
ATOM     28  S   LIG    1       13.954  -8.074   0.923  0.00  0.00    -0.051 S 
BRANCH  28  29
ATOM     29  C   LIG    1       13.124  -9.421   0.064  0.00  0.00    +0.290 C 
ATOM     30  F   LIG    1       14.068 -10.267  -0.438  0.00  0.00    -0.237 F 
ENDBRANCH  28  29
ENDBRANCH  26  28
ENDBRANCH   1  26
BRANCH   1  31
ATOM     31  O   LIG    1       11.642  -5.507   3.064  0.00  0.00    -0.449 OA
BRANCH  31  32
ATOM     32  C   LIG    1       11.238  -6.464   3.950  0.00  0.00    +0.308 C 
ATOM     33  O   LIG    1       11.773  -7.542   4.105  0.00  0.00    -0.251 OA
BRANCH  32  35
ATOM     34  C   LIG    1        8.908  -7.046   4.442  0.00  0.00    +0.015 C 
ATOM     35  C   LIG    1       10.009  -6.037   4.715  0.00  0.00    +0.117 C 
ENDBRANCH  32  35
ENDBRANCH  31  32
ENDBRANCH   1  31
TORSDOF 7
