REMARK  Name = *****
REMARK                            x       y       z     vdW  Elec       q    Type
REMARK                         _______ _______ _______ _____ _____    ______ ____
ROOT
ATOM      1  C   LIG    1        1.658   4.585   0.963  0.00  0.00    +0.035 C 
ATOM      2  N   LIG    1        1.412   5.969   0.990  0.00  0.00    -0.342 NA
ATOM      3  C   LIG    1        0.592   6.318   2.142  0.00  0.00    +0.058 C 
ATOM      4  C   LIG    1        0.863   5.275   3.096  0.00  0.00    +0.020 C 
ATOM      5  C   LIG    1        1.421   4.104   2.291  0.00  0.00    +0.066 C 
ENDROOT
BRANCH   3   6
ATOM      6  C   LIG    1       -0.374   7.562   2.232  0.00  0.00    -0.001 C 
ATOM      7  C   LIG    1       -0.325   8.708   1.396  0.00  0.00    +0.013 C 
ATOM      8  C   LIG    1       -1.257   9.765   1.418  0.00  0.00    +0.039 C 
ATOM      9  C   LIG    1       -2.316   9.718   2.289  0.00  0.00    +0.123 C 
ATOM     10  F   LIG    1       -3.236  10.692   2.270  0.00  0.00    -0.205 F 
ATOM     11  C   LIG    1       -2.421   8.653   3.163  0.00  0.00    +0.039 C 
ATOM     12  C   LIG    1       -1.466   7.599   3.135  0.00  0.00    +0.013 C 
ENDBRANCH   3   6
BRANCH   4  13
ATOM     13  C   LIG    1        0.483   5.391   4.582  0.00  0.00    -0.015 C 
ATOM     14  C   LIG    1        0.606   6.595   5.310  0.00  0.00    +0.008 C 
ATOM     15  C   LIG    1        0.201   6.695   6.671  0.00  0.00    +0.001 C 
ATOM     16  C   LIG    1       -0.278   5.588   7.372  0.00  0.00    +0.000 C 
ATOM     17  C   LIG    1       -0.347   4.382   6.713  0.00  0.00    +0.001 C 
ATOM     18  C   LIG    1       -0.034   4.318   5.345  0.00  0.00    +0.008 C 
ENDBRANCH   4  13
BRANCH   5  19
ATOM     19  C   LIG    1        1.667   2.665   2.720  0.00  0.00    +0.251 C 
ATOM     20  N   LIG    1        1.664   2.430   4.028  0.00  0.00    -0.281 N 
ATOM     21  H   LIG    1        1.653   3.302   4.582  0.00  0.00    +0.155 HD
ATOM     22  O   LIG    1        1.914   1.728   1.870  0.00  0.00    -0.270 OA
BRANCH  20  23
ATOM     23  C   LIG    1        1.690   1.270   4.855  0.00  0.00    +0.034 C 
ATOM     24  C   LIG    1        2.765   1.130   5.731  0.00  0.00    +0.023 C 
ATOM     25  C   LIG    1        2.773   0.140   6.723  0.00  0.00    +0.002 C 
ATOM     26  C   LIG    1        1.643  -0.641   6.940  0.00  0.00    +0.000 C 
ATOM     27  C   LIG    1        0.521  -0.450   6.136  0.00  0.00    +0.002 C 
ATOM     28  C   LIG    1        0.549   0.485   5.076  0.00  0.00    +0.023 C 
ENDBRANCH  20  23
ENDBRANCH   5  19
BRANCH   1  30
ATOM     29  C   LIG    1        1.990   4.364  -1.677  0.00  0.00    +0.014 C 
ATOM     30  C   LIG    1        2.072   3.711  -0.294  0.00  0.00    +0.030 C 
ATOM     31  C   LIG    1        3.491   3.106  -0.232  0.00  0.00    +0.014 C 
ENDBRANCH   1  30
BRANCH   2  32
ATOM     32  C   LIG    1        1.776   6.966  -0.030  0.00  0.00    +0.124 C 
BRANCH  32  33
ATOM     33  C   LIG    1        3.174   7.231  -0.646  0.00  0.00    +0.053 C 
BRANCH  33  34
ATOM     34  C   LIG    1        3.217   8.405  -1.718  0.00  0.00    +0.119 C 
BRANCH  34  35
ATOM     35  O   LIG    1        4.556   8.460  -2.205  0.00  0.00    -0.392 OA
ATOM     36  H   LIG    1        4.550   8.458  -3.181  0.00  0.00    +0.210 HD
ENDBRANCH  34  35
BRANCH  34  37
ATOM     37  C   LIG    1        2.214   8.261  -2.892  0.00  0.00    +0.063 C 
BRANCH  37  38
ATOM     38  C   LIG    1        2.125   9.255  -4.106  0.00  0.00    +0.128 C 
BRANCH  38  39
ATOM     39  O   LIG    1        3.134   8.882  -5.046  0.00  0.00    -0.391 OA
ATOM     40  H   LIG    1        2.721   8.739  -5.918  0.00  0.00    +0.210 HD
ENDBRANCH  38  39
BRANCH  38  41
ATOM     41  C   LIG    1        2.132  10.786  -3.938  0.00  0.00    +0.151 C 
BRANCH  41  42
ATOM     42  C   LIG    1        1.675  11.645  -5.132  0.00  0.00    +0.307 C 
ATOM     43  O   LIG    1        1.720  12.871  -5.102  0.00  0.00    -0.251 OA
BRANCH  42  44
ATOM     44  O   LIG    1        1.163  11.030  -6.214  0.00  0.00    -0.481 OA
ATOM     45  H   LIG    1        1.095  10.066  -6.217  0.00  0.00    +0.295 HD
ENDBRANCH  42  44
ENDBRANCH  41  42
ENDBRANCH  38  41
ENDBRANCH  37  38
ENDBRANCH  34  37
ENDBRANCH  33  34
ENDBRANCH  32  33
ENDBRANCH   2  32
TORSDOF 15
