REMARK  Name = *****
REMARK                            x       y       z     vdW  Elec       q    Type
REMARK                         _______ _______ _______ _____ _____    ______ ____
ROOT
ATOM      1  C   LIG    1        2.370   0.048   0.024  0.00  0.00    +0.120 A 
ATOM      2  C   LIG    1        3.037  -1.169  -0.052  0.00  0.00    +0.090 A 
ATOM      3  C   LIG    1        4.419  -1.179  -0.196  0.00  0.00    +0.120 A 
ATOM      4  C   LIG    1        5.139   0.013  -0.252  0.00  0.00    +0.045 A 
ATOM      5  C   LIG    1        4.460   1.230  -0.167  0.00  0.00    +0.007 A 
ATOM      6  C   LIG    1        3.071   1.251  -0.030  0.00  0.00    +0.045 A 
ENDROOT
BRANCH   1   7
ATOM      7  O   LIG    1        1.012   0.024   0.149  0.00  0.00    -0.507 OA
ATOM      8  H   LIG    1        0.683   0.938   0.133  0.00  0.00    +0.292 HD
ENDBRANCH   1   7
BRANCH   3   9
ATOM      9  O   LIG    1        5.043  -2.388  -0.283  0.00  0.00    -0.507 OA
ATOM     10  H   LIG    1        5.990  -2.239  -0.437  0.00  0.00    +0.292 HD
ENDBRANCH   3   9
TORSDOF 2
