REMARK  Name = *****
REMARK                            x       y       z     vdW  Elec       q    Type
REMARK                         _______ _______ _______ _____ _____    ______ ____
ROOT
ATOM      1  C   LIG    1        4.457  -1.312  -0.728  0.00  0.00    +0.098 C 
ATOM      2  C   LIG    1        5.281  -2.035  -1.496  0.00  0.00    +0.098 C 
ENDROOT
BRANCH   1   3
ATOM      3  C   LIG    1        3.091  -1.656  -0.265  0.00  0.00    +0.332 C 
ATOM      4  O   LIG    1        2.244  -0.813  -0.010  0.00  0.00    -0.246 OA
BRANCH   3   6
ATOM      5  C   LIG    1        1.772  -3.459   0.502  0.00  0.00    +0.280 C 
ATOM      6  O   LIG    1        3.008  -2.992  -0.035  0.00  0.00    -0.465 OA
ENDBRANCH   3   6
ENDBRANCH   1   3
BRANCH   2   7
ATOM      7  C   LIG    1        5.017  -3.321  -2.186  0.00  0.00    +0.332 C 
ATOM      8  O   LIG    1        5.910  -4.083  -2.509  0.00  0.00    -0.246 OA
BRANCH   7   9
ATOM      9  O   LIG    1        3.700  -3.440  -2.488  0.00  0.00    -0.465 OA
ATOM     10  C   LIG    1        3.337  -4.645  -3.158  0.00  0.00    +0.280 C 
ENDBRANCH   7   9
ENDBRANCH   2   7
TORSDOF 4
