REMARK  Name = *****
REMARK                            x       y       z     vdW  Elec       q    Type
REMARK                         _______ _______ _______ _____ _____    ______ ____
ROOT
ATOM      1  C   LIG    1        2.991  -4.137  -0.646  0.00  0.00    +0.148 A 
ATOM      2  O   LIG    1        2.501  -4.925   0.355  0.00  0.00    -0.454 OA
ATOM      3  C   LIG    1        1.705  -5.881  -0.200  0.00  0.00    +0.136 A 
ATOM      4  C   LIG    1        1.601  -5.650  -1.556  0.00  0.00    +0.050 A 
ATOM      5  C   LIG    1        2.434  -4.534  -1.845  0.00  0.00    +0.051 A 
ENDROOT
BRANCH   3   6
ATOM      6  C   LIG    1        1.204  -6.892   0.728  0.00  0.00    +0.018 A 
ATOM      7  C   LIG    1        0.008  -7.579   0.476  0.00  0.00    +0.018 A 
ATOM      8  C   LIG    1       -0.455  -8.555   1.368  0.00  0.00    +0.085 A 
ATOM      9  C   LIG    1        0.295  -8.844   2.511  0.00  0.00    +0.273 A 
ATOM     10  C   LIG    1        1.493  -8.191   2.783  0.00  0.00    +0.085 A 
ATOM     11  C   LIG    1        1.933  -7.214   1.890  0.00  0.00    +0.018 A 
BRANCH   9  12
ATOM     12  N   LIG    1       -0.188  -9.840   3.449  0.00  0.00    +0.080 N 
ATOM     13  O   LIG    1       -0.413 -10.972   3.001  0.00  0.00    -0.576 OA
ATOM     14  O   LIG    1       -0.346  -9.479   4.622  0.00  0.00    +0.041 OA
ENDBRANCH   9  12
ENDBRANCH   3   6
BRANCH   1  16
ATOM     15  N   LIG    1        4.744  -3.015   0.699  0.00  0.00    -0.180 NA
ATOM     16  C   LIG    1        3.944  -3.100  -0.331  0.00  0.00    +0.176 C 
BRANCH  15  21
ATOM     17  O   LIG    1        5.791  -7.134   2.836  0.00  0.00    -0.272 OA
ATOM     18  C   LIG    1        5.547  -5.959   2.628  0.00  0.00    +0.260 C 
ATOM     19  N   LIG    1        5.423  -4.970   3.593  0.00  0.00    -0.129 NA
ATOM     20  C   LIG    1        5.013  -3.938   2.936  0.00  0.00    +0.295 C 
ATOM     21  N   LIG    1        4.775  -4.053   1.593  0.00  0.00    -0.170 N 
ATOM     22  C   LIG    1        5.297  -5.372   1.228  0.00  0.00    +0.234 C 
BRANCH  20  23
ATOM     23  O   LIG    1        4.809  -2.735   3.477  0.00  0.00    -0.482 OA
ATOM     24  H   LIG    1        4.546  -2.140   2.756  0.00  0.00    +0.295 HD
ENDBRANCH  20  23
ENDBRANCH  15  21
ENDBRANCH   1  16
TORSDOF 5
