REMARK  Name = *****
REMARK                            x       y       z     vdW  Elec       q    Type
REMARK                         _______ _______ _______ _____ _____    ______ ____
ROOT
ATOM      1  C   LIG    1        4.815  -3.573  -0.742  0.00  0.00    +0.141 C 
ATOM      2  C   LIG    1        6.131  -3.592  -1.550  0.00  0.00    +0.053 C 
ATOM      3  C   LIG    1        6.135  -4.335  -2.893  0.00  0.00    +0.087 C 
ATOM      4  N   LIG    1        5.025  -4.082  -3.821  0.00  0.00    -0.302 NA
ATOM      5  C   LIG    1        3.815  -4.396  -3.121  0.00  0.00    +0.087 C 
ATOM      6  C   LIG    1        3.657  -3.540  -1.758  0.00  0.00    +0.053 C 
ENDROOT
BRANCH   1   8
ATOM      7  C   LIG    1        3.923  -5.821   0.691  0.00  0.00    +0.221 C 
ATOM      8  N   LIG    1        4.775  -4.707   0.433  0.00  0.00    -0.255 N 
ATOM      9  O   LIG    1        4.154  -6.562   1.667  0.00  0.00    -0.275 OA
BRANCH   8  10
ATOM     10  C   LIG    1        5.774  -4.446   1.531  0.00  0.00    +0.037 A 
ATOM     11  C   LIG    1        5.454  -3.689   2.679  0.00  0.00    +0.023 A 
ATOM     12  C   LIG    1        6.423  -3.386   3.669  0.00  0.00    +0.002 A 
ATOM     13  C   LIG    1        7.722  -3.872   3.563  0.00  0.00    +0.000 A 
ATOM     14  C   LIG    1        8.040  -4.687   2.481  0.00  0.00    +0.002 A 
ATOM     15  C   LIG    1        7.078  -4.973   1.482  0.00  0.00    +0.023 A 
ENDBRANCH   8  10
BRANCH   7  17
ATOM     16  C   LIG    1        2.360  -5.738  -1.433  0.00  0.00    +0.013 C 
ATOM     17  C   LIG    1        2.666  -6.317  -0.130  0.00  0.00    +0.093 C 
ENDBRANCH   7  17
ENDBRANCH   1   8
BRANCH   1  18
ATOM     18  C   LIG    1        4.546  -2.230  -0.007  0.00  0.00    +0.331 C 
ATOM     19  O   LIG    1        3.546  -1.988   0.707  0.00  0.00    -0.248 OA
BRANCH  18  20
ATOM     20  O   LIG    1        5.528  -1.338  -0.240  0.00  0.00    -0.466 OA
ATOM     21  C   LIG    1        5.897  -0.608   0.919  0.00  0.00    +0.280 C 
ENDBRANCH  18  20
ENDBRANCH   1  18
BRANCH   4  22
ATOM     22  C   LIG    1        4.916  -2.786  -4.473  0.00  0.00    +0.095 C 
BRANCH  22  23
ATOM     23  C   LIG    1        3.892  -2.800  -5.621  0.00  0.00    +0.136 C 
BRANCH  23  24
ATOM     24  C   LIG    1        3.921  -1.522  -6.369  0.00  0.00    +0.308 C 
ATOM     25  O   LIG    1        2.886  -0.752  -6.500  0.00  0.00    -0.251 OA
BRANCH  24  26
ATOM     26  O   LIG    1        5.079  -1.332  -6.998  0.00  0.00    -0.468 OA
ATOM     27  C   LIG    1        5.042  -0.525  -8.177  0.00  0.00    +0.280 C 
ENDBRANCH  24  26
ENDBRANCH  23  24
ENDBRANCH  22  23
ENDBRANCH   4  22
TORSDOF 9
