REMARK  Name = *****
REMARK                            x       y       z     vdW  Elec       q    Type
REMARK                         _______ _______ _______ _____ _____    ______ ____
ROOT
ATOM      1  C   LIG    1        0.909   0.121  -0.076  0.00  0.00    +0.138 C 
ATOM      2  N   LIG    1        2.358   0.052   0.059  0.00  0.00    -0.270 N 
ATOM      3  C   LIG    1        2.934  -1.224   0.020  0.00  0.00    +0.271 C 
ATOM      4  O   LIG    1        2.247  -2.252   0.001  0.00  0.00    -0.270 OA
ATOM      5  C   LIG    1        4.484  -1.318  -0.051  0.00  0.00    +0.320 C 
ATOM      6  N   LIG    1        5.032  -0.926   1.244  0.00  0.00    -0.243 NA
ATOM      7  C   LIG    1        4.911   0.305   1.612  0.00  0.00    +0.079 C 
ATOM      8  C   LIG    1        4.339   1.396   0.770  0.00  0.00    +0.023 A 
ATOM      9  C   LIG    1        5.050   2.611   0.737  0.00  0.00    +0.032 A 
ATOM     10  C   LIG    1        4.529   3.709   0.061  0.00  0.00    +0.042 A 
ATOM     11 CL   LIG    1        5.400   5.190   0.034  0.00  0.00    -0.084 Cl
ATOM     12  C   LIG    1        3.303   3.614  -0.582  0.00  0.00    +0.022 A 
ATOM     13  C   LIG    1        2.601   2.405  -0.564  0.00  0.00    +0.025 A 
ATOM     14  C   LIG    1        3.111   1.266   0.090  0.00  0.00    +0.045 A 
ENDROOT
BRANCH   7  15
ATOM     15  C   LIG    1        5.444   0.654   2.964  0.00  0.00    +0.019 A 
ATOM     16  C   LIG    1        4.694   1.327   3.937  0.00  0.00    +0.050 A 
ATOM     17 CL   LIG    1        3.038   1.765   3.716  0.00  0.00    -0.083 Cl
ATOM     18  C   LIG    1        5.277   1.633   5.172  0.00  0.00    +0.021 A 
ATOM     19  C   LIG    1        6.595   1.260   5.442  0.00  0.00    +0.002 A 
ATOM     20  C   LIG    1        7.335   0.569   4.485  0.00  0.00    +0.001 A 
ATOM     21  C   LIG    1        6.761   0.261   3.251  0.00  0.00    +0.011 A 
ENDBRANCH   7  15
BRANCH   5  22
ATOM     22  O   LIG    1        5.090  -0.688  -1.162  0.00  0.00    -0.364 OA
ATOM     23  H   LIG    1        6.036  -0.698  -0.941  0.00  0.00    +0.212 HD
ENDBRANCH   5  22
TORSDOF 2
