REMARK  Name = *****
REMARK                            x       y       z     vdW  Elec       q    Type
REMARK                         _______ _______ _______ _____ _____    ______ ____
ROOT
ATOM      1  C   LIG    1        5.975  -1.318   3.469  0.00  0.00    +0.203 C 
ATOM      2  C   LIG    1        5.451  -2.553   2.718  0.00  0.00    +0.253 C 
ATOM      3  C   LIG    1        5.035  -3.453   3.892  0.00  0.00    +0.269 C 
ATOM      4  C   LIG    1        6.175  -3.170   4.900  0.00  0.00    +0.268 C 
ATOM      5  O   LIG    1        6.545  -1.785   4.707  0.00  0.00    -0.342 OA
ENDROOT
BRANCH   4   6
ATOM      6  N   LIG    1        5.856  -3.377   6.318  0.00  0.00    -0.270 N 
ATOM      7  C   LIG    1        6.146  -4.620   6.877  0.00  0.00    +0.331 C 
ATOM      8  O   LIG    1        6.653  -5.553   6.255  0.00  0.00    -0.246 OA
ATOM      9  N   LIG    1        5.842  -4.761   8.208  0.00  0.00    -0.275 N 
ATOM     10  H   LIG    1        6.037  -5.657   8.627  0.00  0.00    +0.173 HD
ATOM     11  C   LIG    1        5.264  -3.820   9.011  0.00  0.00    +0.254 C 
ATOM     12  O   LIG    1        4.986  -4.017  10.185  0.00  0.00    -0.268 OA
ATOM     13  C   LIG    1        5.003  -2.522   8.373  0.00  0.00    +0.088 C 
ATOM     14  C   LIG    1        5.303  -2.364   7.083  0.00  0.00    +0.098 C 
ENDBRANCH   4   6
BRANCH   1  15
ATOM     15  C   LIG    1        4.870  -0.288   3.791  0.00  0.00    +0.267 C 
BRANCH  15  16
ATOM     16  O   LIG    1        4.329   0.189   2.557  0.00  0.00    -0.462 OA
BRANCH  16  18
ATOM     17  C   LIG    1        4.945   1.203   0.538  0.00  0.00    +0.136 C 
ATOM     18  C   LIG    1        4.977   1.276   2.039  0.00  0.00    +0.304 C 
ATOM     19  O   LIG    1        5.601   2.100   2.678  0.00  0.00    -0.251 OA
ENDBRANCH  16  18
ENDBRANCH  15  16
ENDBRANCH   1  15
BRANCH   2  20
ATOM     20  O   LIG    1        6.509  -3.229   1.991  0.00  0.00    -0.455 OA
BRANCH  20  21
ATOM     21  C   LIG    1        6.338  -3.338   0.637  0.00  0.00    +0.304 C 
ATOM     22  O   LIG    1        5.936  -2.453  -0.094  0.00  0.00    -0.251 OA
ATOM     23  C   LIG    1        6.638  -4.749   0.211  0.00  0.00    +0.136 C 
ENDBRANCH  20  21
ENDBRANCH   2  20
BRANCH   3  24
ATOM     24  O   LIG    1        4.874  -4.826   3.496  0.00  0.00    -0.453 OA
BRANCH  24  25
ATOM     25  C   LIG    1        4.096  -5.576   4.322  0.00  0.00    +0.304 C 
ATOM     26  O   LIG    1        3.570  -5.146   5.351  0.00  0.00    -0.251 OA
ATOM     27  C   LIG    1        3.845  -6.948   3.791  0.00  0.00    +0.136 C 
ENDBRANCH  24  25
ENDBRANCH   3  24
TORSDOF 8
