REMARK  Name = *****
REMARK                            x       y       z     vdW  Elec       q    Type
REMARK                         _______ _______ _______ _____ _____    ______ ____
ROOT
ATOM      1  CA  LIG    1        2.633  -5.704  -2.361  0.00  0.00    +0.123 C 
ATOM      2  N   LIG    1        3.688  -6.024  -1.573  0.00  0.00    -0.249 N 
ATOM      3  C   LIG    1        4.745  -6.951  -1.884  0.00  0.00    +0.169 C 
ATOM      4  CA  LIG    1        5.087  -6.878  -0.355  0.00  0.00    +0.191 C 
ATOM      5  S   LIG    1        4.170  -8.505  -2.563  0.00  0.00    -0.131 S 
ATOM      6  C   LIG    1        2.536  -8.024  -3.151  0.00  0.00    +0.104 C 
ATOM      7  C   LIG    1        4.267  -5.551  -0.437  0.00  0.00    +0.244 C 
ATOM      8  O   LIG    1        4.123  -4.609   0.303  0.00  0.00    -0.273 OA
ATOM      9  C   LIG    1        2.239  -6.546  -3.351  0.00  0.00    -0.021 C 
ENDROOT
BRANCH   4  10
ATOM     10  N   LIG    1        4.513  -7.909   0.576  0.00  0.00    -0.299 N 
ATOM     11  H   LIG    1        5.093  -8.678   0.884  0.00  0.00    +0.150 HD
ATOM     12  C   LIG    1        3.203  -7.851   1.040  0.00  0.00    +0.247 C 
ATOM     13  O   LIG    1        2.411  -6.982   0.687  0.00  0.00    -0.273 OA
BRANCH  12  14
ATOM     14  C   LIG    1        2.762  -9.056   1.878  0.00  0.00    +0.230 C 
BRANCH  14  15
ATOM     15  C   LIG    1        1.748  -8.806   2.980  0.00  0.00    -0.010 A 
ATOM     16  C   LIG    1        1.113  -7.573   3.211  0.00  0.00    +0.006 A 
ATOM     17  C   LIG    1        0.173  -7.420   4.232  0.00  0.00    +0.000 A 
ATOM     18  C   LIG    1       -0.142  -8.493   5.056  0.00  0.00    +0.000 A 
ATOM     19  C   LIG    1        0.490  -9.718   4.863  0.00  0.00    +0.000 A 
ATOM     20  C   LIG    1        1.423  -9.874   3.834  0.00  0.00    +0.006 A 
ENDBRANCH  14  15
BRANCH  14  21
ATOM     21  O   LIG    1        2.248 -10.025   0.954  0.00  0.00    -0.378 OA
ATOM     22  H   LIG    1        1.645  -9.538   0.360  0.00  0.00    +0.211 HD
ENDBRANCH  14  21
ENDBRANCH  12  14
ENDBRANCH   4  10
BRANCH   1  24
ATOM     23  O   LIG    1        2.529  -3.498  -1.423  0.00  0.00    -0.244 OA
ATOM     24  C   LIG    1        1.984  -4.409  -2.022  0.00  0.00    +0.351 C 
BRANCH  24  25
ATOM     25  OXT LIG    1        0.797  -4.220  -2.600  0.00  0.00    -0.476 OA
ATOM     26  HXT LIG    1        0.837  -3.248  -2.781  0.00  0.00    +0.295 HD
ENDBRANCH  24  25
ENDBRANCH   1  24
BRANCH   9  27
ATOM     27  C   LIG    1        1.193  -6.298  -4.441  0.00  0.00    +0.111 C 
BRANCH  27  28
ATOM     28  S   LIG    1        1.315  -4.752  -5.386  0.00  0.00    -0.080 S 
BRANCH  28  29
ATOM     29  C   LIG    1        2.814  -4.848  -6.203  0.00  0.00    +0.211 A 
ATOM     30  N   LIG    1        4.025  -4.413  -5.748  0.00  0.00    -0.196 N 
ATOM     31  N   LIG    1        4.973  -4.793  -6.631  0.00  0.00    -0.042 NA
ATOM     32  N   LIG    1        4.312  -5.268  -7.674  0.00  0.00    -0.022 NA
ATOM     33  N   LIG    1        2.965  -5.295  -7.426  0.00  0.00    -0.102 NA
BRANCH  30  34
ATOM     34  C   LIG    1        4.458  -3.793  -4.531  0.00  0.00    +0.345 C 
BRANCH  34  35
ATOM     35  S   LIG    1        3.715  -2.252  -4.065  0.00  0.00    +0.100 S 
ATOM     36  O   LIG    1        2.283  -2.352  -3.756  0.00  0.00    -0.146 OA
ATOM     37  O   LIG    1        4.197  -1.195  -4.900  0.00  0.00    -0.146 OA
BRANCH  35  38
ATOM     38  O   LIG    1        4.524  -2.127  -2.659  0.00  0.00    -0.252 OA
ATOM     39  H   LIG    1        4.392  -1.246  -2.243  0.00  0.00    +0.244 HD
ENDBRANCH  35  38
ENDBRANCH  34  35
ENDBRANCH  30  34
ENDBRANCH  28  29
ENDBRANCH  27  28
ENDBRANCH   9  27
TORSDOF 12
