REMARK  Name = *****
REMARK                            x       y       z     vdW  Elec       q    Type
REMARK                         _______ _______ _______ _____ _____    ______ ____
ROOT
ATOM      1  C   LIG    1        4.701   0.139   0.011  0.00  0.00    +0.128 C 
ENDROOT
BRANCH   1   2
ATOM      2  C   LIG    1        5.063   0.503  -1.414  0.00  0.00    +0.305 C 
ATOM      3  O   LIG    1        5.570   1.565  -1.731  0.00  0.00    -0.251 OA
BRANCH   2   4
ATOM      4  O   LIG    1        4.777  -0.471  -2.307  0.00  0.00    -0.481 OA
ATOM      5  H   LIG    1        4.332  -1.258  -1.918  0.00  0.00    +0.295 HD
ENDBRANCH   2   4
ENDBRANCH   1   2
BRANCH   1   6
ATOM      6  C   LIG    1        3.213   0.278   0.303  0.00  0.00    +0.085 C 
BRANCH   6   8
ATOM      7  C   LIG    1        0.909  -0.860   0.108  0.00  0.00    +0.086 C 
ATOM      8  C   LIG    1        2.385  -0.879  -0.222  0.00  0.00    +0.131 C 
ATOM      9  O   LIG    1        2.904  -1.792  -0.869  0.00  0.00    -0.298 OA
ENDBRANCH   6   8
ENDBRANCH   1   6
TORSDOF 4
