REMARK  Name = *****
REMARK                            x       y       z     vdW  Elec       q    Type
REMARK                         _______ _______ _______ _____ _____    ______ ____
ROOT
ATOM      1  C   LIG    1        5.118   1.079   1.426  0.00  0.00    +0.114 A 
ATOM      2  C   LIG    1        6.111   1.974   0.941  0.00  0.00    +0.046 A 
ATOM      3  C   LIG    1        7.304   1.327   1.215  0.00  0.00    +0.168 A 
ATOM      4  C   LIG    1        8.565   1.842   0.926  0.00  0.00    +0.049 A 
ATOM      5  C   LIG    1        8.595   3.100   0.315  0.00  0.00    +0.004 A 
ATOM      6  C   LIG    1        7.414   3.783   0.011  0.00  0.00    +0.001 A 
ATOM      7  O   LIG    1        7.041   0.127   1.796  0.00  0.00    -0.354 OA
ATOM      8  C   LIG    1        6.161   3.231   0.313  0.00  0.00    +0.013 A 
ATOM      9  N   LIG    1        5.672  -0.041   1.917  0.00  0.00    -0.080 NA
ENDROOT
BRANCH   1  10
ATOM     10  C   LIG    1        3.641   1.210   1.389  0.00  0.00    +0.244 C 
BRANCH  10  11
ATOM     11  S   LIG    1        3.052   2.573   2.403  0.00  0.00    +0.033 S 
ATOM     12  O   LIG    1        3.258   2.305   3.805  0.00  0.00    -0.158 OA
ATOM     13  O   LIG    1        3.400   3.843   1.802  0.00  0.00    -0.158 OA
BRANCH  11  14
ATOM     14  N   LIG    1        1.384   2.471   2.190  0.00  0.00    -0.208 NA
ATOM     15  H   LIG    1        0.938   2.223   3.077  0.00  0.00    +0.144 HD
ATOM     16  H   LIG    1        1.036   3.353   1.806  0.00  0.00    +0.144 HD
ENDBRANCH  11  14
ENDBRANCH  10  11
ENDBRANCH   1  10
TORSDOF 3
