REMARK  Name = *****
REMARK                            x       y       z     vdW  Elec       q    Type
REMARK                         _______ _______ _______ _____ _____    ______ ____
ROOT
ATOM      1  C   LIG    1        2.244   0.185  -1.804  0.00  0.00    +0.204 A 
ATOM      2  C   LIG    1        3.466   0.897  -1.918  0.00  0.00    +0.173 A 
ATOM      3  C   LIG    1        4.127   0.931  -3.171  0.00  0.00    +0.031 A 
ATOM      4  C   LIG    1        5.609   1.026  -3.274  0.00  0.00    -0.009 A 
ATOM      5  C   LIG    1        6.371   1.931  -4.145  0.00  0.00    -0.016 A 
ATOM      6  C   LIG    1        5.562   2.783  -5.140  0.00  0.00    +0.104 C 
ATOM      7  C   LIG    1        4.482   2.114  -6.028  0.00  0.00    +0.032 C 
ATOM      8  C   LIG    1        4.062   0.687  -5.699  0.00  0.00    +0.038 C 
ATOM      9  C   LIG    1        7.701   2.104  -3.945  0.00  0.00    +0.058 A 
ATOM     10  C   LIG    1        8.643   1.555  -2.907  0.00  0.00    +0.193 A 
ATOM     11  O   LIG    1        9.850   1.715  -3.098  0.00  0.00    -0.287 OA
ATOM     12  C   LIG    1        8.137   0.872  -1.665  0.00  0.00    +0.054 A 
ATOM     13  C   LIG    1        7.038   0.102  -1.645  0.00  0.00    +0.019 A 
ATOM     14  C   LIG    1        6.194  -0.110  -2.821  0.00  0.00    +0.010 A 
ATOM     15  C   LIG    1        3.436   0.565  -4.336  0.00  0.00    -0.032 A 
ATOM     16  C   LIG    1        2.185  -0.041  -4.218  0.00  0.00    +0.054 A 
ATOM     17  C   LIG    1        1.653  -0.362  -2.966  0.00  0.00    +0.169 A 
ENDROOT
BRANCH   6  18
ATOM     18  N   LIG    1        6.453   3.536  -6.036  0.00  0.00    -0.309 N 
ATOM     19  H   LIG    1        6.837   3.051  -6.837  0.00  0.00    +0.149 HD
ATOM     20  C   LIG    1        6.889   4.812  -5.775  0.00  0.00    +0.210 C 
ATOM     21  O   LIG    1        6.591   5.433  -4.753  0.00  0.00    -0.276 OA
ATOM     22  C   LIG    1        7.735   5.421  -6.857  0.00  0.00    +0.109 C 
ENDBRANCH   6  18
BRANCH   1  24
ATOM     23  C   LIG    1        1.683   0.811   0.435  0.00  0.00    +0.277 C 
ATOM     24  O   LIG    1        1.609  -0.135  -0.626  0.00  0.00    -0.488 OA
ENDBRANCH   1  24
BRANCH   2  25
ATOM     25  O   LIG    1        4.048   1.419  -0.783  0.00  0.00    -0.491 OA
ATOM     26  C   LIG    1        4.700   2.686  -0.951  0.00  0.00    +0.277 C 
ENDBRANCH   2  25
BRANCH  12  27
ATOM     27  S   LIG    1        9.060   1.107  -0.209  0.00  0.00    -0.125 S 
ATOM     28  C   LIG    1       10.203  -0.284  -0.361  0.00  0.00    +0.090 C 
ENDBRANCH  12  27
BRANCH  17  29
ATOM     29  O   LIG    1        0.553  -1.207  -2.851  0.00  0.00    -0.457 OA
BRANCH  29  30
ATOM     30  C   LIG    1        0.470  -2.213  -3.888  0.00  0.00    +0.339 C 
ATOM     31  C   LIG    1        0.060  -3.610  -3.359  0.00  0.00    +0.214 C 
ATOM     32  C   LIG    1       -1.429  -3.929  -3.522  0.00  0.00    +0.180 C 
ATOM     33  C   LIG    1       -2.287  -2.681  -3.704  0.00  0.00    +0.177 C 
ATOM     34  C   LIG    1       -1.745  -1.804  -4.839  0.00  0.00    +0.179 C 
ATOM     35  O   LIG    1       -0.325  -1.768  -4.992  0.00  0.00    -0.331 OA
BRANCH  31  36
ATOM     36  O   LIG    1        0.777  -4.616  -4.126  0.00  0.00    -0.383 OA
ATOM     37  H   LIG    1        0.589  -5.487  -3.739  0.00  0.00    +0.210 HD
ENDBRANCH  31  36
BRANCH  32  38
ATOM     38  O   LIG    1       -1.894  -4.663  -2.378  0.00  0.00    -0.386 OA
ATOM     39  H   LIG    1       -1.440  -5.520  -2.343  0.00  0.00    +0.210 HD
ENDBRANCH  32  38
BRANCH  33  40
ATOM     40  O   LIG    1       -3.642  -3.053  -4.029  0.00  0.00    -0.387 OA
ATOM     41  H   LIG    1       -3.618  -3.734  -4.723  0.00  0.00    +0.210 HD
ENDBRANCH  33  40
BRANCH  34  42
ATOM     42  C   LIG    1       -2.326  -0.382  -4.762  0.00  0.00    +0.190 C 
BRANCH  42  43
ATOM     43  O   LIG    1       -1.841   0.337  -3.635  0.00  0.00    -0.392 OA
ATOM     44  H   LIG    1       -0.869   0.259  -3.640  0.00  0.00    +0.209 HD
ENDBRANCH  42  43
ENDBRANCH  34  42
ENDBRANCH  29  30
ENDBRANCH  17  29
TORSDOF 11
