REMARK  Name = *****
REMARK                            x       y       z     vdW  Elec       q    Type
REMARK                         _______ _______ _______ _____ _____    ______ ____
ROOT
ATOM      1  C   LIG    1        6.690   2.455  -4.005  0.00  0.00    +0.332 C 
ATOM      2  O   LIG    1        6.728   1.261  -4.249  0.00  0.00    -0.246 OA
ENDROOT
BRANCH   1   3
ATOM      3  C   LIG    1        6.380   3.519  -4.979  0.00  0.00    +0.092 C 
ATOM      4  C   LIG    1        6.122   3.216  -6.246  0.00  0.00    +0.015 C 
BRANCH   4   5
ATOM      5  C   LIG    1        5.687   4.223  -7.216  0.00  0.00    -0.025 A 
ATOM      6  C   LIG    1        6.044   4.065  -8.555  0.00  0.00    +0.011 A 
ATOM      7  C   LIG    1        5.624   4.992  -9.507  0.00  0.00    +0.046 A 
ATOM      8  C   LIG    1        4.832   6.079  -9.135  0.00  0.00    +0.120 A 
ATOM      9  C   LIG    1        4.454   6.231  -7.802  0.00  0.00    +0.046 A 
ATOM     10  C   LIG    1        4.881   5.309  -6.847  0.00  0.00    +0.011 A 
BRANCH   8  11
ATOM     11  O   LIG    1        4.350   7.022 -10.001  0.00  0.00    -0.495 OA
ATOM     12  C   LIG    1        5.147   7.218 -11.164  0.00  0.00    +0.277 C 
ENDBRANCH   8  11
ENDBRANCH   4   5
ENDBRANCH   1   3
BRANCH   1  13
ATOM     13  O   LIG    1        6.763   3.044  -2.796  0.00  0.00    -0.461 OA
BRANCH  13  14
ATOM     14  C   LIG    1        6.527   2.199  -1.677  0.00  0.00    +0.236 C 
BRANCH  14  15
ATOM     15  C   LIG    1        5.010   2.143  -1.399  0.00  0.00    +0.026 C 
BRANCH  15  16
ATOM     16  C   LIG    1        4.732   1.253  -0.174  0.00  0.00    +0.003 C 
ATOM     17  C   LIG    1        3.258   1.108   0.183  0.00  0.00    +0.004 C 
ENDBRANCH  15  16
BRANCH  15  18
ATOM     18  C   LIG    1        4.359   3.544  -1.323  0.00  0.00    +0.007 C 
BRANCH  18  19
ATOM     19  C   LIG    1        4.871   4.460  -0.203  0.00  0.00    +0.000 C 
BRANCH  19  21
ATOM     20  C   LIG    1        2.681   5.706   0.105  0.00  0.00    +0.004 C 
ATOM     21  C   LIG    1        4.169   5.824  -0.190  0.00  0.00    -0.003 C 
ENDBRANCH  19  21
ENDBRANCH  18  19
ENDBRANCH  15  18
ENDBRANCH  14  15
ENDBRANCH  13  14
ENDBRANCH   1  13
TORSDOF 10
