REMARK  Name = *****
REMARK                            x       y       z     vdW  Elec       q    Type
REMARK                         _______ _______ _______ _____ _____    ______ ____
ROOT
ATOM      1  C   LIG    1        2.520  -0.077  -0.163  0.00  0.00    +0.195 C 
ATOM      2  N   LIG    1        3.140   1.157  -0.123  0.00  0.00    -0.293 N 
ATOM      3  H   LIG    1        2.596   2.001  -0.181  0.00  0.00    +0.172 HD
ATOM      4  C   LIG    1        4.512   1.347  -0.082  0.00  0.00    +0.280 C 
ATOM      5  O   LIG    1        5.012   2.471  -0.071  0.00  0.00    -0.265 OA
ATOM      6  C   LIG    1        5.236   0.097  -0.057  0.00  0.00    +0.172 A 
ATOM      7  N   LIG    1        6.583  -0.147  -0.006  0.00  0.00    -0.229 NA
ATOM      8  C   LIG    1        6.673  -1.461  -0.004  0.00  0.00    +0.203 A 
ATOM      9  N   LIG    1        5.442  -2.067  -0.051  0.00  0.00    -0.291 N 
ATOM     10  C   LIG    1        4.506  -1.071  -0.089  0.00  0.00    +0.171 A 
ATOM     11  N   LIG    1        3.159  -1.217  -0.144  0.00  0.00    -0.196 NA
ENDROOT
BRANCH   1  12
ATOM     12  N   LIG    1        1.164  -0.057  -0.216  0.00  0.00    -0.329 N 
ATOM     13  H   LIG    1        0.698   0.688   0.285  0.00  0.00    +0.145 HD
ATOM     14  H   LIG    1        0.756  -0.969  -0.035  0.00  0.00    +0.145 HD
ENDBRANCH   1  12
BRANCH   9  15
ATOM     15  C   LIG    1        5.173  -3.492  -0.062  0.00  0.00    +0.287 C 
BRANCH  15  16
ATOM     16  O   LIG    1        6.414  -4.205  -0.036  0.00  0.00    -0.357 OA
BRANCH  16  17
ATOM     17  C   LIG    1        6.212  -5.620  -0.035  0.00  0.00    +0.190 C 
BRANCH  17  18
ATOM     18  C   LIG    1        7.572  -6.312   0.019  0.00  0.00    +0.184 C 
BRANCH  18  19
ATOM     19  O   LIG    1        8.274  -5.953   1.207  0.00  0.00    -0.393 OA
ATOM     20  H   LIG    1        8.453  -4.997   1.137  0.00  0.00    +0.209 HD
ENDBRANCH  18  19
ENDBRANCH  17  18
ENDBRANCH  16  17
ENDBRANCH  15  16
ENDBRANCH   9  15
TORSDOF 6
