REMARK  Name = *****
REMARK                            x       y       z     vdW  Elec       q    Type
REMARK                         _______ _______ _______ _____ _____    ______ ____
ROOT
ATOM      1  C   LIG    1        1.822  -0.977   0.128  0.00  0.00    +0.105 C 
ATOM      2  N   LIG    1        3.228  -0.562   0.148  0.00  0.00    -0.302 NA
ATOM      3  C   LIG    1        3.373   0.695   0.936  0.00  0.00    +0.111 C 
ATOM      4  C   LIG    1        4.866   1.043   1.268  0.00  0.00    +0.119 C 
ATOM      5  N   LIG    1        5.474  -0.068   2.057  0.00  0.00    -0.305 N 
ATOM      6  C   LIG    1        4.850  -0.217   3.316  0.00  0.00    +0.125 A 
ATOM      7  C   LIG    1        5.093   0.748   4.298  0.00  0.00    -0.003 A 
ATOM      8  C   LIG    1        6.123   1.806   4.039  0.00  0.00    +0.074 C 
ATOM      9  C   LIG    1        5.709   2.822   3.002  0.00  0.00    -0.038 A 
ATOM     10  C   LIG    1        6.005   4.176   3.272  0.00  0.00    +0.004 A 
ATOM     11  C   LIG    1        5.718   5.180   2.352  0.00  0.00    +0.000 A 
ATOM     12  C   LIG    1        5.125   4.851   1.143  0.00  0.00    +0.000 A 
ATOM     13  C   LIG    1        4.833   3.517   0.855  0.00  0.00    +0.006 A 
ATOM     14  C   LIG    1        4.369   0.701   5.495  0.00  0.00    +0.009 A 
ATOM     15  C   LIG    1        3.429  -0.297   5.693  0.00  0.00    +0.020 A 
ATOM     16  C   LIG    1        3.280  -1.239   4.694  0.00  0.00    +0.113 A 
ATOM     17  N   LIG    1        3.982  -1.226   3.544  0.00  0.00    -0.240 NA
ATOM     18  C   LIG    1        5.458  -1.304   1.240  0.00  0.00    +0.122 C 
ATOM     19  C   LIG    1        5.125   2.472   1.765  0.00  0.00    -0.022 A 
ATOM     20  C   LIG    1        4.053  -1.673   0.691  0.00  0.00    +0.103 C 
ENDROOT
TORSDOF 0
