REMARK  Name = *****
REMARK                            x       y       z     vdW  Elec       q    Type
REMARK                         _______ _______ _______ _____ _____    ______ ____
ROOT
ATOM      1  C   LIG    1        4.987   2.487  -0.505  0.00  0.00    +0.061 C 
ATOM      2  C   LIG    1        3.490   2.074  -0.626  0.00  0.00    +0.020 C 
ATOM      3  C   LIG    1        3.209   1.091   0.291  0.00  0.00    +0.013 C 
ENDROOT
BRANCH   2   4
ATOM      4  N   LIG    1        2.733   2.639  -1.730  0.00  0.00    -0.273 N 
ATOM      5  C   LIG    1        3.423   3.409  -2.722  0.00  0.00    +0.333 C 
ATOM      6  O   LIG    1        2.930   3.973  -3.704  0.00  0.00    -0.279 OA
BRANCH   4   7
ATOM      7  C   LIG    1        1.210   2.644  -1.993  0.00  0.00    +0.153 C 
BRANCH   7   8
ATOM      8  C   LIG    1        0.167   1.941  -1.157  0.00  0.00    +0.028 A 
ATOM      9  C   LIG    1       -1.068   2.210  -0.685  0.00  0.00    +0.124 A 
ATOM     10  N   LIG    1       -1.820   1.427   0.200  0.00  0.00    -0.218 NA
ATOM     11  C   LIG    1       -1.385   0.186   0.441  0.00  0.00    +0.128 A 
ATOM     12  C   LIG    1       -1.922  -0.826   1.424  0.00  0.00    +0.088 C 
ATOM     13  N   LIG    1       -0.551  -0.297  -0.430  0.00  0.00    -0.240 NA
ATOM     14  C   LIG    1        0.114   0.617  -1.176  0.00  0.00    +0.121 A 
BRANCH   9  15
ATOM     15  N   LIG    1       -1.780   3.200  -1.367  0.00  0.00    -0.343 N 
ATOM     16  H   LIG    1       -1.738   2.965  -2.361  0.00  0.00    +0.144 HD
ATOM     17  H   LIG    1       -2.713   3.029  -1.000  0.00  0.00    +0.144 HD
ENDBRANCH   9  15
ENDBRANCH   7   8
ENDBRANCH   4   7
ENDBRANCH   2   4
BRANCH   3  18
ATOM     18  S   LIG    1        2.051  -0.116   0.453  0.00  0.00    -0.050 S 
BRANCH  18  19
ATOM     19  C   LIG    1        1.817  -1.473  -0.630  0.00  0.00    +0.224 C 
ATOM     20  O   LIG    1        1.179  -2.371  -0.264  0.00  0.00    -0.279 OA
BRANCH  19  21
ATOM     21  C   LIG    1        2.350  -1.426  -2.055  0.00  0.00    +0.029 A 
ATOM     22  C   LIG    1        2.607  -2.670  -2.554  0.00  0.00    +0.012 A 
ATOM     23  C   LIG    1        3.538  -2.770  -3.581  0.00  0.00    +0.001 A 
ATOM     24  C   LIG    1        4.142  -1.630  -4.127  0.00  0.00    +0.000 A 
ATOM     25  C   LIG    1        3.663  -0.386  -3.816  0.00  0.00    +0.001 A 
ATOM     26  C   LIG    1        2.677  -0.326  -2.868  0.00  0.00    +0.012 A 
ENDBRANCH  19  21
ENDBRANCH  18  19
ENDBRANCH   3  18
BRANCH   3  27
ATOM     27  C   LIG    1        4.033   0.869   1.581  0.00  0.00    +0.072 C 
BRANCH  27  28
ATOM     28  C   LIG    1        3.248   0.274   2.815  0.00  0.00    +0.177 C 
BRANCH  28  29
ATOM     29  O   LIG    1        2.441   1.308   3.342  0.00  0.00    -0.286 OA
BRANCH  29  30
ATOM     30  P   LIG    1        1.442   0.961   4.532  0.00  0.00    +0.472 P 
ATOM     31  O   LIG    1        0.382  -0.067   4.381  0.00  0.00    -0.228 OA
BRANCH  30  32
ATOM     32  O   LIG    1        1.010   2.379   5.108  0.00  0.00    -0.303 OA
ATOM     33  H   LIG    1        1.286   2.463   6.034  0.00  0.00    +0.222 HD
ENDBRANCH  30  32
BRANCH  30  34
ATOM     34  O   LIG    1        2.497   0.525   5.659  0.00  0.00    -0.303 OA
ATOM     35  H   LIG    1        2.626  -0.442   5.612  0.00  0.00    +0.222 HD
ENDBRANCH  30  34
ENDBRANCH  29  30
ENDBRANCH  28  29
ENDBRANCH  27  28
ENDBRANCH   3  27
TORSDOF 13
