REMARK  Name = *****
REMARK                            x       y       z     vdW  Elec       q    Type
REMARK                         _______ _______ _______ _____ _____    ______ ____
ROOT
ATOM      1  C   LIG    1        4.646   0.318   1.960  0.00  0.00    +0.036 C 
ATOM      2  C   LIG    1        4.858   2.091   2.446  0.00  0.00    +0.004 C 
ATOM      3  C   LIG    1        6.567   3.066   2.221  0.00  0.00    +0.039 C 
ATOM      4  C   LIG    1        7.589   2.638   1.243  0.00  0.00    +0.066 C 
ATOM      5  C   LIG    1        8.220   4.092   2.163  0.00  0.00    +0.035 C 
ATOM      6  C   LIG    1        7.744   3.727   3.831  0.00  0.00    +0.045 C 
ATOM      7  C   LIG    1        6.472   2.615   4.251  0.00  0.00    +0.103 C 
ATOM      8  C   LIG    1        6.391   1.266   2.821  0.00  0.00    +0.081 C 
ATOM      9  N   LIG    1        6.844   2.181   5.617  0.00  0.00    -0.327 N 
ATOM     10  C   LIG    1        6.463   0.912   6.180  0.00  0.00    +0.130 C 
ATOM     11  C   LIG    1        7.890   2.989   6.088  0.00  0.00    +0.034 A 
ATOM     12  C   LIG    1        8.444   2.956   7.358  0.00  0.00    +0.023 A 
ATOM     13  C   LIG    1        9.488   3.834   7.675  0.00  0.00    +0.002 A 
ATOM     14  C   LIG    1        9.984   4.739   6.725  0.00  0.00    +0.000 A 
ATOM     15  C   LIG    1        9.450   4.779   5.439  0.00  0.00    +0.006 A 
ATOM     16  C   LIG    1        8.418   3.906   5.135  0.00  0.00    -0.016 A 
ATOM     17  N   LIG    1        7.390   0.969   1.757  0.00  0.00    -0.269 NA
ATOM     18  C   LIG    1        8.151   2.491   3.279  0.00  0.00    +0.132 C 
ATOM     19  C   LIG    1        5.444   1.962   1.219  0.00  0.00    +0.025 C 
ATOM     20  C   LIG    1        6.332  -0.116   1.309  0.00  0.00    +0.189 C 
ENDROOT
BRANCH   1  22
ATOM     21  C   LIG    1        2.817  -0.031   3.677  0.00  0.00    +0.004 C 
ATOM     22  C   LIG    1        4.076  -0.610   3.050  0.00  0.00    +0.004 C 
ENDBRANCH   1  22
BRANCH  18  23
ATOM     23  O   LIG    1        9.538   2.412   2.829  0.00  0.00    -0.391 OA
ATOM     24  H   LIG    1       10.069   2.270   3.634  0.00  0.00    +0.210 HD
ENDBRANCH  18  23
BRANCH  20  25
ATOM     25  O   LIG    1        6.393  -0.315  -0.081  0.00  0.00    -0.377 OA
ATOM     26  H   LIG    1        7.324  -0.114  -0.284  0.00  0.00    +0.211 HD
ENDBRANCH  20  25
TORSDOF 3
