REMARK  Name = *****
REMARK                            x       y       z     vdW  Elec       q    Type
REMARK                         _______ _______ _______ _____ _____    ______ ____
ROOT
ATOM      1  C   LIG    1        2.053   1.665   2.523  0.00  0.00    +0.243 C 
ATOM      2  N   LIG    1        3.009   1.392   3.512  0.00  0.00    -0.268 N 
ATOM      3  O   LIG    1        2.347   2.015   1.385  0.00  0.00    -0.270 OA
ENDROOT
BRANCH   2   4
ATOM      4  C   LIG    1        2.695   1.401   4.901  0.00  0.00    +0.039 A 
ATOM      5  C   LIG    1        2.224   2.553   5.562  0.00  0.00    -0.029 A 
ATOM      6  C   LIG    1        2.086   3.888   4.886  0.00  0.00    +0.045 C 
ATOM      7  C   LIG    1        1.875   2.457   6.920  0.00  0.00    +0.005 A 
ATOM      8  C   LIG    1        2.052   1.266   7.623  0.00  0.00    +0.000 A 
ATOM      9  C   LIG    1        2.572   0.148   6.977  0.00  0.00    +0.002 A 
ATOM     10  C   LIG    1        2.890   0.213   5.619  0.00  0.00    +0.024 A 
ENDBRANCH   2   4
BRANCH   1  13
ATOM     11  C   LIG    1       -0.407   3.168   1.333  0.00  0.00    +0.035 C 
ATOM     12  C   LIG    1       -0.426   2.112   2.392  0.00  0.00    -0.025 C 
ATOM     13  C   LIG    1        0.622   1.450   2.911  0.00  0.00    +0.063 C 
ENDBRANCH   1  13
BRANCH   2  14
ATOM     14  C   LIG    1        4.410   1.689   3.184  0.00  0.00    +0.111 C 
ATOM     15  C   LIG    1        5.049   0.662   2.259  0.00  0.00    +0.025 C 
ENDBRANCH   2  14
TORSDOF 3
