REMARK  Name = *****
REMARK                            x       y       z     vdW  Elec       q    Type
REMARK                         _______ _______ _______ _____ _____    ______ ____
ROOT
ATOM      1  C   LIG    1        0.652   4.777  -0.791  0.00  0.00    +0.122 A 
ATOM      2  N   LIG    1        1.623   5.386  -1.482  0.00  0.00    -0.237 NA
ATOM      3  C   LIG    1        1.550   6.723  -1.710  0.00  0.00    +0.047 A 
ATOM      4  C   LIG    1        2.753   7.260  -2.453  0.00  0.00    +0.056 C 
ATOM      5  C   LIG    1        3.872   7.756  -1.536  0.00  0.00    +0.006 C 
ATOM      6  C   LIG    1        3.686   9.159  -0.951  0.00  0.00    +0.000 C 
ATOM      7  C   LIG    1        2.604   9.277   0.124  0.00  0.00    +0.000 C 
ATOM      8  C   LIG    1        1.259   9.813  -0.370  0.00  0.00    +0.005 C 
ATOM      9  C   LIG    1        0.584   9.028  -1.490  0.00  0.00    +0.037 C 
ATOM     10  C   LIG    1        0.491   7.535  -1.253  0.00  0.00    -0.018 A 
ATOM     11  C   LIG    1       -0.557   6.901  -0.535  0.00  0.00    -0.010 A 
ATOM     12  C   LIG    1       -0.442   5.501  -0.337  0.00  0.00    +0.052 A 
ENDROOT
BRANCH  11  13
ATOM     13  C   LIG    1       -1.754   7.572   0.057  0.00  0.00    -0.017 A 
ATOM     14  C   LIG    1       -2.223   7.199   1.341  0.00  0.00    +0.011 A 
ATOM     15  C   LIG    1       -3.377   7.748   1.902  0.00  0.00    +0.039 A 
ATOM     16  C   LIG    1       -4.076   8.727   1.210  0.00  0.00    +0.123 A 
ATOM     17  F   LIG    1       -5.170   9.270   1.746  0.00  0.00    -0.205 F 
ATOM     18  C   LIG    1       -3.648   9.128  -0.050  0.00  0.00    +0.039 A 
ATOM     19  C   LIG    1       -2.525   8.530  -0.629  0.00  0.00    +0.011 A 
ENDBRANCH  11  13
BRANCH   1  23
ATOM     20  N   LIG    1        2.438   1.077   0.407  0.00  0.00    -0.300 NA
ATOM     21  C   LIG    1        1.513   1.789   1.312  0.00  0.00    +0.103 C 
ATOM     22  C   LIG    1        1.188   3.257   0.943  0.00  0.00    +0.122 C 
ATOM     23  N   LIG    1        0.760   3.397  -0.470  0.00  0.00    -0.313 N 
ATOM     24  C   LIG    1        1.638   2.683  -1.425  0.00  0.00    +0.122 C 
ATOM     25  C   LIG    1        1.915   1.227  -0.974  0.00  0.00    +0.103 C 
BRANCH  20  27
ATOM     26  C   LIG    1        4.474   1.355   1.868  0.00  0.00    +0.020 C 
ATOM     27  C   LIG    1        3.839   1.518   0.489  0.00  0.00    +0.081 C 
ENDBRANCH  20  27
ENDBRANCH   1  23
TORSDOF 3
