REMARK  Name = *****
REMARK                            x       y       z     vdW  Elec       q    Type
REMARK                         _______ _______ _______ _____ _____    ______ ____
ROOT
ATOM      1  C   LIG    1        3.942   1.169   7.680  0.00  0.00    +0.152 C 
ENDROOT
BRANCH   1   2
ATOM      2  C   LIG    1        4.741   1.262   6.346  0.00  0.00    +0.034 C 
BRANCH   2   3
ATOM      3  C   LIG    1        4.457   0.200   5.266  0.00  0.00    +0.006 C 
BRANCH   3   4
ATOM      4  C   LIG    1        5.335   0.325   3.983  0.00  0.00    -0.011 C 
BRANCH   4   5
ATOM      5  C   LIG    1        6.852   0.133   4.262  0.00  0.00    -0.000 C 
ATOM      6  C   LIG    1        7.242  -1.125   5.018  0.00  0.00    +0.004 C 
ENDBRANCH   4   5
BRANCH   4   7
ATOM      7  C   LIG    1        5.217   1.663   3.198  0.00  0.00    +0.003 C 
BRANCH   7   8
ATOM      8  C   LIG    1        3.841   2.105   2.682  0.00  0.00    -0.000 C 
BRANCH   8  10
ATOM      9  C   LIG    1        2.633   3.963   1.397  0.00  0.00    +0.004 C 
ATOM     10  C   LIG    1        3.959   3.457   1.948  0.00  0.00    -0.003 C 
ENDBRANCH   8  10
ENDBRANCH   7   8
ENDBRANCH   4   7
ENDBRANCH   3   4
ENDBRANCH   2   3
ENDBRANCH   1   2
BRANCH   1  11
ATOM     11  O   LIG    1        4.419   2.163   8.600  0.00  0.00    -0.212 OA
BRANCH  11  12
ATOM     12  S   LIG    1        4.011   3.733   8.483  0.00  0.00    +0.208 S 
ATOM     13  O   LIG    1        2.640   3.902   8.879  0.00  0.00    -0.118 OA
ATOM     14  O   LIG    1        4.529   4.280   7.240  0.00  0.00    -0.118 OA
BRANCH  12  15
ATOM     15  O   LIG    1        4.872   4.394   9.674  0.00  0.00    -0.231 OA
ATOM     16  H   LIG    1        4.259   4.560  10.418  0.00  0.00    +0.247 HD
ENDBRANCH  12  15
ENDBRANCH  11  12
ENDBRANCH   1  11
BRANCH   1  17
ATOM     17  C   LIG    1        4.137  -0.204   8.395  0.00  0.00    +0.037 C 
BRANCH  17  18
ATOM     18  C   LIG    1        3.422  -0.367   9.767  0.00  0.00    -0.015 C 
ATOM     19  C   LIG    1        3.802  -1.694  10.452  0.00  0.00    +0.007 C 
ATOM     20  C   LIG    1        1.897  -0.301   9.654  0.00  0.00    +0.007 C 
ENDBRANCH  17  18
ENDBRANCH   1  17
TORSDOF 12
