REMARK  Name = *****
REMARK                            x       y       z     vdW  Elec       q    Type
REMARK                         _______ _______ _______ _____ _____    ______ ____
ROOT
ATOM      1  C   LIG    1        4.676  -1.401   1.288  0.00  0.00    +0.117 C 
ENDROOT
BRANCH   1   2
ATOM      2  N   LIG    1        3.498  -0.553   0.939  0.00  0.00    -0.310 NA
ATOM      3  H   LIG    1        2.760  -0.753   1.619  0.00  0.00    +0.122 HD
BRANCH   2   5
ATOM      4  C   LIG    1        1.714   0.112  -0.635  0.00  0.00    +0.024 C 
ATOM      5  C   LIG    1        2.930  -0.815  -0.415  0.00  0.00    +0.055 C 
BRANCH   5   6
ATOM      6  C   LIG    1        3.941  -0.643  -1.585  0.00  0.00    +0.053 C 
BRANCH   6   7
ATOM      7  C   LIG    1        3.392  -1.016  -2.953  0.00  0.00    -0.046 A 
ATOM      8  C   LIG    1        2.884  -2.303  -3.194  0.00  0.00    +0.007 A 
ATOM      9  C   LIG    1        2.348  -2.634  -4.440  0.00  0.00    +0.045 A 
ATOM     10  C   LIG    1        2.316  -1.688  -5.452  0.00  0.00    +0.117 A 
ATOM     11  C   LIG    1        2.842  -0.414  -5.250  0.00  0.00    +0.045 A 
ATOM     12  C   LIG    1        3.385  -0.085  -4.002  0.00  0.00    +0.007 A 
BRANCH  10  13
ATOM     13  O   LIG    1        1.747  -2.043  -6.640  0.00  0.00    -0.507 OA
ATOM     14  H   LIG    1        1.692  -1.257  -7.205  0.00  0.00    +0.292 HD
ENDBRANCH  10  13
ENDBRANCH   6   7
ENDBRANCH   5   6
ENDBRANCH   2   5
ENDBRANCH   1   2
BRANCH   1  15
ATOM     15  C   LIG    1        5.194  -1.155   2.741  0.00  0.00    +0.158 C 
BRANCH  15  16
ATOM     16  C   LIG    1        6.454  -1.922   3.137  0.00  0.00    -0.011 A 
ATOM     17  C   LIG    1        7.716  -1.319   3.022  0.00  0.00    +0.051 A 
ATOM     18  C   LIG    1        8.867  -1.969   3.479  0.00  0.00    +0.121 A 
ATOM     19  C   LIG    1        8.796  -3.231   4.053  0.00  0.00    +0.090 A 
ATOM     20  C   LIG    1        7.554  -3.843   4.152  0.00  0.00    +0.121 A 
ATOM     21  C   LIG    1        6.392  -3.215   3.696  0.00  0.00    +0.051 A 
BRANCH  18  22
ATOM     22  O   LIG    1       10.057  -1.310   3.370  0.00  0.00    -0.507 OA
ATOM     23  H   LIG    1       10.748  -1.877   3.751  0.00  0.00    +0.292 HD
ENDBRANCH  18  22
BRANCH  20  24
ATOM     24  O   LIG    1        7.513  -5.076   4.743  0.00  0.00    -0.507 OA
ATOM     25  H   LIG    1        6.582  -5.351   4.812  0.00  0.00    +0.292 HD
ENDBRANCH  20  24
ENDBRANCH  15  16
BRANCH  15  26
ATOM     26  O   LIG    1        4.154  -1.480   3.674  0.00  0.00    -0.386 OA
ATOM     27  H   LIG    1        3.572  -0.703   3.698  0.00  0.00    +0.210 HD
ENDBRANCH  15  26
ENDBRANCH   1  15
TORSDOF 10
