REMARK  Name = *****
REMARK                            x       y       z     vdW  Elec       q    Type
REMARK                         _______ _______ _______ _____ _____    ______ ____
ROOT
ATOM      1  S   LIG    1        4.598   3.145  -4.365  0.00  0.00    +0.103 S 
ATOM      2  O   LIG    1        4.380   4.574  -4.223  0.00  0.00    -0.146 OA
ATOM      3  O   LIG    1        3.488   2.278  -4.703  0.00  0.00    -0.146 OA
ENDROOT
BRANCH   1   7
ATOM      4  C   LIG    1        6.558   1.547  -0.560  0.00  0.00    +0.017 A 
ATOM      5  C   LIG    1        5.436   0.899  -1.097  0.00  0.00    +0.013 A 
ATOM      6  C   LIG    1        4.790   1.416  -2.222  0.00  0.00    +0.030 A 
ATOM      7  C   LIG    1        5.274   2.584  -2.814  0.00  0.00    +0.113 A 
ATOM      8  C   LIG    1        6.338   3.288  -2.240  0.00  0.00    +0.030 A 
ATOM      9  C   LIG    1        6.989   2.760  -1.121  0.00  0.00    +0.013 A 
BRANCH   4  11
ATOM     10  C   LIG    1        6.859  -0.357   1.153  0.00  0.00    +0.091 C 
ATOM     11  C   LIG    1        7.318   0.962   0.586  0.00  0.00    +0.160 C 
ATOM     12  O   LIG    1        8.295   1.551   1.042  0.00  0.00    -0.292 OA
ENDBRANCH   4  11
ENDBRANCH   1   7
BRANCH   1  13
ATOM     13  N   LIG    1        5.806   2.900  -5.401  0.00  0.00    -0.076 NA
ATOM     14  C   LIG    1        5.617   2.529  -6.616  0.00  0.00    +0.299 C 
BRANCH  14  15
ATOM     15  N   LIG    1        6.591   2.364  -7.555  0.00  0.00    -0.295 N 
ATOM     16  H   LIG    1        6.218   2.155  -8.475  0.00  0.00    +0.151 HD
BRANCH  15  17
ATOM     17  C   LIG    1        7.845   3.112  -7.531  0.00  0.00    +0.075 C 
ATOM     18  C   LIG    1        9.005   2.266  -8.073  0.00  0.00    +0.022 C 
ATOM     19  C   LIG    1        8.913   2.016  -9.577  0.00  0.00    +0.002 C 
ATOM     20  C   LIG    1        8.793   3.320 -10.357  0.00  0.00    +0.000 C 
ATOM     21  C   LIG    1        7.653   4.196  -9.845  0.00  0.00    +0.002 C 
ATOM     22  C   LIG    1        7.715   4.415  -8.332  0.00  0.00    +0.022 C 
ENDBRANCH  15  17
ENDBRANCH  14  15
BRANCH  14  23
ATOM     23  O   LIG    1        4.424   2.236  -7.159  0.00  0.00    -0.481 OA
ATOM     24  H   LIG    1        3.708   2.211  -6.492  0.00  0.00    +0.295 HD
ENDBRANCH  14  23
ENDBRANCH   1  13
TORSDOF 6
