REMARK  Name = *****
REMARK                            x       y       z     vdW  Elec       q    Type
REMARK                         _______ _______ _______ _____ _____    ______ ____
ROOT
ATOM      1  C   LIG    1        6.405  -0.056   1.151  0.00  0.00    +0.296 C 
ATOM      2  C   LIG    1        7.418   1.086   1.327  0.00  0.00    +0.321 C 
ATOM      3  F   LIG    1        7.296   1.700   2.525  0.00  0.00    -0.198 F 
ATOM      4  F   LIG    1        7.349   2.042   0.372  0.00  0.00    -0.198 F 
ATOM      5  C   LIG    1        8.755   0.381   1.217  0.00  0.00    +0.219 C 
ATOM      6  C   LIG    1        8.470  -1.019   1.750  0.00  0.00    +0.181 C 
ATOM      7  O   LIG    1        7.056  -1.274   1.598  0.00  0.00    -0.342 OA
ENDROOT
BRANCH   1  12
ATOM      8  C   LIG    1        2.643   0.458   2.852  0.00  0.00    +0.123 C 
ATOM      9  N   LIG    1        3.064   1.314   1.978  0.00  0.00    -0.178 NA
ATOM     10  C   LIG    1        4.315   1.175   1.422  0.00  0.00    +0.352 C 
ATOM     11  O   LIG    1        4.704   1.949   0.555  0.00  0.00    -0.244 OA
ATOM     12  N   LIG    1        5.117   0.105   1.838  0.00  0.00    -0.267 N 
ATOM     13  C   LIG    1        4.660  -0.802   2.770  0.00  0.00    +0.096 C 
ATOM     14  C   LIG    1        3.453  -0.681   3.320  0.00  0.00    +0.061 C 
BRANCH   8  15
ATOM     15  N   LIG    1        1.376   0.629   3.335  0.00  0.00    -0.343 N 
ATOM     16  H   LIG    1        0.843   1.290   2.776  0.00  0.00    +0.144 HD
ATOM     17  H   LIG    1        0.853  -0.206   3.564  0.00  0.00    +0.144 HD
ENDBRANCH   8  15
ENDBRANCH   1  12
BRANCH   5  18
ATOM     18  O   LIG    1        9.176   0.276  -0.158  0.00  0.00    -0.383 OA
ATOM     19  H   LIG    1        9.120   1.177  -0.538  0.00  0.00    +0.210 HD
ENDBRANCH   5  18
BRANCH   6  20
ATOM     20  C   LIG    1        8.850  -1.206   3.221  0.00  0.00    +0.190 C 
BRANCH  20  21
ATOM     21  O   LIG    1        8.184  -0.279   4.065  0.00  0.00    -0.392 OA
ATOM     22  H   LIG    1        7.226  -0.431   3.980  0.00  0.00    +0.209 HD
ENDBRANCH  20  21
ENDBRANCH   6  20
TORSDOF 5
