REMARK  Name = *****
REMARK                            x       y       z     vdW  Elec       q    Type
REMARK                         _______ _______ _______ _____ _____    ______ ____
ROOT
ATOM      1  C   LIG    1        3.670  -1.244  -3.739  0.00  0.00    +0.103 C 
ATOM      2  C   LIG    1        4.473  -0.291  -4.422  0.00  0.00    +0.171 C 
ATOM      3  F   LIG    1        4.438   0.983  -3.998  0.00  0.00    -0.201 F 
ATOM      4  C   LIG    1        5.275  -0.586  -5.551  0.00  0.00    +0.090 C 
ATOM      5  C   LIG    1        5.247  -1.919  -6.004  0.00  0.00    +0.052 C 
ATOM      6  C   LIG    1        6.031  -2.317  -7.195  0.00  0.00    +0.203 C 
ATOM      7  C   LIG    1        6.842  -1.293  -7.873  0.00  0.00    +0.122 C 
ATOM      8  C   LIG    1        6.803  -0.059  -7.356  0.00  0.00    +0.105 C 
ATOM      9  O   LIG    1        6.010  -3.469  -7.624  0.00  0.00    -0.286 OA
ATOM     10  C   LIG    1        4.485  -2.894  -5.365  0.00  0.00    +0.054 C 
ATOM     11  N   LIG    1        6.085   0.354  -6.238  0.00  0.00    -0.341 NA
ATOM     12  C   LIG    1        3.732  -2.557  -4.248  0.00  0.00    +0.148 C 
ATOM     13  F   LIG    1        3.077  -3.564  -3.649  0.00  0.00    -0.203 F 
ENDROOT
BRANCH   1  18
ATOM     14  C   LIG    1       -0.024   0.938  -1.222  0.00  0.00    +0.105 C 
ATOM     15  N   LIG    1        0.900   0.003  -0.588  0.00  0.00    -0.302 NA
ATOM     16  C   LIG    1        0.842  -1.334  -1.213  0.00  0.00    +0.103 C 
ATOM     17  C   LIG    1        1.502  -1.459  -2.608  0.00  0.00    +0.120 C 
ATOM     18  N   LIG    1        2.892  -0.938  -2.596  0.00  0.00    -0.323 NA
ATOM     19  C   LIG    1        2.978   0.421  -2.015  0.00  0.00    +0.120 C 
ATOM     20  C   LIG    1        2.293   0.489  -0.631  0.00  0.00    +0.103 C 
ENDBRANCH   1  18
BRANCH   7  21
ATOM     21  C   LIG    1        7.663  -1.551  -9.075  0.00  0.00    +0.342 C 
ATOM     22  O   LIG    1        8.316  -0.691  -9.639  0.00  0.00    -0.245 OA
BRANCH  21  23
ATOM     23  O   LIG    1        7.641  -2.834  -9.499  0.00  0.00    -0.477 OA
ATOM     24  H   LIG    1        7.071  -3.429  -8.954  0.00  0.00    +0.295 HD
ENDBRANCH  21  23
ENDBRANCH   7  21
BRANCH  11  25
ATOM     25  C   LIG    1        6.047   1.797  -5.893  0.00  0.00    +0.155 C 
BRANCH  25  26
ATOM     26  C   LIG    1        4.860   2.505  -6.543  0.00  0.00    +0.235 C 
ATOM     27  F   LIG    1        4.958   2.411  -7.899  0.00  0.00    -0.247 F 
ENDBRANCH  25  26
ENDBRANCH  11  25
TORSDOF 5
