REMARK  Name = *****
REMARK                            x       y       z     vdW  Elec       q    Type
REMARK                         _______ _______ _______ _____ _____    ______ ____
ROOT
ATOM      1  C   LIG    1        6.495   1.950  -0.254  0.00  0.00    +0.205 C 
ENDROOT
BRANCH   1   2
ATOM      2  C   LIG    1        7.710   2.503  -0.986  0.00  0.00    -0.007 A 
ATOM      3  C   LIG    1        8.483   1.694  -1.836  0.00  0.00    +0.007 A 
ATOM      4  C   LIG    1        9.534   2.238  -2.576  0.00  0.00    +0.000 A 
ATOM      5  C   LIG    1        9.836   3.593  -2.465  0.00  0.00    +0.000 A 
ATOM      6  C   LIG    1        9.099   4.402  -1.604  0.00  0.00    +0.000 A 
ATOM      7  C   LIG    1        8.043   3.861  -0.867  0.00  0.00    +0.007 A 
ENDBRANCH   1   2
BRANCH   1   8
ATOM      8  C   LIG    1        5.426   1.515  -1.276  0.00  0.00    +0.064 C 
BRANCH   8   9
ATOM      9  C   LIG    1        4.149   1.013  -0.599  0.00  0.00    +0.084 C 
BRANCH   9  11
ATOM     10  C   LIG    1        3.361  -0.333  -2.473  0.00  0.00    +0.101 C 
ATOM     11  N   LIG    1        3.058   0.752  -1.546  0.00  0.00    -0.319 NA
ATOM     12  H   LIG    1        2.224   0.499  -1.016  0.00  0.00    +0.122 HD
ENDBRANCH   9  11
ENDBRANCH   8   9
ENDBRANCH   1   8
BRANCH   1  13
ATOM     13  O   LIG    1        6.901   0.821   0.529  0.00  0.00    -0.484 OA
BRANCH  13  14
ATOM     14  C   LIG    1        6.699   0.794   1.881  0.00  0.00    +0.121 A 
ATOM     15  C   LIG    1        7.053  -0.414   2.491  0.00  0.00    +0.046 A 
ATOM     16  C   LIG    1        6.895  -0.603   3.869  0.00  0.00    +0.016 A 
ATOM     17  C   LIG    1        6.376   0.422   4.670  0.00  0.00    +0.055 A 
ATOM     18  C   LIG    1        6.030   1.634   4.058  0.00  0.00    +0.016 A 
ATOM     19  C   LIG    1        6.193   1.819   2.678  0.00  0.00    +0.046 A 
BRANCH  17  20
ATOM     20  C   LIG    1        6.198   0.219   6.154  0.00  0.00    +0.417 C 
ATOM     21  F   LIG    1        7.365  -0.084   6.786  0.00  0.00    -0.166 F 
ATOM     22  F   LIG    1        5.341  -0.800   6.442  0.00  0.00    -0.166 F 
ATOM     23  F   LIG    1        5.701   1.313   6.798  0.00  0.00    -0.166 F 
ENDBRANCH  17  20
ENDBRANCH  13  14
ENDBRANCH   1  13
TORSDOF 7
