REMARK  Name = *****
REMARK                            x       y       z     vdW  Elec       q    Type
REMARK                         _______ _______ _______ _____ _____    ______ ____
ROOT
ATOM      1  C   LIG    1        6.514   4.343   5.624  0.00  0.00    -0.025 A 
ATOM      2  C   LIG    1        6.726   3.567   6.755  0.00  0.00    +0.011 A 
ATOM      3  C   LIG    1        7.513   4.054   7.800  0.00  0.00    +0.046 A 
ATOM      4  C   LIG    1        8.070   5.332   7.748  0.00  0.00    +0.121 A 
ATOM      5  C   LIG    1        7.866   6.104   6.598  0.00  0.00    +0.046 A 
ATOM      6  C   LIG    1        7.094   5.610   5.536  0.00  0.00    +0.011 A 
ENDROOT
BRANCH   1   8
ATOM      7  C   LIG    1        4.356   3.984   4.543  0.00  0.00    +0.008 C 
ATOM      8  C   LIG    1        5.672   3.804   4.553  0.00  0.00    +0.008 C 
BRANCH   7  12
ATOM      9  C   LIG    1        1.924   2.539   1.325  0.00  0.00    +0.027 A 
ATOM     10  C   LIG    1        2.575   3.775   1.257  0.00  0.00    +0.023 A 
ATOM     11  C   LIG    1        3.354   4.246   2.315  0.00  0.00    +0.009 A 
ATOM     12  C   LIG    1        3.527   3.465   3.454  0.00  0.00    -0.025 A 
ATOM     13  C   LIG    1        2.924   2.210   3.528  0.00  0.00    +0.009 A 
ATOM     14  C   LIG    1        2.127   1.753   2.469  0.00  0.00    +0.023 A 
BRANCH   9  16
ATOM     15  C   LIG    1        0.977   2.824  -0.921  0.00  0.00    +0.125 C 
ATOM     16  N   LIG    1        1.153   2.022   0.277  0.00  0.00    -0.347 N 
ATOM     17  H   LIG    1        0.289   1.610   0.624  0.00  0.00    +0.146 HD
ENDBRANCH   9  16
ENDBRANCH   7  12
ENDBRANCH   1   8
BRANCH   4  18
ATOM     18  O   LIG    1        8.809   5.927   8.733  0.00  0.00    -0.490 OA
BRANCH  18  19
ATOM     19  C   LIG    1        9.047   5.197   9.941  0.00  0.00    +0.257 C 
BRANCH  19  20
ATOM     20  C   LIG    1       10.542   5.016  10.170  0.00  0.00    +0.201 C 
BRANCH  20  21
ATOM     21  O   LIG    1       11.098   4.268   9.086  0.00  0.00    -0.374 OA
BRANCH  21  22
ATOM     22  C   LIG    1       12.476   3.974   9.298  0.00  0.00    +0.188 C 
BRANCH  22  23
ATOM     23  C   LIG    1       13.046   3.216   8.100  0.00  0.00    +0.188 C 
BRANCH  23  24
ATOM     24  O   LIG    1       12.407   1.943   7.961  0.00  0.00    -0.375 OA
BRANCH  24  25
ATOM     25  C   LIG    1       12.850   1.207   6.817  0.00  0.00    +0.193 C 
BRANCH  25  26
ATOM     26  C   LIG    1       14.314   0.804   6.911  0.00  0.00    +0.241 C 
ATOM     27  F   LIG    1       14.658   0.061   5.828  0.00  0.00    -0.247 F 
ENDBRANCH  25  26
ENDBRANCH  24  25
ENDBRANCH  23  24
ENDBRANCH  22  23
ENDBRANCH  21  22
ENDBRANCH  20  21
ENDBRANCH  19  20
ENDBRANCH  18  19
ENDBRANCH   4  18
TORSDOF 12
