REMARK  Name = *****
REMARK                            x       y       z     vdW  Elec       q    Type
REMARK                         _______ _______ _______ _____ _____    ______ ____
ROOT
ATOM      1  C   LIG    1        5.533   1.322   3.590  0.00  0.00    +0.064 C 
ATOM      2  C   LIG    1        5.631  -0.081   2.932  0.00  0.00    +0.117 C 
ATOM      3  C   LIG    1        4.519  -1.073   3.362  0.00  0.00    +0.062 C 
ATOM      4  C   LIG    1        4.545  -1.185   4.895  0.00  0.00    +0.151 C 
ATOM      5  C   LIG    1        4.287   0.159   5.535  0.00  0.00    -0.011 A 
ATOM      6  C   LIG    1        3.656   0.215   6.791  0.00  0.00    +0.056 A 
ATOM      7  C   LIG    1        3.437   1.453   7.353  0.00  0.00    +0.167 A 
ATOM      8  O   LIG    1        2.867   1.685   8.566  0.00  0.00    -0.453 OA
ATOM      9  C   LIG    1        2.909   3.126   8.614  0.00  0.00    +0.466 C 
ATOM     10  O   LIG    1        3.514   3.721   7.448  0.00  0.00    -0.453 OA
ATOM     11  C   LIG    1        3.801   2.613   6.715  0.00  0.00    +0.167 A 
ATOM     12  C   LIG    1        4.417   2.602   5.482  0.00  0.00    +0.054 A 
ATOM     13  C   LIG    1        4.694   1.356   4.882  0.00  0.00    -0.030 A 
ENDROOT
BRANCH   1  18
ATOM     14  C   LIG    1        8.968   3.049   3.152  0.00  0.00    +0.165 A 
ATOM     15  C   LIG    1        9.534   2.907   4.439  0.00  0.00    +0.203 A 
ATOM     16  C   LIG    1        8.812   2.219   5.433  0.00  0.00    +0.165 A 
ATOM     17  C   LIG    1        7.565   1.675   5.114  0.00  0.00    +0.053 A 
ATOM     18  C   LIG    1        6.954   1.865   3.860  0.00  0.00    -0.032 A 
ATOM     19  C   LIG    1        7.678   2.552   2.881  0.00  0.00    +0.053 A 
BRANCH  14  21
ATOM     20  C   LIG    1       10.956   3.659   1.973  0.00  0.00    +0.277 C 
ATOM     21  O   LIG    1        9.535   3.686   2.071  0.00  0.00    -0.491 OA
ENDBRANCH  14  21
BRANCH  15  22
ATOM     22  O   LIG    1       10.720   3.559   4.666  0.00  0.00    -0.488 OA
ATOM     23  C   LIG    1       11.623   2.998   5.609  0.00  0.00    +0.277 C 
ENDBRANCH  15  22
BRANCH  16  24
ATOM     24  O   LIG    1        9.387   2.037   6.662  0.00  0.00    -0.491 OA
ATOM     25  C   LIG    1        8.568   1.984   7.824  0.00  0.00    +0.277 C 
ENDBRANCH  16  24
ENDBRANCH   1  18
BRANCH   2  26
ATOM     26  C   LIG    1        5.685   0.043   1.420  0.00  0.00    +0.309 C 
ATOM     27  O   LIG    1        4.774   0.458   0.731  0.00  0.00    -0.251 OA
BRANCH  26  28
ATOM     28  O   LIG    1        6.862  -0.344   0.879  0.00  0.00    -0.480 OA
ATOM     29  H   LIG    1        7.545  -0.629   1.515  0.00  0.00    +0.295 HD
ENDBRANCH  26  28
ENDBRANCH   2  26
BRANCH   4  30
ATOM     30  O   LIG    1        5.835  -1.641   5.311  0.00  0.00    -0.387 OA
ATOM     31  H   LIG    1        5.924  -1.435   6.257  0.00  0.00    +0.210 HD
ENDBRANCH   4  30
BRANCH   3  32
ATOM     32  C   LIG    1        3.099  -0.744   2.866  0.00  0.00    +0.163 C 
BRANCH  32  33
ATOM     33  O   LIG    1        2.210  -1.777   3.286  0.00  0.00    -0.395 OA
ATOM     34  H   LIG    1        1.404  -1.688   2.746  0.00  0.00    +0.209 HD
ENDBRANCH  32  33
ENDBRANCH   3  32
TORSDOF 9
