REMARK  Name = *****
REMARK                            x       y       z     vdW  Elec       q    Type
REMARK                         _______ _______ _______ _____ _____    ______ ____
ROOT
ATOM      1  C   LIG    1        3.884  -3.083  -2.182  0.00  0.00    +0.173 A 
ATOM      2  C   LIG    1        4.346  -2.747  -3.534  0.00  0.00    +0.206 A 
ATOM      3  C   LIG    1        5.225  -3.640  -4.208  0.00  0.00    +0.187 A 
ATOM      4  C   LIG    1        5.833  -4.689  -3.431  0.00  0.00    +0.085 A 
ATOM      5  C   LIG    1        5.487  -4.854  -2.067  0.00  0.00    +0.094 A 
ATOM      6  C   LIG    1        6.066  -5.899  -1.171  0.00  0.00    +0.342 C 
ATOM      7  O   LIG    1        5.689  -5.499   0.095  0.00  0.00    -0.451 OA
ATOM      8  C   LIG    1        4.743  -4.368   0.116  0.00  0.00    +0.233 C 
ATOM      9  O   LIG    1        6.692  -6.819  -1.464  0.00  0.00    -0.245 OA
ATOM     10  C   LIG    1        4.603  -4.027  -1.384  0.00  0.00    +0.056 A 
ENDROOT
BRANCH   8  11
ATOM     11  C   LIG    1        5.385  -3.268   1.157  0.00  0.00    +0.136 C 
ATOM     12  N   LIG    1        4.632  -1.973   1.052  0.00  0.00    -0.295 NA
ATOM     13  C   LIG    1        5.443  -0.883   0.489  0.00  0.00    +0.105 C 
ATOM     14  C   LIG    1        4.073  -1.500   2.326  0.00  0.00    +0.089 C 
ATOM     15  C   LIG    1        3.345  -2.600   3.100  0.00  0.00    +0.051 C 
ATOM     16  C   LIG    1        4.313  -3.697   3.447  0.00  0.00    -0.034 A 
ATOM     17  C   LIG    1        4.116  -4.492   4.594  0.00  0.00    +0.053 A 
ATOM     18  C   LIG    1        5.041  -5.469   4.870  0.00  0.00    +0.170 A 
ATOM     19  O   LIG    1        4.983  -6.379   5.882  0.00  0.00    -0.453 OA
ATOM     20  C   LIG    1        6.144  -7.180   5.599  0.00  0.00    +0.467 C 
ATOM     21  O   LIG    1        6.954  -6.619   4.570  0.00  0.00    -0.449 OA
ATOM     22  C   LIG    1        6.193  -5.569   4.137  0.00  0.00    +0.208 A 
ATOM     23  C   LIG    1        6.505  -4.678   3.108  0.00  0.00    +0.170 A 
ATOM     24  C   LIG    1        5.450  -3.868   2.612  0.00  0.00    +0.022 A 
BRANCH  23  25
ATOM     25  O   LIG    1        7.801  -4.459   2.685  0.00  0.00    -0.491 OA
ATOM     26  C   LIG    1        8.793  -5.262   3.356  0.00  0.00    +0.277 C 
ENDBRANCH  23  25
ENDBRANCH   8  11
BRANCH   4  27
ATOM     27  N   LIG    1        6.776  -5.585  -4.007  0.00  0.00    -0.354 N 
ATOM     28  H   LIG    1        6.308  -6.257  -4.606  0.00  0.00    +0.142 HD
ATOM     29  H   LIG    1        7.269  -6.121  -3.277  0.00  0.00    +0.142 HD
ENDBRANCH   4  27
BRANCH   1  30
ATOM     30  O   LIG    1        2.705  -2.539  -1.672  0.00  0.00    -0.488 OA
BRANCH  30  32
ATOM     31  C   LIG    1        1.270  -3.240  -3.624  0.00  0.00    +0.048 C 
ATOM     32  C   LIG    1        1.635  -2.166  -2.602  0.00  0.00    +0.226 C 
ENDBRANCH  30  32
ENDBRANCH   1  30
BRANCH   2  33
ATOM     33  O   LIG    1        3.867  -1.527  -3.999  0.00  0.00    -0.485 OA
BRANCH  33  34
ATOM     34  C   LIG    1        4.508  -0.599  -4.902  0.00  0.00    +0.226 C 
ATOM     35  C   LIG    1        3.858  -0.567  -6.261  0.00  0.00    +0.048 C 
ENDBRANCH  33  34
ENDBRANCH   2  33
BRANCH   3  36
ATOM     36  O   LIG    1        5.683  -3.425  -5.510  0.00  0.00    -0.487 OA
BRANCH  36  37
ATOM     37  C   LIG    1        4.907  -3.945  -6.657  0.00  0.00    +0.226 C 
ATOM     38  C   LIG    1        4.227  -2.843  -7.391  0.00  0.00    +0.048 C 
ENDBRANCH  36  37
ENDBRANCH   3  36
TORSDOF 9
