REMARK  Name = *****
REMARK                            x       y       z     vdW  Elec       q    Type
REMARK                         _______ _______ _______ _____ _____    ______ ____
ROOT
ATOM      1  C   LIG    1        4.716  -2.738   0.223  0.00  0.00    +0.180 C 
ATOM      2  O   LIG    1        4.541  -3.785  -0.422  0.00  0.00    -0.290 OA
ENDROOT
BRANCH   1   3
ATOM      3  C   LIG    1        5.831  -2.690   1.226  0.00  0.00    +0.019 A 
ATOM      4  C   LIG    1        6.678  -3.797   1.362  0.00  0.00    +0.011 A 
ATOM      5  C   LIG    1        7.729  -3.774   2.285  0.00  0.00    +0.001 A 
ATOM      6  C   LIG    1        7.946  -2.643   3.072  0.00  0.00    +0.000 A 
ATOM      7  C   LIG    1        7.108  -1.542   2.950  0.00  0.00    +0.001 A 
ATOM      8  C   LIG    1        6.051  -1.573   2.044  0.00  0.00    +0.011 A 
ENDBRANCH   1   3
BRANCH   1   9
ATOM      9  C   LIG    1        3.814  -1.509  -0.030  0.00  0.00    +0.125 C 
ATOM     10  C   LIG    1        4.683  -0.424  -0.695  0.00  0.00    +0.032 C 
BRANCH   9  11
ATOM     11  N   LIG    1        3.114  -1.058   1.211  0.00  0.00    -0.293 NA
BRANCH  11  13
ATOM     12  C   LIG    1        0.985  -0.081   0.201  0.00  0.00    +0.020 C 
ATOM     13  C   LIG    1        2.262   0.127   1.010  0.00  0.00    +0.082 C 
ENDBRANCH  11  13
BRANCH  11  14
ATOM     14  C   LIG    1        2.416  -2.154   1.915  0.00  0.00    +0.082 C 
ATOM     15  C   LIG    1        1.947  -1.745   3.311  0.00  0.00    +0.020 C 
ENDBRANCH  11  14
ENDBRANCH   9  11
ENDBRANCH   1   9
TORSDOF 5
