REMARK  Name = *****
REMARK                            x       y       z     vdW  Elec       q    Type
REMARK                         _______ _______ _______ _____ _____    ______ ____
ROOT
ATOM      1  C   LIG    1        2.772  -9.436  -0.275  0.00  0.00    +0.042 C 
ATOM      2  C   LIG    1        3.019  -8.172   0.527  0.00  0.00    -0.034 C 
ATOM      3  C   LIG    1        1.813  -7.248   0.478  0.00  0.00    +0.103 C 
ATOM      4  S   LIG    1        2.178  -5.519   0.868  0.00  0.00    -0.131 S 
ATOM      5  C   LIG    1        3.136  -5.960   2.336  0.00  0.00    +0.169 C 
ATOM      6  N   LIG    1        4.281  -6.740   1.903  0.00  0.00    -0.249 N 
ATOM      7  C   LIG    1        5.221  -5.976   2.504  0.00  0.00    +0.244 C 
ATOM      8  O   LIG    1        6.403  -6.167   2.616  0.00  0.00    -0.273 OA
ATOM      9  CA  LIG    1        4.143  -4.891   2.865  0.00  0.00    +0.191 C 
ATOM     10  CA  LIG    1        4.184  -7.901   1.184  0.00  0.00    +0.122 C 
ENDROOT
BRANCH   9  11
ATOM     11  N   LIG    1        4.212  -3.616   2.108  0.00  0.00    -0.300 N 
ATOM     12  H   LIG    1        3.588  -3.448   1.318  0.00  0.00    +0.150 HD
ATOM     13  C   LIG    1        4.926  -2.514   2.534  0.00  0.00    +0.235 C 
ATOM     14  O   LIG    1        5.608  -2.536   3.555  0.00  0.00    -0.274 OA
BRANCH  13  15
ATOM     15  CA  LIG    1        4.771  -1.256   1.627  0.00  0.00    +0.168 C 
BRANCH  15  16
ATOM     16  C   LIG    1        6.065  -0.748   1.006  0.00  0.00    -0.022 A 
ATOM     17  C   LIG    1        6.231   0.633   0.783  0.00  0.00    +0.006 A 
ATOM     18  C   LIG    1        7.414   1.141   0.234  0.00  0.00    +0.000 A 
ATOM     19  C   LIG    1        8.447   0.278  -0.116  0.00  0.00    +0.000 A 
ATOM     20  C   LIG    1        8.290  -1.094   0.066  0.00  0.00    +0.000 A 
ATOM     21  C   LIG    1        7.107  -1.605   0.615  0.00  0.00    +0.006 A 
ENDBRANCH  15  16
BRANCH  15  22
ATOM     22  N   LIG    1        3.737  -1.503   0.585  0.00  0.00    -0.316 NA
ATOM     23  H1  LIG    1        3.495  -0.600   0.175  0.00  0.00    +0.119 HD
ATOM     24  H2  LIG    1        4.172  -2.025  -0.177  0.00  0.00    +0.119 HD
ENDBRANCH  15  22
ENDBRANCH  13  15
ENDBRANCH   9  11
BRANCH  10  25
ATOM     25  C   LIG    1        5.346  -8.879   1.099  0.00  0.00    +0.351 C 
ATOM     26  O   LIG    1        5.311  -9.923   0.461  0.00  0.00    -0.244 OA
BRANCH  25  27
ATOM     27  OXT LIG    1        6.443  -8.596   1.825  0.00  0.00    -0.476 OA
ATOM     28  HXT LIG    1        6.509  -7.711   2.244  0.00  0.00    +0.295 HD
ENDBRANCH  25  27
ENDBRANCH  10  25
TORSDOF 6
