REMARK  Name = *****
REMARK                            x       y       z     vdW  Elec       q    Type
REMARK                         _______ _______ _______ _____ _____    ______ ____
ROOT
ATOM      1  N   LIG    1        0.579  -0.515   1.749  0.00  0.00    -0.297 N 
ATOM      2  C   LIG    1       -0.820  -0.734   1.859  0.00  0.00    +0.050 A 
ATOM      3  C   LIG    1       -1.357  -1.677   2.756  0.00  0.00    +0.034 A 
ATOM      4  C   LIG    1       -2.735  -1.951   2.755  0.00  0.00    +0.019 A 
ATOM      5  C   LIG    1       -3.597  -1.287   1.883  0.00  0.00    +0.030 A 
ATOM      6  C   LIG    1       -3.087  -0.278   1.068  0.00  0.00    +0.107 A 
ATOM      7  S   LIG    1       -0.357  -2.635   3.873  0.00  0.00    -0.086 S 
ATOM      8  C   LIG    1        1.226  -1.829   3.741  0.00  0.00    +0.034 A 
ATOM      9  C   LIG    1        2.193  -2.194   4.694  0.00  0.00    +0.017 A 
ATOM     10  C   LIG    1        3.463  -1.625   4.673  0.00  0.00    +0.001 A 
ATOM     11  C   LIG    1        3.773  -0.682   3.704  0.00  0.00    +0.002 A 
ATOM     12  C   LIG    1        2.820  -0.326   2.745  0.00  0.00    +0.024 A 
ATOM     13  C   LIG    1       -1.723   0.008   1.072  0.00  0.00    +0.053 A 
ATOM     14  C   LIG    1        1.534  -0.903   2.725  0.00  0.00    +0.048 A 
ENDROOT
BRANCH   6  15
ATOM     15  S   LIG    1       -4.161   0.545  -0.091  0.00  0.00    +0.060 S 
ATOM     16  O   LIG    1       -5.213  -0.388  -0.417  0.00  0.00    -0.153 OA
ATOM     17  O   LIG    1       -3.331   1.128  -1.136  0.00  0.00    -0.153 OA
BRANCH  15  18
ATOM     18  N   LIG    1       -4.822   1.808   0.840  0.00  0.00    -0.183 NA
ATOM     19  C   LIG    1       -6.164   2.260   0.415  0.00  0.00    +0.131 C 
ATOM     20  C   LIG    1       -3.919   2.940   1.134  0.00  0.00    +0.131 C 
ENDBRANCH  15  18
ENDBRANCH   6  15
BRANCH   1  21
ATOM     21  C   LIG    1        1.087  -0.370   0.353  0.00  0.00    +0.129 C 
BRANCH  21  23
ATOM     22  C   LIG    1        0.684  -2.854  -0.243  0.00  0.00    +0.026 C 
ATOM     23  C   LIG    1        1.671  -1.674  -0.284  0.00  0.00    +0.071 C 
BRANCH  23  24
ATOM     24  N   LIG    1        2.170  -1.514  -1.681  0.00  0.00    -0.304 NA
ATOM     25  C   LIG    1        3.349  -0.654  -1.754  0.00  0.00    +0.105 C 
ATOM     26  C   LIG    1        1.157  -1.079  -2.644  0.00  0.00    +0.105 C 
ENDBRANCH  23  24
ENDBRANCH  21  23
ENDBRANCH   1  21
TORSDOF 5
