REMARK  Name = *****
REMARK                            x       y       z     vdW  Elec       q    Type
REMARK                         _______ _______ _______ _____ _____    ______ ____
ROOT
ATOM      1  C   LIG    1        3.561  -2.095  -1.972  0.00  0.00    +0.163 C 
ATOM      2  C   LIG    1        3.318  -0.579  -2.301  0.00  0.00    +0.114 C 
ATOM      3  C   LIG    1        4.699  -0.210  -2.821  0.00  0.00    +0.037 C 
ATOM      4  C   LIG    1        5.309   1.108  -2.848  0.00  0.00    +0.205 C 
ATOM      5  C   LIG    1        6.693   1.220  -3.459  0.00  0.00    +0.079 C 
ATOM      6  C   LIG    1        7.287   0.140  -4.010  0.00  0.00    +0.022 C 
ATOM      7  C   LIG    1        6.619  -1.202  -4.010  0.00  0.00    +0.205 C 
ATOM      8  O   LIG    1        7.084  -2.161  -4.616  0.00  0.00    -0.286 OA
ATOM      9  C   LIG    1        8.629   0.155  -4.682  0.00  0.00    +0.050 C 
ATOM     10  O   LIG    1        4.758   2.080  -2.342  0.00  0.00    -0.286 OA
ATOM     11  C   LIG    1        5.345  -1.286  -3.266  0.00  0.00    +0.087 C 
ATOM     12  N   LIG    1        4.668  -2.431  -2.901  0.00  0.00    -0.295 N 
ATOM     13  C   LIG    1        4.447  -3.636  -3.684  0.00  0.00    +0.128 C 
ATOM     14  C   LIG    1        3.047  -4.067  -3.318  0.00  0.00    +0.093 C 
ATOM     15  N   LIG    1        2.724  -4.574  -1.987  0.00  0.00    -0.302 NA
ATOM     16  H   LIG    1        1.840  -5.082  -1.991  0.00  0.00    +0.123 HD
ATOM     17  C   LIG    1        2.509  -3.135  -2.282  0.00  0.00    +0.124 C 
ENDROOT
BRANCH   5  18
ATOM     18  N   LIG    1        7.252   2.494  -3.393  0.00  0.00    -0.355 N 
ATOM     19  H   LIG    1        8.242   2.488  -3.164  0.00  0.00    +0.142 HD
ATOM     20  H   LIG    1        6.719   3.081  -2.742  0.00  0.00    +0.142 HD
ENDBRANCH   5  18
BRANCH   1  22
ATOM     21  C   LIG    1        3.128  -2.148   0.394  0.00  0.00    +0.196 C 
ATOM     22  O   LIG    1        4.087  -2.239  -0.645  0.00  0.00    -0.357 OA
ENDBRANCH   1  22
BRANCH   2  23
ATOM     23  C   LIG    1        2.320  -0.279  -3.436  0.00  0.00    +0.246 C 
BRANCH  23  24
ATOM     24  O   LIG    1        0.938  -0.504  -3.109  0.00  0.00    -0.450 OA
BRANCH  24  25
ATOM     25  C   LIG    1        0.277   0.575  -2.616  0.00  0.00    +0.398 C 
ATOM     26  O   LIG    1        0.773   1.623  -2.264  0.00  0.00    -0.227 OA
ATOM     27  N   LIG    1       -1.061   0.358  -2.617  0.00  0.00    -0.295 N 
ATOM     28  H   LIG    1       -1.621   1.158  -2.354  0.00  0.00    +0.148 HD
ATOM     29  H   LIG    1       -1.438  -0.259  -3.322  0.00  0.00    +0.148 HD
ENDBRANCH  24  25
ENDBRANCH  23  24
ENDBRANCH   2  23
TORSDOF 5
