REMARK  Name = *****
REMARK                            x       y       z     vdW  Elec       q    Type
REMARK                         _______ _______ _______ _____ _____    ______ ____
ROOT
ATOM      1  C   LIG    1        0.796  -0.088   0.090  0.00  0.00    +0.048 C 
ATOM      2  C   LIG    1        2.299  -0.029   0.043  0.00  0.00    -0.001 C 
ATOM      3  C   LIG    1        3.017   1.184  -0.034  0.00  0.00    +0.052 C 
ATOM      4  C   LIG    1        2.323   2.514  -0.069  0.00  0.00    +0.204 C 
ATOM      5  C   LIG    1        3.138   3.748  -0.103  0.00  0.00    +0.122 C 
ATOM      6  C   LIG    1        4.469   3.602  -0.112  0.00  0.00    +0.105 C 
ATOM      7  N   LIG    1        5.151   2.403  -0.075  0.00  0.00    -0.343 NA
ATOM      8  O   LIG    1        1.099   2.628  -0.081  0.00  0.00    -0.286 OA
ATOM      9  C   LIG    1        4.429   1.172  -0.080  0.00  0.00    +0.055 C 
ATOM     10  C   LIG    1        5.091  -0.072  -0.106  0.00  0.00    +0.052 C 
ATOM     11  C   LIG    1        4.418  -1.302  -0.021  0.00  0.00    +0.068 C 
ATOM     12  C   LIG    1        3.017  -1.241   0.071  0.00  0.00    +0.148 C 
ATOM     13  F   LIG    1        2.308  -2.379   0.157  0.00  0.00    -0.203 F 
ENDROOT
BRANCH  11  14
ATOM     14  N   LIG    1        5.192  -2.483  -0.003  0.00  0.00    -0.325 NA
ATOM     15  C   LIG    1        5.864  -2.768  -1.297  0.00  0.00    +0.123 C 
ATOM     16  C   LIG    1        6.830  -3.986  -1.185  0.00  0.00    +0.068 C 
ATOM     17  C   LIG    1        7.376  -4.362  -2.564  0.00  0.00    +0.025 C 
ATOM     18  N   LIG    1        6.207  -5.191  -0.590  0.00  0.00    -0.310 NA
ATOM     19  H   LIG    1        5.446  -5.496  -1.198  0.00  0.00    +0.122 HD
ATOM     20  C   LIG    1        5.630  -4.823   0.718  0.00  0.00    +0.100 C 
ATOM     21  C   LIG    1        4.591  -3.684   0.618  0.00  0.00    +0.120 C 
ENDBRANCH  11  14
BRANCH   7  22
ATOM     22  C   LIG    1        6.626   2.449  -0.084  0.00  0.00    +0.087 C 
ATOM     23  C   LIG    1        7.407   3.308   0.884  0.00  0.00    +0.027 C 
ATOM     24  C   LIG    1        7.446   1.821   1.018  0.00  0.00    +0.027 C 
ENDBRANCH   7  22
BRANCH   5  25
ATOM     25  C   LIG    1        2.570   5.113  -0.125  0.00  0.00    +0.342 C 
ATOM     26  O   LIG    1        3.257   6.128  -0.159  0.00  0.00    -0.245 OA
BRANCH  25  27
ATOM     27  O   LIG    1        1.221   5.165  -0.100  0.00  0.00    -0.477 OA
ATOM     28  H   LIG    1        0.789   4.276  -0.072  0.00  0.00    +0.295 HD
ENDBRANCH  25  27
ENDBRANCH   5  25
TORSDOF 4
