REMARK  Name = *****
REMARK                            x       y       z     vdW  Elec       q    Type
REMARK                         _______ _______ _______ _____ _____    ______ ____
ROOT
ATOM      1  O   LIG    1        4.377  -2.220  -1.227  0.00  0.00    -0.489 OA
ENDROOT
BRANCH   1   3
ATOM      2  C   LIG    1        6.588  -1.809  -1.937  0.00  0.00    -0.002 A 
ATOM      3  C   LIG    1        5.378  -1.303  -1.417  0.00  0.00    +0.124 A 
ATOM      4  C   LIG    1        5.273   0.062  -1.135  0.00  0.00    +0.046 A 
ATOM      5  C   LIG    1        6.342   0.926  -1.397  0.00  0.00    +0.004 A 
ATOM      6  C   LIG    1        7.523   0.436  -1.946  0.00  0.00    +0.001 A 
ATOM      7  C   LIG    1        7.647  -0.924  -2.213  0.00  0.00    +0.007 A 
BRANCH   2   8
ATOM      8  C   LIG    1        6.790  -3.288  -2.197  0.00  0.00    +0.065 C 
BRANCH   8  10
ATOM      9  C   LIG    1        7.378  -4.016   0.142  0.00  0.00    +0.004 C 
ATOM     10  C   LIG    1        6.652  -4.150  -0.967  0.00  0.00    -0.030 C 
ENDBRANCH   8  10
ENDBRANCH   2   8
ENDBRANCH   1   3
BRANCH   1  11
ATOM     11  C   LIG    1        3.144  -1.772  -0.649  0.00  0.00    +0.261 C 
BRANCH  11  12
ATOM     12  C   LIG    1        2.208  -2.984  -0.465  0.00  0.00    +0.166 C 
BRANCH  12  13
ATOM     13  O   LIG    1        1.956  -3.602  -1.739  0.00  0.00    -0.387 OA
ATOM     14  H   LIG    1        2.825  -3.886  -2.078  0.00  0.00    +0.210 HD
ENDBRANCH  12  13
BRANCH  12  15
ATOM     15  C   LIG    1        2.828  -4.020   0.496  0.00  0.00    +0.115 C 
BRANCH  15  16
ATOM     16  N   LIG    1        1.955  -5.185   0.694  0.00  0.00    -0.311 NA
ATOM     17  H   LIG    1        1.727  -5.588  -0.217  0.00  0.00    +0.122 HD
BRANCH  16  18
ATOM     18  C   LIG    1        2.524  -6.193   1.598  0.00  0.00    +0.048 C 
ATOM     19  C   LIG    1        3.872  -6.755   1.137  0.00  0.00    +0.024 C 
ATOM     20  C   LIG    1        1.523  -7.343   1.747  0.00  0.00    +0.024 C 
ENDBRANCH  16  18
ENDBRANCH  15  16
ENDBRANCH  12  15
ENDBRANCH  11  12
ENDBRANCH   1  11
TORSDOF 9
