REMARK  Name = *****
REMARK                            x       y       z     vdW  Elec       q    Type
REMARK                         _______ _______ _______ _____ _____    ______ ____
ROOT
ATOM      1  C   LIG    1       -5.626   1.468  -2.822  0.00  0.00    +0.186 C 
ATOM      2  O   LIG    1       -4.598   1.489  -1.482  0.00  0.00    -0.459 OA
ATOM      3  C   LIG    1       -3.792   1.625  -0.436  0.00  0.00    +0.328 C 
ATOM      4  O   LIG    1       -3.662   0.713   0.370  0.00  0.00    -0.249 OA
ATOM      5  C   LIG    1       -3.096   2.979  -0.280  0.00  0.00    +0.185 C 
ATOM      6  N   LIG    1       -3.908   3.877   0.556  0.00  0.00    -0.281 N 
ATOM      7  C   LIG    1       -3.243   5.096   1.010  0.00  0.00    +0.109 C 
ATOM      8  C   LIG    1       -1.841   4.879   1.569  0.00  0.00    +0.019 C 
ATOM      9  C   LIG    1       -0.992   4.013   0.647  0.00  0.00    +0.004 C 
ATOM     10  C   LIG    1       -5.240   4.112   0.169  0.00  0.00    +0.288 C 
ATOM     11  O   LIG    1       -6.101   4.619   0.878  0.00  0.00    -0.267 OA
ATOM     12  C   LIG    1       -5.569   3.888  -1.293  0.00  0.00    +0.276 C 
ATOM     13  O   LIG    1       -4.910   4.513  -2.119  0.00  0.00    -0.281 OA
ATOM     14  C   LIG    1       -6.732   2.922  -1.616  0.00  0.00    +0.240 C 
ATOM     15  O   LIG    1       -6.635   1.343  -0.817  0.00  0.00    -0.339 OA
ATOM     16  C   LIG    1       -6.340  -0.273  -1.607  0.00  0.00    +0.125 C 
ATOM     17  C   LIG    1       -6.731  -0.424  -3.507  0.00  0.00    +0.032 C 
ATOM     18  C   LIG    1       -6.892   1.244  -4.522  0.00  0.00    +0.011 C 
ATOM     19  C   LIG    1       -6.633  -1.322  -0.488  0.00  0.00    +0.067 C 
ATOM     20  C   LIG    1       -7.684  -2.421  -0.605  0.00  0.00    +0.146 C 
ATOM     21  C   LIG    1       -8.997  -1.874  -1.068  0.00  0.00    -0.044 C 
ATOM     22  C   LIG    1       -9.549  -2.432  -2.364  0.00  0.00    +0.041 C 
ATOM     23  C   LIG    1       -9.707  -0.926  -0.427  0.00  0.00    +0.001 C 
ATOM     24  C   LIG    1       -9.658  -0.363   0.917  0.00  0.00    +0.000 C 
ATOM     25  C   LIG    1      -10.511   0.642   1.206  0.00  0.00    -0.000 C 
ATOM     26  C   LIG    1      -11.158   0.841   2.490  0.00  0.00    -0.004 C 
ATOM     27  C   LIG    1      -12.361   1.451   2.543  0.00  0.00    -0.024 C 
ATOM     28  C   LIG    1      -13.326   1.351   3.704  0.00  0.00    +0.009 C 
ATOM     29  C   LIG    1      -13.884   2.733   4.060  0.00  0.00    +0.012 C 
ATOM     30  C   LIG    1      -14.519   0.375   3.461  0.00  0.00    +0.018 C 
ATOM     31  C   LIG    1      -14.277  -0.774   2.451  0.00  0.00    +0.056 C 
ATOM     32  C   LIG    1      -15.295  -1.895   2.669  0.00  0.00    +0.015 C 
ATOM     33  C   LIG    1      -14.394  -0.271   1.007  0.00  0.00    +0.167 C 
ATOM     34  O   LIG    1      -15.162   0.670   0.756  0.00  0.00    -0.294 OA
ATOM     35  C   LIG    1      -13.657  -1.006  -0.157  0.00  0.00    +0.216 C 
ATOM     36  C   LIG    1      -13.399   0.088  -1.294  0.00  0.00    +0.176 C 
ATOM     37  C   LIG    1      -12.717  -0.369  -2.582  0.00  0.00    -0.045 C 
ATOM     38  C   LIG    1      -13.405  -1.533  -3.268  0.00  0.00    +0.041 C 
ATOM     39  C   LIG    1      -11.647   0.184  -3.211  0.00  0.00    -0.015 C 
ATOM     40  C   LIG    1      -10.653   1.319  -2.880  0.00  0.00    +0.075 C 
ATOM     41  C   LIG    1      -11.303   2.585  -3.438  0.00  0.00    +0.019 C 
ATOM     42  C   LIG    1       -9.228   0.953  -3.560  0.00  0.00    +0.143 C 
ATOM     43  O   LIG    1       -9.280   0.344  -4.636  0.00  0.00    -0.297 OA
ATOM     44  C   LIG    1       -7.017   2.926  -3.532  0.00  0.00    +0.054 C 
ATOM     45  C   LIG    1       -8.212   3.787  -3.938  0.00  0.00    +0.013 C 
ATOM     46  C   LIG    1       -1.722   2.711   0.361  0.00  0.00    +0.034 C 
ATOM     47  C   LIG    1       -7.721   1.191  -2.601  0.00  0.00    +0.119 C 
ENDROOT
BRANCH   1  48
ATOM     48  C   LIG    1       -4.364   2.007  -4.071  0.00  0.00    +0.027 C 
ATOM     49  C   LIG    1       -2.918   1.949  -3.515  0.00  0.00    +0.011 C 
BRANCH  48  50
ATOM     50  C   LIG    1       -4.450   3.242  -5.059  0.00  0.00    +0.010 C 
BRANCH  50  55
ATOM     51  C   LIG    1       -4.020   2.171  -8.178  0.00  0.00    +0.147 C 
ATOM     52  C   LIG    1       -4.316   3.517  -8.879  0.00  0.00    +0.143 C 
ATOM     53  C   LIG    1       -4.590   4.654  -7.891  0.00  0.00    +0.034 C 
ATOM     54  C   LIG    1       -3.459   4.772  -6.873  0.00  0.00    +0.006 C 
ATOM     55  C   LIG    1       -3.269   3.474  -6.059  0.00  0.00    -0.008 C 
ATOM     56  C   LIG    1       -2.992   2.319  -7.040  0.00  0.00    +0.037 C 
BRANCH  51  58
ATOM     57  C   LIG    1       -6.155   1.194  -8.609  0.00  0.00    +0.194 C 
ATOM     58  O   LIG    1       -5.186   1.550  -7.630  0.00  0.00    -0.377 OA
ENDBRANCH  51  58
BRANCH  52  59
ATOM     59  O   LIG    1       -3.194   3.851  -9.706  0.00  0.00    -0.389 OA
ATOM     60  H   LIG    1       -3.166   4.817  -9.809  0.00  0.00    +0.210 HD
ENDBRANCH  52  59
ENDBRANCH  50  55
ENDBRANCH  48  50
ENDBRANCH   1  48
BRANCH  14  61
ATOM     61  O   LIG    1       -7.880   3.596  -1.020  0.00  0.00    -0.358 OA
ATOM     62  H   LIG    1       -7.692   3.702  -0.064  0.00  0.00    +0.213 HD
ENDBRANCH  14  61
BRANCH  20  63
ATOM     63  O   LIG    1       -7.283  -3.476  -1.483  0.00  0.00    -0.375 OA
ATOM     64  C   LIG    1       -6.178  -4.250  -1.052  0.00  0.00    +0.194 C 
ENDBRANCH  20  63
BRANCH  35  65
ATOM     65  O   LIG    1      -12.409  -1.599   0.137  0.00  0.00    -0.369 OA
ATOM     66  C   LIG    1      -12.349  -2.765   0.933  0.00  0.00    +0.195 C 
ENDBRANCH  35  65
BRANCH  36  67
ATOM     67  O   LIG    1      -14.643   0.646  -1.751  0.00  0.00    -0.385 OA
ATOM     68  H   LIG    1      -15.092   1.010  -0.958  0.00  0.00    +0.210 HD
ENDBRANCH  36  67
TORSDOF 9
