REMARK  Name = *****
REMARK                            x       y       z     vdW  Elec       q    Type
REMARK                         _______ _______ _______ _____ _____    ______ ____
ROOT
ATOM      1  N   LIG    1        9.640   3.504  -0.155  0.00  0.00    -0.087 NA
ATOM      2  C   LIG    1        8.999   4.226  -1.049  0.00  0.00    +0.108 C 
ENDROOT
BRANCH   2   3
ATOM      3  C   LIG    1        7.924   5.253  -0.766  0.00  0.00    +0.020 A 
ATOM      4  C   LIG    1        7.736   6.450  -1.503  0.00  0.00    +0.051 A 
ATOM      5 CL   LIG    1        8.854   7.075  -2.660  0.00  0.00    -0.083 Cl
ATOM      6  C   LIG    1        6.633   7.276  -1.254  0.00  0.00    +0.040 A 
ATOM      7  C   LIG    1        5.760   6.994  -0.213  0.00  0.00    +0.042 A 
ATOM      8 CL   LIG    1        4.438   8.041   0.108  0.00  0.00    -0.084 Cl
ATOM      9  C   LIG    1        5.965   5.869   0.577  0.00  0.00    +0.021 A 
ATOM     10  C   LIG    1        7.008   4.995   0.271  0.00  0.00    +0.013 A 
ENDBRANCH   2   3
BRANCH   1  11
ATOM     11  O   LIG    1        9.339   3.854   1.150  0.00  0.00    -0.389 OA
BRANCH  11  12
ATOM     12  C   LIG    1       10.380   3.375   2.010  0.00  0.00    +0.299 C 
BRANCH  12  18
ATOM     13 CL   LIG    1       10.527   6.802   6.981  0.00  0.00    -0.084 Cl
ATOM     14  C   LIG    1       10.477   5.859   5.543  0.00  0.00    +0.042 A 
ATOM     15  C   LIG    1       11.559   5.878   4.668  0.00  0.00    +0.040 A 
ATOM     16  C   LIG    1       11.535   5.091   3.513  0.00  0.00    +0.049 A 
ATOM     17 CL   LIG    1       12.917   5.180   2.479  0.00  0.00    -0.083 Cl
ATOM     18  C   LIG    1       10.432   4.271   3.225  0.00  0.00    +0.011 A 
ATOM     19  C   LIG    1        9.337   4.288   4.111  0.00  0.00    +0.010 A 
ATOM     20  C   LIG    1        9.361   5.076   5.265  0.00  0.00    +0.020 A 
ENDBRANCH  12  18
ENDBRANCH  11  12
ENDBRANCH   1  11
BRANCH   2  21
ATOM     21  C   LIG    1        9.398   3.937  -2.499  0.00  0.00    +0.182 C 
BRANCH  21  22
ATOM     22  N   LIG    1        8.295   3.598  -3.373  0.00  0.00    -0.331 N 
ATOM     23  C   LIG    1        7.529   2.465  -3.285  0.00  0.00    +0.199 A 
ATOM     24  N   LIG    1        6.662   2.400  -4.273  0.00  0.00    -0.244 NA
ATOM     25  C   LIG    1        6.893   3.515  -5.034  0.00  0.00    +0.130 A 
ATOM     26  C   LIG    1        7.908   4.269  -4.496  0.00  0.00    +0.107 A 
ENDBRANCH  21  22
ENDBRANCH   2  21
TORSDOF 6
