REMARK  Name = *****
REMARK                            x       y       z     vdW  Elec       q    Type
REMARK                         _______ _______ _______ _____ _____    ______ ____
ROOT
ATOM      1  C   LIG    1        0.643   3.909  -2.700  0.00  0.00    +0.013 C 
ATOM      2  C   LIG    1        1.965   3.985  -2.928  0.00  0.00    -0.035 C 
ATOM      3  C   LIG    1        2.663   3.814  -4.277  0.00  0.00    +0.085 C 
ATOM      4  C   LIG    1        3.397   5.092  -4.626  0.00  0.00    +0.050 C 
ATOM      5  C   LIG    1        3.608   5.493  -5.895  0.00  0.00    +0.141 C 
ATOM      6  C   LIG    1        3.171   4.685  -7.084  0.00  0.00    +0.192 C 
ATOM      7  C   LIG    1        2.644   3.278  -6.761  0.00  0.00    +0.090 C 
ATOM      8  C   LIG    1        1.989   2.687  -8.058  0.00  0.00    +0.132 C 
ATOM      9  C   LIG    1        2.783   3.056  -9.345  0.00  0.00    +0.127 C 
ATOM     10  C   LIG    1        3.887   3.844  -9.369  0.00  0.00    +0.121 C 
ATOM     11  C   LIG    1        4.332   4.343  -8.037  0.00  0.00    +0.211 C 
ATOM     12  O   LIG    1        5.507   4.277  -7.685  0.00  0.00    -0.288 OA
ATOM     13  C   LIG    1        3.833   5.981  -3.504  0.00  0.00    +0.197 C 
ATOM     14  O   LIG    1        4.161   7.144  -3.726  0.00  0.00    -0.287 OA
ATOM     15  C   LIG    1        3.833   5.397  -2.140  0.00  0.00    +0.072 A 
ATOM     16  C   LIG    1        4.743   5.847  -1.170  0.00  0.00    +0.128 A 
ATOM     17  C   LIG    1        4.751   5.287   0.103  0.00  0.00    +0.047 A 
ATOM     18  C   LIG    1        3.864   4.255   0.401  0.00  0.00    +0.024 A 
ATOM     19  C   LIG    1        2.954   3.794  -0.561  0.00  0.00    +0.049 A 
ATOM     20 CL   LIG    1        1.982   2.436  -0.108  0.00  0.00    -0.083 Cl
ATOM     21  C   LIG    1        1.783   3.306  -5.478  0.00  0.00    +0.135 C 
ATOM     22  C   LIG    1        2.902   4.380  -1.841  0.00  0.00    +0.011 A 
ENDROOT
BRANCH  10  23
ATOM     23  C   LIG    1        4.649   4.220 -10.586  0.00  0.00    +0.248 C 
ATOM     24  O   LIG    1        5.813   4.627 -10.556  0.00  0.00    -0.270 OA
ATOM     25  N   LIG    1        3.992   4.153 -11.771  0.00  0.00    -0.325 N 
ATOM     26  H   LIG    1        3.023   3.856 -11.821  0.00  0.00    +0.145 HD
ATOM     27  H   LIG    1        4.474   4.444 -12.609  0.00  0.00    +0.145 HD
ENDBRANCH  10  23
BRANCH   8  28
ATOM     28  N   LIG    1        1.707   1.237  -7.874  0.00  0.00    -0.298 NA
ATOM     29  C   LIG    1        0.620   0.731  -8.716  0.00  0.00    +0.105 C 
ATOM     30  C   LIG    1        2.874   0.356  -7.933  0.00  0.00    +0.105 C 
ENDBRANCH   8  28
BRANCH   5  31
ATOM     31  O   LIG    1        4.129   6.735  -6.234  0.00  0.00    -0.507 OA
ATOM     32  H   LIG    1        4.360   7.212  -5.401  0.00  0.00    +0.292 HD
ENDBRANCH   5  31
BRANCH   6  33
ATOM     33  O   LIG    1        2.161   5.473  -7.718  0.00  0.00    -0.373 OA
ATOM     34  H   LIG    1        2.513   6.388  -7.721  0.00  0.00    +0.211 HD
ENDBRANCH   6  33
BRANCH   9  35
ATOM     35  O   LIG    1        2.238   2.584 -10.534  0.00  0.00    -0.509 OA
ATOM     36  H   LIG    1        2.385   1.621 -10.540  0.00  0.00    +0.292 HD
ENDBRANCH   9  35
BRANCH  16  37
ATOM     37  O   LIG    1        5.666   6.806  -1.473  0.00  0.00    -0.506 OA
ATOM     38  H   LIG    1        6.115   7.114  -0.669  0.00  0.00    +0.292 HD
ENDBRANCH  16  37
BRANCH  21  39
ATOM     39  O   LIG    1        1.310   1.993  -5.152  0.00  0.00    -0.390 OA
ATOM     40  H   LIG    1        1.417   1.417  -5.936  0.00  0.00    +0.210 HD
ENDBRANCH  21  39
TORSDOF 7
