REMARK  Name = *****
REMARK                            x       y       z     vdW  Elec       q    Type
REMARK                         _______ _______ _______ _____ _____    ______ ____
ROOT
ATOM      1  O   LIG    1        4.726   0.898   2.054  0.00  0.00    -0.343 OA
ENDROOT
BRANCH   1   3
ATOM      2  C   LIG    1        5.206   0.060   4.705  0.00  0.00    +0.188 C 
ATOM      3  C   LIG    1        5.021   1.207   3.530  0.00  0.00    +0.157 C 
ATOM      4  C   LIG    1        6.199   2.336   3.810  0.00  0.00    +0.028 C 
ATOM      5  C   LIG    1        6.247   3.578   2.841  0.00  0.00    +0.012 C 
ATOM      6  C   LIG    1        7.192   3.856   1.671  0.00  0.00    +0.019 C 
ATOM      7  C   LIG    1        8.059   5.103   1.793  0.00  0.00    +0.010 C 
ATOM      8  C   LIG    1        8.016   2.796   0.990  0.00  0.00    +0.140 C 
ATOM      9  C   LIG    1        8.616   1.489   1.645  0.00  0.00    +0.004 C 
ATOM     10  C   LIG    1        8.225   0.326   2.406  0.00  0.00    -0.002 C 
ATOM     11  C   LIG    1        8.550  -1.302   2.561  0.00  0.00    -0.004 C 
ATOM     12  C   LIG    1        7.579  -2.283   2.391  0.00  0.00    -0.023 C 
ATOM     13  C   LIG    1        7.476  -3.776   2.252  0.00  0.00    +0.071 C 
ATOM     14  C   LIG    1        6.196  -4.447   2.761  0.00  0.00    +0.177 C 
ATOM     15  C   LIG    1        6.557  -5.763   3.412  0.00  0.00    +0.052 C 
ATOM     16  O   LIG    1        5.367  -3.617   3.573  0.00  0.00    -0.461 OA
ATOM     17  C   LIG    1        5.915  -2.970   4.627  0.00  0.00    +0.311 C 
ATOM     18  O   LIG    1        7.092  -2.934   4.947  0.00  0.00    -0.251 OA
ATOM     19  C   LIG    1        4.816  -2.373   5.426  0.00  0.00    +0.168 C 
ATOM     20  C   LIG    1        4.163  -1.075   4.901  0.00  0.00    +0.218 C 
BRANCH   8  21
ATOM     21  O   LIG    1        9.102   3.383   0.157  0.00  0.00    -0.388 OA
ATOM     22  H   LIG    1        8.759   3.715  -0.700  0.00  0.00    +0.210 HD
ENDBRANCH   8  21
BRANCH   2  24
ATOM     23  C   LIG    1        6.307   0.108   6.952  0.00  0.00    +0.194 C 
ATOM     24  O   LIG    1        5.401   0.702   6.012  0.00  0.00    -0.373 OA
ENDBRANCH   2  24
BRANCH   4  25
ATOM     25  C   LIG    1        7.415   2.080   4.680  0.00  0.00    +0.077 C 
BRANCH  25  26
ATOM     26  C   LIG    1        8.857   2.028   4.219  0.00  0.00    +0.223 C 
ATOM     27  O   LIG    1        9.214   3.055   3.464  0.00  0.00    -0.301 OA
ENDBRANCH  25  26
ENDBRANCH   4  25
BRANCH  20  28
ATOM     28  O   LIG    1        3.196  -0.855   5.975  0.00  0.00    -0.458 OA
BRANCH  28  29
ATOM     29  C   LIG    1        2.133  -0.045   5.796  0.00  0.00    +0.304 C 
ATOM     30  O   LIG    1        2.131   1.008   5.179  0.00  0.00    -0.251 OA
ATOM     31  C   LIG    1        0.903  -0.730   6.326  0.00  0.00    +0.136 C 
ENDBRANCH  28  29
ENDBRANCH  20  28
ENDBRANCH   1   3
BRANCH   1  32
ATOM     32  C   LIG    1        5.534  -0.037   1.208  0.00  0.00    +0.281 C 
ATOM     33  C   LIG    1        5.008  -0.634  -0.133  0.00  0.00    +0.190 C 
ATOM     34  C   LIG    1        6.145  -0.656  -1.479  0.00  0.00    +0.121 C 
ATOM     35  C   LIG    1        7.548  -1.296  -1.138  0.00  0.00    +0.169 C 
ATOM     36  C   LIG    1        7.878  -0.526   0.086  0.00  0.00    +0.149 C 
ATOM     37  C   LIG    1        9.622  -0.324   0.196  0.00  0.00    +0.040 C 
ATOM     38  O   LIG    1        6.764   0.456   0.651  0.00  0.00    -0.343 OA
BRANCH  34  39
ATOM     39  N   LIG    1        6.486   0.578  -2.361  0.00  0.00    -0.301 NA
ATOM     40  C   LIG    1        7.388   1.562  -1.780  0.00  0.00    +0.105 C 
ATOM     41  C   LIG    1        5.346   1.395  -2.720  0.00  0.00    +0.105 C 
ENDBRANCH  34  39
BRANCH  33  42
ATOM     42  O   LIG    1        4.657  -2.010   0.171  0.00  0.00    -0.385 OA
ATOM     43  H   LIG    1        4.613  -2.480  -0.678  0.00  0.00    +0.210 HD
ENDBRANCH  33  42
BRANCH  35  44
ATOM     44  O   LIG    1        7.656  -2.757  -0.850  0.00  0.00    -0.344 OA
BRANCH  44  45
ATOM     45  C   LIG    1        8.986  -3.230  -0.354  0.00  0.00    +0.254 C 
ATOM     46  O   LIG    1       10.010  -2.747  -1.203  0.00  0.00    -0.344 OA
ATOM     47  C   LIG    1       11.333  -3.269  -1.049  0.00  0.00    +0.162 C 
ATOM     48  C   LIG    1       12.162  -2.669   0.096  0.00  0.00    +0.042 C 
ATOM     49  C   LIG    1       11.342  -4.807  -1.072  0.00  0.00    +0.236 C 
ATOM     50  C   LIG    1       10.413  -5.369   0.023  0.00  0.00    +0.107 C 
ATOM     51  C   LIG    1       10.857  -5.229   1.472  0.00  0.00    +0.045 C 
ATOM     52  C   LIG    1        9.044  -4.757  -0.107  0.00  0.00    +0.099 C 
BRANCH  50  53
ATOM     53  O   LIG    1       10.257  -6.787  -0.059  0.00  0.00    -0.385 OA
ATOM     54  H   LIG    1       11.018  -7.169  -0.546  0.00  0.00    +0.210 HD
ENDBRANCH  50  53
BRANCH  49  55
ATOM     55  O   LIG    1       10.850  -5.189  -2.404  0.00  0.00    -0.456 OA
BRANCH  55  56
ATOM     56  C   LIG    1       10.878  -6.504  -2.748  0.00  0.00    +0.308 C 
ATOM     57  O   LIG    1       11.552  -7.343  -2.157  0.00  0.00    -0.251 OA
BRANCH  56  58
ATOM     58  C   LIG    1        9.846  -6.847  -3.812  0.00  0.00    +0.123 C 
BRANCH  58  59
ATOM     59  C   LIG    1        8.439  -7.104  -3.240  0.00  0.00    -0.007 C 
ATOM     60  C   LIG    1        7.808  -5.814  -2.748  0.00  0.00    +0.007 C 
ATOM     61  C   LIG    1        8.451  -8.224  -2.189  0.00  0.00    +0.007 C 
ENDBRANCH  58  59
ENDBRANCH  56  58
ENDBRANCH  55  56
ENDBRANCH  49  55
ENDBRANCH  44  45
ENDBRANCH  35  44
ENDBRANCH   1  32
TORSDOF 17
