REMARK  Name = *****
REMARK                            x       y       z     vdW  Elec       q    Type
REMARK                         _______ _______ _______ _____ _____    ______ ____
ROOT
ATOM      1  C   LIG    1        2.466  -2.509  -3.367  0.00  0.00    +0.162 A 
ATOM      2  C   LIG    1        2.859  -3.257  -2.251  0.00  0.00    +0.170 A 
ATOM      3  O   LIG    1        3.500  -2.624  -1.206  0.00  0.00    -0.449 OA
ATOM      4  C   LIG    1        3.716  -3.311  -0.032  0.00  0.00    +0.170 A 
ATOM      5  C   LIG    1        2.869  -3.084   1.055  0.00  0.00    +0.162 A 
ATOM      6  C   LIG    1        3.157  -3.703   2.272  0.00  0.00    +0.053 A 
ATOM      7  C   LIG    1        4.292  -4.530   2.416  0.00  0.00    -0.030 A 
ATOM      8  C   LIG    1        4.652  -4.997   3.807  0.00  0.00    +0.086 C 
ATOM      9  C   LIG    1        5.921  -5.843   3.947  0.00  0.00    +0.138 C 
ATOM     10  N   LIG    1        6.979  -5.541   2.879  0.00  0.00    +0.245 N 
ATOM     11  C   LIG    1        6.339  -5.698   1.441  0.00  0.00    +0.102 C 
ATOM     12  C   LIG    1        5.986  -7.197   1.153  0.00  0.00    +0.094 C 
ATOM     13  C   LIG    1        5.486  -7.615  -0.216  0.00  0.00    -0.042 A 
ATOM     14  C   LIG    1        4.532  -8.648  -0.292  0.00  0.00    +0.007 A 
ATOM     15  C   LIG    1        4.066  -9.125  -1.521  0.00  0.00    +0.046 A 
ATOM     16  C   LIG    1        4.543  -8.569  -2.706  0.00  0.00    +0.129 A 
ATOM     17  O   LIG    1        4.029  -8.814  -3.974  0.00  0.00    -0.452 OA
ATOM     18  C   LIG    1        2.964  -9.692  -4.090  0.00  0.00    +0.182 A 
ATOM     19  C   LIG    1        1.605  -9.257  -4.049  0.00  0.00    +0.050 A 
ATOM     20  C   LIG    1        1.140  -7.763  -4.096  0.00  0.00    +0.105 C 
ATOM     21  N   LIG    1       -0.420  -7.533  -3.734  0.00  0.00    +0.245 N 
ATOM     22  C   LIG    1       -0.995  -8.759  -3.019  0.00  0.00    +0.138 C 
ATOM     23  C   LIG    1       -0.815 -10.020  -3.836  0.00  0.00    +0.086 C 
ATOM     24  C   LIG    1       -0.723  -6.348  -2.804  0.00  0.00    +0.193 C 
ATOM     25  C   LIG    1       -1.186  -7.269  -5.038  0.00  0.00    +0.193 C 
ATOM     26  C   LIG    1        2.067  -6.800  -3.319  0.00  0.00    +0.095 C 
ATOM     27  C   LIG    1        2.041  -5.293  -3.361  0.00  0.00    -0.038 A 
ATOM     28  C   LIG    1        1.686  -4.543  -4.477  0.00  0.00    +0.007 A 
ATOM     29  C   LIG    1        0.644 -10.291  -4.060  0.00  0.00    -0.027 A 
ATOM     30  C   LIG    1        1.013 -11.642  -4.240  0.00  0.00    +0.054 A 
ATOM     31  C   LIG    1        2.343 -12.028  -4.387  0.00  0.00    +0.166 A 
ATOM     32  C   LIG    1        3.333 -11.049  -4.303  0.00  0.00    +0.205 A 
ATOM     33  C   LIG    1        5.542  -7.590  -2.644  0.00  0.00    +0.046 A 
ATOM     34  C   LIG    1        6.020  -7.124  -1.411  0.00  0.00    +0.007 A 
ATOM     35  C   LIG    1        8.173  -6.481   3.081  0.00  0.00    +0.193 C 
ATOM     36  C   LIG    1        7.528  -4.113   3.050  0.00  0.00    +0.193 C 
ATOM     37  C   LIG    1        5.126  -4.784   1.310  0.00  0.00    +0.008 A 
ATOM     38  C   LIG    1        4.846  -4.133   0.096  0.00  0.00    +0.059 A 
ATOM     39  C   LIG    1        2.618  -4.636  -2.258  0.00  0.00    +0.053 A 
ATOM     40  C   LIG    1        1.862  -3.158  -4.458  0.00  0.00    +0.050 A 
ENDROOT
BRANCH   1  42
ATOM     41  C   LIG    1        3.650  -0.486  -2.916  0.00  0.00    +0.277 C 
ATOM     42  O   LIG    1        2.567  -1.155  -3.547  0.00  0.00    -0.491 OA
ENDBRANCH   1  42
BRANCH   5  43
ATOM     43  O   LIG    1        1.787  -2.277   0.834  0.00  0.00    -0.491 OA
ATOM     44  C   LIG    1        1.321  -1.528   1.951  0.00  0.00    +0.277 C 
ENDBRANCH   5  43
BRANCH  31  45
ATOM     45  O   LIG    1        2.710 -13.341  -4.492  0.00  0.00    -0.491 OA
ATOM     46  C   LIG    1        1.820 -14.192  -5.211  0.00  0.00    +0.277 C 
ENDBRANCH  31  45
BRANCH  32  47
ATOM     47  O   LIG    1        4.688 -11.278  -4.359  0.00  0.00    -0.488 OA
ATOM     48  C   LIG    1        5.138 -12.353  -5.178  0.00  0.00    +0.277 C 
ENDBRANCH  32  47
TORSDOF 4
