REMARK  Name = *****
REMARK                            x       y       z     vdW  Elec       q    Type
REMARK                         _______ _______ _______ _____ _____    ______ ____
ROOT
ATOM      1  C   LIG    1        3.064   1.190   1.968  0.00  0.00    +0.161 C 
ENDROOT
BRANCH   1   2
ATOM      2  N   LIG    1        3.173   0.948   3.415  0.00  0.00    -0.290 N 
ATOM      3  C   LIG    1        2.113   0.593   4.238  0.00  0.00    +0.216 C 
ATOM      4  O   LIG    1        0.968   0.334   3.887  0.00  0.00    -0.276 OA
ATOM      5  C   LIG    1        2.575   0.664   5.668  0.00  0.00    +0.097 C 
ATOM      6  C   LIG    1        4.088   0.765   5.539  0.00  0.00    +0.028 C 
ATOM      7  C   LIG    1        4.287   1.441   4.195  0.00  0.00    +0.109 C 
ENDBRANCH   1   2
BRANCH   1   8
ATOM      8  C   LIG    1        2.473   2.587   1.687  0.00  0.00    +0.231 C 
ATOM      9  O   LIG    1        3.140   3.508   1.220  0.00  0.00    -0.274 OA
ATOM     10  N   LIG    1        1.159   2.779   1.998  0.00  0.00    -0.328 N 
ATOM     11  H   LIG    1        0.752   3.689   1.833  0.00  0.00    +0.145 HD
ATOM     12  H   LIG    1        0.588   2.046   2.409  0.00  0.00    +0.145 HD
ENDBRANCH   1   8
BRANCH   1  14
ATOM     13  C   LIG    1        2.378   0.120  -0.256  0.00  0.00    +0.006 C 
ATOM     14  C   LIG    1        2.296   0.059   1.260  0.00  0.00    +0.028 C 
ENDBRANCH   1  14
TORSDOF 3
