REMARK  Name = *****
REMARK                            x       y       z     vdW  Elec       q    Type
REMARK                         _______ _______ _______ _____ _____    ______ ____
ROOT
ATOM      1  CG  TRP A  1        2.354  -1.787  -2.420  0.00  0.00    -0.020 C 
ATOM      2  CD2 TRP A  1        1.335  -2.105  -3.380  0.00  0.00    +0.003 C 
ATOM      3  CE2 TRP A  1        1.367  -3.485  -3.588  0.00  0.00    +0.047 C 
ATOM      4  CZ2 TRP A  1        0.507  -4.143  -4.476  0.00  0.00    +0.026 C 
ATOM      5  CH2 TRP A  1       -0.413  -3.365  -5.184  0.00  0.00    +0.002 C 
ATOM      6  CZ3 TRP A  1       -0.471  -1.986  -5.003  0.00  0.00    +0.001 C 
ATOM      7  NE1 TRP A  1        2.368  -3.990  -2.793  0.00  0.00    -0.360 NA
ATOM      8  HE1 TRP A  1        2.625  -4.967  -2.752  0.00  0.00    +0.165 HD
ATOM      9  CE3 TRP A  1        0.394  -1.345  -4.107  0.00  0.00    +0.010 C 
ATOM     10  CD1 TRP A  1        2.981  -2.978  -2.104  0.00  0.00    +0.087 C 
ENDROOT
BRANCH   1  11
ATOM     11  CB  TRP A  1        2.720  -0.425  -1.897  0.00  0.00    +0.067 C 
BRANCH  11  12
ATOM     12  CA  TRP A  1        2.000  -0.037  -0.594  0.00  0.00    +0.165 C 
BRANCH  12  13
ATOM     13  N   TRP A  1        0.506   0.053  -0.723  0.00  0.00    -0.318 NA
ATOM     14  H1  TRP A  1        0.297   0.394  -1.668  0.00  0.00    +0.119 HD
ATOM     15  H2  TRP A  1        0.153  -0.910  -0.744  0.00  0.00    +0.119 HD
ENDBRANCH  12  13
BRANCH  12  16
ATOM     16  C   TRP A  1        2.504   1.333  -0.097  0.00  0.00    +0.322 C 
ATOM     17  O   TRP A  1        3.658   1.718  -0.107  0.00  0.00    -0.249 OA
BRANCH  16  18
ATOM     18  OXT TRP A  1        1.475   2.072   0.407  0.00  0.00    -0.479 OA
ATOM     19  HXT TRP A  1        0.663   1.519   0.270  0.00  0.00    +0.295 HD
ENDBRANCH  16  18
ENDBRANCH  12  16
ENDBRANCH  11  12
ENDBRANCH   1  11
TORSDOF 5
