REMARK  Name = *****
REMARK                            x       y       z     vdW  Elec       q    Type
REMARK                         _______ _______ _______ _____ _____    ______ ____
ROOT
ATOM      1  C   LIG    1       -3.862   1.667   1.441  0.00  0.00    +0.021 C 
ATOM      2  C   LIG    1       -4.769   2.911   1.202  0.00  0.00    +0.016 C 
ATOM      3  C   LIG    1       -5.455   3.015  -0.166  0.00  0.00    +0.001 C 
ATOM      4  C   LIG    1       -6.195   1.752  -0.554  0.00  0.00    +0.000 C 
ATOM      5  C   LIG    1       -5.332   0.512  -0.420  0.00  0.00    +0.001 C 
ATOM      6  C   LIG    1       -4.692   0.439   0.958  0.00  0.00    +0.016 C 
ENDROOT
BRANCH   1  10
ATOM      7  C   LIG    1       -0.008   1.964  -0.744  0.00  0.00    +0.122 A 
ATOM      8  C   LIG    1       -1.140   2.447  -1.342  0.00  0.00    +0.046 A 
ATOM      9  C   LIG    1       -2.388   2.326  -0.677  0.00  0.00    +0.008 A 
ATOM     10  C   LIG    1       -2.578   1.754   0.598  0.00  0.00    -0.037 A 
ATOM     11  C   LIG    1       -1.450   1.192   1.104  0.00  0.00    +0.008 A 
ATOM     12  C   LIG    1       -0.263   1.296   0.426  0.00  0.00    +0.046 A 
BRANCH   7  13
ATOM     13  O   LIG    1        1.235   2.172  -1.283  0.00  0.00    -0.475 OA
BRANCH  13  14
ATOM     14  C   LIG    1        2.377   2.409  -0.399  0.00  0.00    +0.203 C 
ATOM     15  C   LIG    1        2.009   3.448   0.678  0.00  0.00    +0.068 C 
BRANCH  14  17
ATOM     16  C   LIG    1        2.340   0.199   1.167  0.00  0.00    +0.008 C 
ATOM     17  C   LIG    1        3.027   1.094   0.162  0.00  0.00    +0.056 C 
ENDBRANCH  14  17
BRANCH  14  18
ATOM     18  C   LIG    1        3.607   2.968  -1.234  0.00  0.00    +0.349 C 
ATOM     19  O   LIG    1        4.226   2.295  -2.083  0.00  0.00    -0.246 OA
BRANCH  18  20
ATOM     20  O   LIG    1        4.098   4.186  -0.913  0.00  0.00    -0.478 OA
ATOM     21  H   LIG    1        3.627   4.710  -0.245  0.00  0.00    +0.295 HD
ENDBRANCH  18  20
ENDBRANCH  14  18
ENDBRANCH  13  14
ENDBRANCH   7  13
ENDBRANCH   1  10
BRANCH   1  22
ATOM     22  C   LIG    1       -3.510   1.560   3.027  0.00  0.00    -0.033 A 
ATOM     23  C   LIG    1       -3.065   0.360   3.667  0.00  0.00    +0.050 A 
ATOM     24  C   LIG    1       -2.965   0.153   5.039  0.00  0.00    +0.122 A 
ATOM     25  C   LIG    1       -2.924   1.303   5.812  0.00  0.00    +0.045 A 
ATOM     26  C   LIG    1       -3.158   2.557   5.220  0.00  0.00    +0.004 A 
ATOM     27  C   LIG    1       -3.503   2.677   3.861  0.00  0.00    +0.005 A 
BRANCH  24  28
ATOM     28  O   LIG    1       -2.851  -1.057   5.665  0.00  0.00    -0.475 OA
BRANCH  28  29
ATOM     29  C   LIG    1       -3.112  -2.372   5.082  0.00  0.00    +0.203 C 
ATOM     30  C   LIG    1       -3.587  -3.221   6.308  0.00  0.00    +0.068 C 
BRANCH  29  31
ATOM     31  C   LIG    1       -1.785  -2.991   4.505  0.00  0.00    +0.349 C 
ATOM     32  O   LIG    1       -1.129  -2.481   3.655  0.00  0.00    -0.246 OA
BRANCH  31  33
ATOM     33  O   LIG    1       -1.398  -4.202   5.029  0.00  0.00    -0.478 OA
ATOM     34  H   LIG    1       -1.899  -4.605   5.744  0.00  0.00    +0.295 HD
ENDBRANCH  31  33
ENDBRANCH  29  31
BRANCH  29  35
ATOM     35  C   LIG    1       -4.335  -2.553   4.119  0.00  0.00    +0.056 C 
ATOM     36  C   LIG    1       -4.410  -1.951   2.750  0.00  0.00    +0.008 C 
ENDBRANCH  29  35
ENDBRANCH  28  29
ENDBRANCH  24  28
ENDBRANCH   1  22
TORSDOF 12
