REMARK  Name = *****
REMARK                            x       y       z     vdW  Elec       q    Type
REMARK                         _______ _______ _______ _____ _____    ______ ____
ROOT
ATOM      1  C   LIG    1        5.549  -2.789   0.892  0.00  0.00    +0.087 C 
ATOM      2  C   LIG    1        4.979  -3.889   1.737  0.00  0.00    +0.345 C 
ATOM      3  O   LIG    1        3.874  -3.817   2.246  0.00  0.00    -0.245 OA
ATOM      4  O   LIG    1        5.732  -5.034   1.928  0.00  0.00    -0.422 OA
ATOM      5  C   LIG    1        6.823  -5.319   1.107  0.00  0.00    +0.143 A 
ATOM      6  C   LIG    1        7.299  -4.379   0.205  0.00  0.00    +0.059 A 
ATOM      7  C   LIG    1        8.400  -4.743  -0.582  0.00  0.00    +0.015 A 
ATOM      8  C   LIG    1        8.965  -6.023  -0.480  0.00  0.00    +0.001 A 
ATOM      9  C   LIG    1        8.445  -6.953   0.418  0.00  0.00    +0.004 A 
ATOM     10  C   LIG    1        7.373  -6.597   1.227  0.00  0.00    +0.047 A 
ATOM     11  C   LIG    1        6.628  -3.073   0.128  0.00  0.00    +0.138 C 
ENDROOT
BRANCH  11  12
ATOM     12  O   LIG    1        7.204  -2.204  -0.776  0.00  0.00    -0.505 OA
ATOM     13  H   LIG    1        6.587  -1.497  -1.019  0.00  0.00    +0.292 HD
ENDBRANCH  11  12
BRANCH   1  14
ATOM     14  C   LIG    1        4.842  -1.419   0.972  0.00  0.00    +0.067 C 
BRANCH  14  15
ATOM     15  C   LIG    1        5.082  -0.722   2.318  0.00  0.00    -0.039 A 
ATOM     16  C   LIG    1        4.498  -1.182   3.509  0.00  0.00    +0.004 A 
ATOM     17  C   LIG    1        4.776  -0.584   4.737  0.00  0.00    +0.000 A 
ATOM     18  C   LIG    1        5.610   0.523   4.794  0.00  0.00    +0.000 A 
ATOM     19  C   LIG    1        6.166   1.029   3.622  0.00  0.00    +0.000 A 
ATOM     20  C   LIG    1        5.911   0.409   2.393  0.00  0.00    +0.004 A 
ENDBRANCH  14  15
BRANCH  14  21
ATOM     21  C   LIG    1        3.350  -1.445   0.574  0.00  0.00    +0.087 C 
BRANCH  21  23
ATOM     22  C   LIG    1        1.609   0.342   1.250  0.00  0.00    +0.086 C 
ATOM     23  C   LIG    1        2.788  -0.046   0.391  0.00  0.00    +0.131 C 
ATOM     24  O   LIG    1        3.253   0.723  -0.452  0.00  0.00    -0.298 OA
ENDBRANCH  21  23
ENDBRANCH  14  21
ENDBRANCH   1  14
TORSDOF 5
