REMARK  Name = *****
REMARK                            x       y       z     vdW  Elec       q    Type
REMARK                         _______ _______ _______ _____ _____    ______ ____
ROOT
ATOM      1  C   LIG    1        9.842   0.820  -3.456  0.00  0.00    +0.012 C 
ATOM      2  C   LIG    1       10.565   0.461  -4.526  0.00  0.00    -0.050 C 
ATOM      3  C   LIG    1       11.098  -0.899  -4.696  0.00  0.00    -0.031 C 
ATOM      4  C   LIG    1       10.483  -1.624  -5.907  0.00  0.00    +0.015 C 
ATOM      5  C   LIG    1        9.022  -1.850  -5.489  0.00  0.00    +0.021 C 
ATOM      6  C   LIG    1       11.152  -2.989  -6.096  0.00  0.00    -0.012 C 
ATOM      7  C   LIG    1       11.344  -3.731  -4.985  0.00  0.00    +0.047 C 
ATOM      8  C   LIG    1       12.298  -2.970  -4.115  0.00  0.00    +0.179 C 
ATOM      9  O   LIG    1       13.251  -3.541  -3.562  0.00  0.00    -0.288 OA
ATOM     10  C   LIG    1       10.764  -0.701  -7.149  0.00  0.00    +0.007 C 
ATOM     11  C   LIG    1       10.137   0.707  -7.029  0.00  0.00    +0.002 C 
ATOM     12  C   LIG    1        8.661   0.849  -7.551  0.00  0.00    +0.006 C 
ATOM     13  C   LIG    1        8.115  -0.311  -8.451  0.00  0.00    +0.029 C 
ATOM     14  C   LIG    1        7.685   0.302  -9.791  0.00  0.00    +0.019 C 
ATOM     15  C   LIG    1        9.019  -1.524  -8.743  0.00  0.00    +0.015 C 
ATOM     16  C   LIG    1        6.894  -0.803  -7.664  0.00  0.00    +0.140 C 
ATOM     17  O   LIG    1        6.318  -1.865  -7.880  0.00  0.00    -0.297 OA
ATOM     18  C   LIG    1        6.487   0.118  -6.547  0.00  0.00    +0.075 C 
ATOM     19  C   LIG    1        7.418   1.308  -6.743  0.00  0.00    +0.012 C 
ATOM     20  C   LIG    1       10.482  -1.250  -8.542  0.00  0.00    +0.006 C 
ATOM     21  C   LIG    1       11.982  -1.523  -3.885  0.00  0.00    +0.055 C 
ATOM     22  C   LIG    1       10.644   1.369  -5.731  0.00  0.00    +0.039 C 
ENDROOT
TORSDOF 0
