REMARK  Name = *****
REMARK                            x       y       z     vdW  Elec       q    Type
REMARK                         _______ _______ _______ _____ _____    ______ ____
ROOT
ATOM      1  C   LIG    1       -1.270   1.550  -0.248  0.00  0.00    +0.019 C 
ATOM      2  C   LIG    1       -2.157   0.203  -0.365  0.00  0.00    +0.033 C 
ATOM      3  C   LIG    1       -3.365   1.238   0.223  0.00  0.00    +0.140 C 
ATOM      4  O   LIG    1       -3.232   2.346   0.818  0.00  0.00    -0.297 OA
ATOM      5  C   LIG    1       -4.777   0.852  -0.027  0.00  0.00    +0.075 C 
ATOM      6  C   LIG    1       -4.629  -0.577  -0.376  0.00  0.00    +0.016 C 
ATOM      7  C   LIG    1       -3.249  -0.942   0.174  0.00  0.00    +0.029 C 
ATOM      8  C   LIG    1       -3.047  -2.473  -0.064  0.00  0.00    -0.062 C 
ATOM      9  C   LIG    1       -1.639  -3.009  -0.057  0.00  0.00    +0.045 C 
ATOM     10  C   LIG    1       -1.475  -4.266  -0.917  0.00  0.00    -0.037 A 
ATOM     11  C   LIG    1       -2.447  -5.270  -0.767  0.00  0.00    -0.036 A 
ATOM     12  C   LIG    1       -3.700  -4.919  -0.001  0.00  0.00    +0.062 C 
ATOM     13  C   LIG    1       -2.229  -6.537  -1.326  0.00  0.00    +0.049 A 
ATOM     14  C   LIG    1       -1.120  -6.749  -2.142  0.00  0.00    +0.117 A 
ATOM     15  C   LIG    1       -0.241  -5.715  -2.431  0.00  0.00    +0.045 A 
ATOM     16  C   LIG    1       -0.405  -4.486  -1.799  0.00  0.00    +0.008 A 
ATOM     17  C   LIG    1       -0.642  -1.947  -0.415  0.00  0.00    +0.013 C 
ATOM     18  C   LIG    1       -4.020  -3.424  -0.073  0.00  0.00    -0.022 C 
ATOM     19  C   LIG    1       -0.902  -0.596   0.222  0.00  0.00    +0.015 C 
ENDROOT
BRANCH  14  20
ATOM     20  O   LIG    1       -0.916  -7.994  -2.659  0.00  0.00    -0.507 OA
ATOM     21  H   LIG    1       -0.061  -7.992  -3.123  0.00  0.00    +0.292 HD
ENDBRANCH  14  20
TORSDOF 1
