REMARK  Name = *****
REMARK                            x       y       z     vdW  Elec       q    Type
REMARK                         _______ _______ _______ _____ _____    ______ ____
ROOT
ATOM      1  C   LIG    1       -3.932  -3.607  -1.006  0.00  0.00    +0.061 C 
ATOM      2  C   LIG    1       -5.129  -3.144  -1.883  0.00  0.00    -0.017 C 
ATOM      3  C   LIG    1       -4.723  -2.951  -3.368  0.00  0.00    +0.012 C 
ATOM      4  C   LIG    1       -5.458  -1.757  -1.259  0.00  0.00    -0.001 C 
ATOM      5  C   LIG    1       -6.307  -1.817   0.044  0.00  0.00    -0.000 C 
ATOM      6  C   LIG    1       -7.561  -2.729  -0.042  0.00  0.00    +0.031 C 
ATOM      7  C   LIG    1       -7.101  -4.125  -0.535  0.00  0.00    +0.119 C 
ATOM      8  C   LIG    1       -8.873  -2.082  -0.674  0.00  0.00    -0.005 C 
ATOM      9  C   LIG    1      -10.108  -2.859  -0.118  0.00  0.00    +0.016 C 
ATOM     10  C   LIG    1       -9.021  -0.580  -0.320  0.00  0.00    -0.057 C 
ATOM     11  C   LIG    1      -10.179   0.053  -0.614  0.00  0.00    +0.046 C 
ATOM     12  C   LIG    1      -10.376   0.010  -2.111  0.00  0.00    +0.156 C 
ATOM     13  O   LIG    1      -10.883   0.973  -2.680  0.00  0.00    -0.293 OA
ATOM     14  C   LIG    1      -10.084  -1.302  -2.827  0.00  0.00    +0.080 C 
ATOM     15  C   LIG    1       -7.749   0.259  -0.285  0.00  0.00    +0.013 C 
ATOM     16  C   LIG    1       -7.963   1.689   0.242  0.00  0.00    +0.012 C 
ATOM     17  C   LIG    1       -8.925  -2.111  -2.221  0.00  0.00    +0.019 C 
ATOM     18  C   LIG    1       -6.700  -0.432   0.583  0.00  0.00    +0.012 C 
ATOM     19  C   LIG    1       -4.059  -1.156  -1.004  0.00  0.00    +0.005 C 
ATOM     20  C   LIG    1       -6.322  -4.109  -1.846  0.00  0.00    +0.039 C 
ATOM     21  C   LIG    1       -3.099  -2.334  -0.823  0.00  0.00    +0.012 C 
ENDROOT
BRANCH   1  23
ATOM     22  C   LIG    1       -1.798  -5.075  -0.825  0.00  0.00    +0.086 C 
ATOM     23  C   LIG    1       -3.110  -4.794  -1.516  0.00  0.00    +0.134 C 
ATOM     24  O   LIG    1       -3.539  -5.577  -2.363  0.00  0.00    -0.297 OA
ENDBRANCH   1  23
BRANCH   7  25
ATOM     25  O   LIG    1       -8.183  -5.036  -0.654  0.00  0.00    -0.392 OA
ATOM     26  H   LIG    1       -7.820  -5.898  -0.925  0.00  0.00    +0.210 HD
ENDBRANCH   7  25
TORSDOF 2
