REMARK  Name = *****
REMARK                            x       y       z     vdW  Elec       q    Type
REMARK                         _______ _______ _______ _____ _____    ______ ____
ROOT
ATOM      1  C   LIG    1        5.215  -0.397   2.968  0.00  0.00    +0.011 C 
ATOM      2  C   LIG    1        4.454  -1.664   3.589  0.00  0.00    +0.013 C 
ATOM      3  C   LIG    1        5.794  -2.365   3.822  0.00  0.00    +0.002 C 
ATOM      4  C   LIG    1        6.462  -1.370   2.884  0.00  0.00    +0.013 C 
ENDROOT
BRANCH   1   5
ATOM      5  C   LIG    1        5.296   0.809   4.081  0.00  0.00    -0.040 A 
ATOM      6  C   LIG    1        6.482   1.486   4.404  0.00  0.00    +0.006 A 
ATOM      7  C   LIG    1        6.556   2.439   5.429  0.00  0.00    +0.020 A 
ATOM      8  C   LIG    1        5.418   2.708   6.197  0.00  0.00    +0.041 A 
ATOM      9 CL   LIG    1        5.514   3.836   7.492  0.00  0.00    -0.084 Cl
ATOM     10  C   LIG    1        4.233   2.062   5.924  0.00  0.00    +0.020 A 
ATOM     11  C   LIG    1        4.163   1.143   4.872  0.00  0.00    +0.006 A 
ENDBRANCH   1   5
BRANCH   1  12
ATOM     12  C   LIG    1        4.714   0.077   1.517  0.00  0.00    +0.067 C 
BRANCH  12  13
ATOM     13  N   LIG    1        5.651   0.916   0.722  0.00  0.00    -0.305 NA
ATOM     14  C   LIG    1        6.929   0.310   0.374  0.00  0.00    +0.105 C 
ATOM     15  C   LIG    1        5.831   2.304   1.118  0.00  0.00    +0.105 C 
ENDBRANCH  12  13
BRANCH  12  16
ATOM     16  C   LIG    1        3.279   0.700   1.577  0.00  0.00    +0.022 C 
BRANCH  16  18
ATOM     17  C   LIG    1        1.087   1.500   0.616  0.00  0.00    +0.007 C 
ATOM     18  C   LIG    1        2.447   0.870   0.262  0.00  0.00    -0.016 C 
ATOM     19  C   LIG    1        3.065   1.711  -0.862  0.00  0.00    +0.007 C 
ENDBRANCH  16  18
ENDBRANCH  12  16
ENDBRANCH   1  12
TORSDOF 5
