REMARK  Name = *****
REMARK                            x       y       z     vdW  Elec       q    Type
REMARK                         _______ _______ _______ _____ _____    ______ ____
ROOT
ATOM      1  N   LIG    1        4.026   1.457  -0.934  0.00  0.00    -0.119 NA
ATOM      2  C   LIG    1        5.280   1.753  -0.823  0.00  0.00    +0.159 C 
ENDROOT
BRANCH   2   3
ATOM      3  C   LIG    1        6.180   1.030   0.105  0.00  0.00    +0.033 A 
ATOM      4  C   LIG    1        7.260   1.724   0.679  0.00  0.00    +0.051 A 
ATOM      5 CL   LIG    1        7.580   3.397   0.365  0.00  0.00    -0.083 Cl
ATOM      6  C   LIG    1        8.126   1.081   1.573  0.00  0.00    +0.021 A 
ATOM      7  C   LIG    1        7.933  -0.258   1.897  0.00  0.00    +0.003 A 
ATOM      8  C   LIG    1        6.872  -0.957   1.328  0.00  0.00    +0.021 A 
ATOM      9  C   LIG    1        5.994  -0.324   0.437  0.00  0.00    +0.051 A 
ATOM     10 CL   LIG    1        4.753  -1.328  -0.233  0.00  0.00    -0.083 Cl
ENDBRANCH   2   3
BRANCH   1  11
ATOM     11  N   LIG    1        3.319   2.227  -1.810  0.00  0.00    -0.155 N 
ATOM     12  H   LIG    1        3.768   2.919  -2.404  0.00  0.00    +0.292 HD
BRANCH  11  15
ATOM     13  N   LIG    1        1.343   2.836  -2.883  0.00  0.00    -0.128 NA
ATOM     14  H   LIG    1        0.350   2.603  -2.805  0.00  0.00    +0.306 HD
ATOM     15  C   LIG    1        1.977   2.127  -2.014  0.00  0.00    +0.400 C 
BRANCH  15  16
ATOM     16  N   LIG    1        1.369   1.202  -1.236  0.00  0.00    -0.288 N 
ATOM     17  H   LIG    1        2.094   0.627  -0.805  0.00  0.00    +0.255 HD
ATOM     18  H   LIG    1        0.682   0.640  -1.716  0.00  0.00    +0.255 HD
ENDBRANCH  15  16
ENDBRANCH  11  15
ENDBRANCH   1  11
TORSDOF 4
