REMARK  Name = *****
REMARK                            x       y       z     vdW  Elec       q    Type
REMARK                         _______ _______ _______ _____ _____    ______ ____
ROOT
ATOM      1  C   LIG    1        2.704   1.312   0.413  0.00  0.00    -0.017 C 
ATOM      2  C   LIG    1        3.581   1.621   1.497  0.00  0.00    +0.042 C 
ATOM      3  C   LIG    1        4.245   0.771   2.482  0.00  0.00    +0.169 C 
ATOM      4  C   LIG    1        5.154   1.485   3.504  0.00  0.00    +0.075 C 
ATOM      5  C   LIG    1        4.732   2.953   3.756  0.00  0.00    +0.019 C 
ATOM      6  C   LIG    1        4.591   3.761   2.458  0.00  0.00    +0.055 C 
ATOM      7  O   LIG    1        4.150  -0.454   2.451  0.00  0.00    -0.292 OA
ATOM      8  C   LIG    1        3.750   2.989   1.509  0.00  0.00    +0.027 C 
ATOM      9  N   LIG    1        3.012   3.530   0.497  0.00  0.00    -0.361 NA
ATOM     10  H   LIG    1        2.944   4.516   0.278  0.00  0.00    +0.165 HD
ATOM     11  C   LIG    1        2.372   2.522  -0.186  0.00  0.00    +0.017 C 
ATOM     12  C   LIG    1        1.495   2.824  -1.347  0.00  0.00    +0.063 C 
ENDROOT
BRANCH   1  14
ATOM     13  C   LIG    1        3.179  -0.714  -0.987  0.00  0.00    +0.009 C 
ATOM     14  C   LIG    1        2.235  -0.051   0.005  0.00  0.00    +0.034 C 
ENDBRANCH   1  14
BRANCH   4  15
ATOM     15  C   LIG    1        5.153   0.658   4.806  0.00  0.00    +0.096 C 
BRANCH  15  16
ATOM     16  N   LIG    1        5.974   1.198   5.910  0.00  0.00    -0.297 NA
ATOM     17  C   LIG    1        5.855   0.336   7.114  0.00  0.00    +0.112 C 
ATOM     18  C   LIG    1        6.612  -1.002   7.009  0.00  0.00    +0.175 C 
ATOM     19  O   LIG    1        7.994  -0.802   6.686  0.00  0.00    -0.377 OA
ATOM     20  C   LIG    1        8.130  -0.050   5.474  0.00  0.00    +0.175 C 
ATOM     21  C   LIG    1        7.413   1.305   5.582  0.00  0.00    +0.112 C 
ENDBRANCH  15  16
ENDBRANCH   4  15
TORSDOF 3
