REMARK  Name = *****
REMARK                            x       y       z     vdW  Elec       q    Type
REMARK                         _______ _______ _______ _____ _____    ______ ____
ROOT
ATOM      1  C   LIG    1       10.880  -5.817   3.568  0.00  0.00    +0.134 A 
ATOM      2  C   LIG    1        9.972  -5.458   2.581  0.00  0.00    +0.051 A 
ATOM      3  C   LIG    1        9.595  -6.386   1.599  0.00  0.00    -0.027 A 
ATOM      4  C   LIG    1       10.197  -7.659   1.609  0.00  0.00    +0.005 A 
ATOM      5  C   LIG    1       11.138  -7.998   2.582  0.00  0.00    +0.004 A 
ATOM      6  C   LIG    1       11.487  -7.072   3.561  0.00  0.00    +0.046 A 
ENDROOT
BRANCH   3   7
ATOM      7  C   LIG    1        8.497  -6.071   0.584  0.00  0.00    +0.083 C 
ATOM      8  C   LIG    1        8.654  -4.646   0.011  0.00  0.00    +0.029 C 
BRANCH   7   9
ATOM      9  N   LIG    1        7.117  -6.355   1.064  0.00  0.00    -0.302 NA
ATOM     10  C   LIG    1        6.615  -5.412   2.063  0.00  0.00    +0.105 C 
ATOM     11  C   LIG    1        6.958  -7.728   1.553  0.00  0.00    +0.105 C 
ENDBRANCH   7   9
ENDBRANCH   3   7
BRANCH   1  12
ATOM     12  O   LIG    1       11.268  -4.965   4.627  0.00  0.00    -0.411 OA
BRANCH  12  14
ATOM     13  N   LIG    1       11.101  -3.263   6.174  0.00  0.00    -0.270 N 
ATOM     14  C   LIG    1       10.446  -3.948   5.146  0.00  0.00    +0.408 C 
ATOM     15  O   LIG    1        9.309  -3.688   4.766  0.00  0.00    -0.226 OA
ATOM     16  C   LIG    1       10.432  -2.135   6.796  0.00  0.00    +0.135 C 
BRANCH  13  18
ATOM     17  C   LIG    1       12.400  -4.612   7.790  0.00  0.00    +0.024 C 
ATOM     18  C   LIG    1       12.434  -3.613   6.643  0.00  0.00    +0.107 C 
ENDBRANCH  13  18
ENDBRANCH  12  14
ENDBRANCH   1  12
TORSDOF 5
