REMARK  Name = *****
REMARK                            x       y       z     vdW  Elec       q    Type
REMARK                         _______ _______ _______ _____ _____    ______ ____
ROOT
ATOM      1  C   LIG    1        5.763   1.633   0.142  0.00  0.00    +0.062 A 
ATOM      2  C   LIG    1        6.037   0.353   0.679  0.00  0.00    +0.058 A 
ATOM      3  I   LIG    1        4.451  -0.919   1.295  0.00  0.00    -0.040 I 
ATOM      4  C   LIG    1        7.339  -0.169   0.680  0.00  0.00    +0.065 A 
ATOM      5  C   LIG    1        8.274   0.461  -0.178  0.00  0.00    +0.049 A 
ATOM      6  I   LIG    1        9.531  -0.875  -1.280  0.00  0.00    -0.041 I 
ATOM      7  C   LIG    1        8.065   1.790  -0.600  0.00  0.00    +0.067 A 
ATOM      8  C   LIG    1        6.868   2.406  -0.246  0.00  0.00    +0.049 A 
ATOM      9  I   LIG    1        7.005   4.423   0.582  0.00  0.00    -0.041 I 
ENDROOT
BRANCH   1  12
ATOM     10  C   LIG    1        2.409   3.147  -0.817  0.00  0.00    +0.109 C 
ATOM     11  C   LIG    1        3.924   3.070  -0.802  0.00  0.00    +0.214 C 
ATOM     12  N   LIG    1        4.407   2.018  -0.030  0.00  0.00    -0.284 N 
ATOM     13  H   LIG    1        3.726   1.326   0.246  0.00  0.00    +0.155 HD
ATOM     14  O   LIG    1        4.574   3.867  -1.410  0.00  0.00    -0.276 OA
ENDBRANCH   1  12
BRANCH   4  15
ATOM     15  N   LIG    1        7.819  -0.895   1.844  0.00  0.00    -0.273 N 
ATOM     16  C   LIG    1        8.115  -0.162   3.006  0.00  0.00    +0.216 C 
ATOM     17  O   LIG    1        7.949   1.057   3.083  0.00  0.00    -0.276 OA
ATOM     18  C   LIG    1        8.633  -0.929   4.213  0.00  0.00    +0.110 C 
ATOM     19  C   LIG    1        7.908  -2.346   1.777  0.00  0.00    +0.138 C 
ENDBRANCH   4  15
BRANCH   7  20
ATOM     20  C   LIG    1        9.092   2.548  -1.372  0.00  0.00    +0.247 C 
ATOM     21  N   LIG    1        8.689   3.575  -2.221  0.00  0.00    -0.301 N 
ATOM     22  H   LIG    1        7.713   3.755  -2.324  0.00  0.00    +0.150 HD
ATOM     23  O   LIG    1       10.282   2.260  -1.281  0.00  0.00    -0.270 OA
BRANCH  21  24
ATOM     24  C   LIG    1        9.672   4.375  -2.960  0.00  0.00    +0.160 C 
ATOM     25  C   LIG    1        9.251   5.834  -3.100  0.00  0.00    +0.170 C 
ATOM     26  C   LIG    1       10.326   6.633  -3.847  0.00  0.00    +0.176 C 
ATOM     27  C   LIG    1       10.690   5.966  -5.183  0.00  0.00    +0.178 C 
ATOM     28  O   LIG    1       11.037   4.588  -4.988  0.00  0.00    -0.341 OA
ATOM     29  C   LIG    1        9.993   3.824  -4.386  0.00  0.00    +0.270 C 
BRANCH  25  30
ATOM     30  O   LIG    1        9.072   6.472  -1.825  0.00  0.00    -0.387 OA
ATOM     31  H   LIG    1        9.234   5.809  -1.126  0.00  0.00    +0.210 HD
ENDBRANCH  25  30
BRANCH  26  32
ATOM     32  O   LIG    1        9.869   7.977  -4.049  0.00  0.00    -0.387 OA
ATOM     33  H   LIG    1        9.443   8.234  -3.204  0.00  0.00    +0.210 HD
ENDBRANCH  26  32
BRANCH  29  34
ATOM     34  O   LIG    1       10.402   2.465  -4.356  0.00  0.00    -0.365 OA
ATOM     35  H   LIG    1       10.882   2.328  -3.514  0.00  0.00    +0.212 HD
ENDBRANCH  29  34
BRANCH  27  36
ATOM     36  C   LIG    1       11.890   6.682  -5.831  0.00  0.00    +0.190 C 
BRANCH  36  37
ATOM     37  O   LIG    1       11.645   8.060  -6.095  0.00  0.00    -0.392 OA
ATOM     38  H   LIG    1       11.126   8.418  -5.342  0.00  0.00    +0.209 HD
ENDBRANCH  36  37
ENDBRANCH  27  36
ENDBRANCH  21  24
ENDBRANCH   7  20
TORSDOF 9
