REMARK  Name = *****
REMARK                            x       y       z     vdW  Elec       q    Type
REMARK                         _______ _______ _______ _____ _____    ______ ____
ROOT
ATOM      1  C   LIG    1       12.128   3.135  -9.688  0.00  0.00    +0.000 C 
ENDROOT
BRANCH   1   2
ATOM      2  C   LIG    1       12.782   4.497  -9.413  0.00  0.00    -0.000 C 
BRANCH   2   3
ATOM      3  C   LIG    1       12.138   5.560 -10.309  0.00  0.00    +0.000 C 
BRANCH   3   4
ATOM      4  C   LIG    1       12.718   6.968 -10.141  0.00  0.00    +0.000 C 
BRANCH   4   5
ATOM      5  C   LIG    1       12.009   7.924 -11.103  0.00  0.00    +0.011 C 
BRANCH   5   6
ATOM      6  C   LIG    1       12.512   9.362 -11.010  0.00  0.00    +0.120 C 
BRANCH   6   7
ATOM      7  C   LIG    1       11.733  10.259 -11.949  0.00  0.00    +0.307 C 
ATOM      8  O   LIG    1       10.835   9.891 -12.690  0.00  0.00    -0.251 OA
BRANCH   7   9
ATOM      9  O   LIG    1       12.187  11.541 -11.844  0.00  0.00    -0.465 OA
BRANCH   9  11
ATOM     10  C   LIG    1       12.030  12.431 -14.097  0.00  0.00    +0.048 C 
ATOM     11  C   LIG    1       11.501  12.490 -12.675  0.00  0.00    +0.228 C 
ENDBRANCH   9  11
ENDBRANCH   7   9
ENDBRANCH   6   7
ENDBRANCH   5   6
ENDBRANCH   4   5
ENDBRANCH   3   4
ENDBRANCH   2   3
ENDBRANCH   1   2
BRANCH   1  12
ATOM     12  C   LIG    1       12.695   1.999  -8.834  0.00  0.00    +0.001 C 
BRANCH  12  13
ATOM     13  C   LIG    1       11.981   0.673  -9.157  0.00  0.00    +0.008 C 
BRANCH  13  14
ATOM     14  C   LIG    1       12.472  -0.527  -8.307  0.00  0.00    +0.017 C 
ATOM     15  C   LIG    1       11.780  -1.818  -8.771  0.00  0.00    +0.012 C 
BRANCH  14  16
ATOM     16  C   LIG    1       12.278  -0.384  -6.800  0.00  0.00    -0.031 A 
ATOM     17  C   LIG    1       13.159  -0.948  -5.853  0.00  0.00    +0.017 A 
ATOM     18  I   LIG    1       14.848  -2.104  -6.361  0.00  0.00    -0.043 I 
ATOM     19  C   LIG    1       12.933  -0.785  -4.478  0.00  0.00    +0.014 A 
ATOM     20  C   LIG    1       11.823  -0.077  -4.023  0.00  0.00    +0.001 A 
ATOM     21  C   LIG    1       10.927   0.460  -4.936  0.00  0.00    +0.000 A 
ATOM     22  C   LIG    1       11.147   0.298  -6.304  0.00  0.00    +0.005 A 
ENDBRANCH  14  16
ENDBRANCH  13  14
ENDBRANCH  12  13
ENDBRANCH   1  12
TORSDOF 12
