REMARK  Name = *****
REMARK                            x       y       z     vdW  Elec       q    Type
REMARK                         _______ _______ _______ _____ _____    ______ ____
ROOT
ATOM      1  C   LIG    1        6.117  -2.672  -7.585  0.00  0.00    -0.000 C 
ENDROOT
BRANCH   1   2
ATOM      2  C   LIG    1        6.903  -1.616  -6.790  0.00  0.00    -0.000 C 
BRANCH   2   3
ATOM      3  C   LIG    1        7.513  -0.514  -7.664  0.00  0.00    -0.000 C 
BRANCH   3   4
ATOM      4  C   LIG    1        8.230   0.605  -6.885  0.00  0.00    -0.000 C 
BRANCH   4   5
ATOM      5  C   LIG    1        9.486   0.174  -6.098  0.00  0.00    -0.000 C 
BRANCH   5   6
ATOM      6  C   LIG    1       10.130   1.360  -5.349  0.00  0.00    -0.000 C 
BRANCH   6   7
ATOM      7  C   LIG    1       11.399   1.022  -4.532  0.00  0.00    -0.000 C 
BRANCH   7   9
ATOM      8  C   LIG    1       12.374  -0.211  -2.489  0.00  0.00    +0.004 C 
ATOM      9  C   LIG    1       11.146   0.075  -3.352  0.00  0.00    -0.003 C 
ENDBRANCH   7   9
ENDBRANCH   6   7
ENDBRANCH   5   6
ENDBRANCH   4   5
ENDBRANCH   3   4
ENDBRANCH   2   3
ENDBRANCH   1   2
BRANCH   1  10
ATOM     10  C   LIG    1        6.985  -3.435  -8.582  0.00  0.00    -0.000 C 
BRANCH  10  11
ATOM     11  C   LIG    1        6.199  -4.543  -9.296  0.00  0.00    -0.000 C 
BRANCH  11  12
ATOM     12  C   LIG    1        7.055  -5.239 -10.348  0.00  0.00    -0.000 C 
BRANCH  12  13
ATOM     13  C   LIG    1        8.263  -6.043  -9.880  0.00  0.00    +0.000 C 
BRANCH  13  14
ATOM     14  C   LIG    1        9.083  -6.700 -11.009  0.00  0.00    +0.002 C 
BRANCH  14  15
ATOM     15  C   LIG    1        9.799  -5.762 -12.001  0.00  0.00    +0.028 C 
BRANCH  15  16
ATOM     16  C   LIG    1        8.931  -5.138 -13.110  0.00  0.00    +0.156 C 
BRANCH  16  17
ATOM     17  O   LIG    1        8.171  -4.008 -12.702  0.00  0.00    -0.395 OA
ATOM     18  H   LIG    1        7.269  -4.152 -12.957  0.00  0.00    +0.209 HD
ENDBRANCH  16  17
ENDBRANCH  15  16
ENDBRANCH  14  15
ENDBRANCH  13  14
ENDBRANCH  12  13
ENDBRANCH  11  12
ENDBRANCH  10  11
ENDBRANCH   1  10
TORSDOF 15
