REMARK  Name = *****
REMARK                            x       y       z     vdW  Elec       q    Type
REMARK                         _______ _______ _______ _____ _____    ______ ____
ROOT
ATOM      1  C   LIG    1        1.016  -0.033  -0.085  0.00  0.00    +0.147 C 
ATOM      2  C   LIG    1        2.529  -0.107  -0.077  0.00  0.00    +0.315 C 
ATOM      3  N   LIG    1        3.185   1.098  -0.074  0.00  0.00    -0.201 N 
ATOM      4  H   LIG    1        2.644   1.955  -0.082  0.00  0.00    +0.298 HD
ATOM      5  C   LIG    1        4.573   1.217  -0.078  0.00  0.00    +0.148 A 
ATOM      6  C   LIG    1        5.395   0.096  -0.075  0.00  0.00    +0.180 A 
ATOM      7  C   LIG    1        6.791   0.187  -0.079  0.00  0.00    +0.055 A 
ATOM      8  C   LIG    1        7.377   1.446  -0.085  0.00  0.00    +0.043 A 
ATOM      9  C   LIG    1        6.580   2.591  -0.087  0.00  0.00    +0.024 A 
ATOM     10 CL   LIG    1        9.089   1.596  -0.089  0.00  0.00    -0.084 Cl
ATOM     11  S   LIG    1        4.641  -1.496  -0.059  0.00  0.00    +0.182 S 
ATOM     12  O   LIG    1        5.037  -2.120  -1.308  0.00  0.00    -0.125 OA
ATOM     13  O   LIG    1        5.019  -2.086   1.211  0.00  0.00    -0.125 OA
ATOM     14  C   LIG    1        5.184   2.476  -0.084  0.00  0.00    +0.052 A 
ATOM     15  N   LIG    1        3.040  -1.289  -0.074  0.00  0.00    +0.090 NA
ENDROOT
TORSDOF 0
