REMARK  Name = *****
REMARK                            x       y       z     vdW  Elec       q    Type
REMARK                         _______ _______ _______ _____ _____    ______ ____
ROOT
ATOM      1  C   UNK A  0        4.047   1.995  -0.225  0.00  0.00    +0.037 C 
ENDROOT
BRANCH   1   2
ATOM      2  C   UNK A  0        5.524   1.770   0.115  0.00  0.00    -0.043 A 
ATOM      3  C   UNK A  0        6.488   2.757  -0.152  0.00  0.00    +0.005 A 
ATOM      4  C   UNK A  0        7.832   2.561   0.183  0.00  0.00    +0.013 A 
ATOM      5  C   UNK A  0        8.232   1.380   0.814  0.00  0.00    +0.037 A 
ATOM      6  C   UNK A  0        7.278   0.399   1.109  0.00  0.00    +0.013 A 
ATOM      7  C   UNK A  0        5.938   0.587   0.750  0.00  0.00    +0.005 A 
BRANCH   5   8
ATOM      8  C   UNK A  0        9.673   1.214   1.156  0.00  0.00    +0.245 C 
ATOM      9  N   GLU A  1       10.129  -0.082   1.208  0.00  0.00    -0.298 N 
ATOM     10  H   GLU A  1        9.510  -0.830   0.917  0.00  0.00    +0.150 HD
ATOM     11  O   UNK A  0       10.412   2.181   1.281  0.00  0.00    -0.270 OA
BRANCH   9  12
ATOM     12  CA  GLU A  1       11.523  -0.448   1.498  0.00  0.00    +0.182 C 
BRANCH  12  13
ATOM     13  C   GLU A  1       12.212  -0.942   0.214  0.00  0.00    +0.325 C 
ATOM     14  O   GLU A  1       13.162  -1.709   0.180  0.00  0.00    -0.249 OA
BRANCH  13  15
ATOM     15  OXT GLU A  1       11.719  -0.358  -0.909  0.00  0.00    -0.479 OA
ATOM     16  HXT GLU A  1       11.071   0.341  -0.683  0.00  0.00    +0.295 HD
ENDBRANCH  13  15
ENDBRANCH  12  13
BRANCH  12  17
ATOM     17  CB  GLU A  1       11.601  -1.422   2.683  0.00  0.00    +0.045 C 
BRANCH  17  18
ATOM     18  CG  GLU A  1       10.861  -2.743   2.477  0.00  0.00    +0.123 C 
BRANCH  18  19
ATOM     19  CD  GLU A  1       10.889  -3.615   3.704  0.00  0.00    +0.305 C 
ATOM     20  OE1 GLU A  1       11.877  -4.053   4.267  0.00  0.00    -0.251 OA
BRANCH  19  21
ATOM     21  OE2 GLU A  1        9.652  -3.947   4.125  0.00  0.00    -0.481 OA
ATOM     22  HE2 GLU A  1        9.811  -4.592   4.855  0.00  0.00    +0.295 HD
ENDBRANCH  19  21
ENDBRANCH  18  19
ENDBRANCH  17  18
ENDBRANCH  12  17
ENDBRANCH   9  12
ENDBRANCH   5   8
ENDBRANCH   1   2
BRANCH   1  23
ATOM     23  C   UNK A  0        3.880   2.091  -1.763  0.00  0.00    +0.097 C 
BRANCH  23  25
ATOM     24  C   UNK A  0        1.326   2.450  -2.513  0.00  0.00    +0.004 C 
ATOM     25  C   UNK A  0        2.451   2.257  -2.182  0.00  0.00    -0.105 C 
ENDBRANCH  23  25
ENDBRANCH   1  23
BRANCH   1  26
ATOM     26  C   UNK A  0        3.447   3.244   0.480  0.00  0.00    +0.066 C 
BRANCH  26  27
ATOM     27  C   UNK A  0        3.291   3.085   1.970  0.00  0.00    +0.061 A 
ATOM     28  N   UNK A  0        4.381   2.791   2.705  0.00  0.00    -0.243 NA
ATOM     29  C   UNK A  0        4.186   2.546   4.034  0.00  0.00    +0.148 A 
ATOM     30  C   UNK A  0        2.936   2.673   4.649  0.00  0.00    +0.185 A 
ATOM     31  N   UNK A  0        2.733   2.424   5.938  0.00  0.00    -0.193 NA
ATOM     32  C   UNK A  0        3.770   2.008   6.656  0.00  0.00    +0.216 A 
ATOM     33  N   UNK A  0        5.009   1.865   6.196  0.00  0.00    -0.198 NA
ATOM     34  N   UNK A  0        1.880   3.044   3.916  0.00  0.00    -0.233 NA
ATOM     35  C   UNK A  0        5.198   2.134   4.896  0.00  0.00    +0.149 A 
ATOM     36  C   UNK A  0        2.062   3.231   2.587  0.00  0.00    +0.136 A 
BRANCH  32  37
ATOM     37  N   UNK A  0        3.549   1.737   7.988  0.00  0.00    -0.327 N 
ATOM     38  H   UNK A  0        4.400   1.842   8.522  0.00  0.00    +0.145 HD
ATOM     39  H   UNK A  0        2.728   2.228   8.314  0.00  0.00    +0.145 HD
ENDBRANCH  32  37
BRANCH  35  40
ATOM     40  N   UNK A  0        6.490   1.871   4.409  0.00  0.00    -0.341 N 
ATOM     41  H   UNK A  0        6.799   2.595   3.765  0.00  0.00    +0.144 HD
ATOM     42  H   UNK A  0        7.115   1.699   5.189  0.00  0.00    +0.144 HD
ENDBRANCH  35  40
ENDBRANCH  26  27
ENDBRANCH   1  26
TORSDOF 15
