REMARK  Name = *****
REMARK                            x       y       z     vdW  Elec       q    Type
REMARK                         _______ _______ _______ _____ _____    ______ ____
ROOT
ATOM      1  C   LIG    1       -1.109   0.044  -0.574  0.00  0.00    +0.014 C 
ATOM      2  C   LIG    1       -2.439  -0.191   0.207  0.00  0.00    -0.001 C 
ATOM      3  C   LIG    1       -2.027  -0.787   1.596  0.00  0.00    +0.149 C 
ATOM      4  C   LIG    1       -1.931  -2.306   1.353  0.00  0.00    +0.144 C 
ATOM      5  C   LIG    1       -3.167  -2.550   0.514  0.00  0.00    +0.038 C 
ATOM      6  C   LIG    1       -3.289  -1.333  -0.452  0.00  0.00    +0.004 C 
ATOM      7  C   LIG    1       -4.762  -1.065  -0.919  0.00  0.00    +0.001 C 
ATOM      8  C   LIG    1       -5.218   0.420  -0.949  0.00  0.00    +0.023 C 
ATOM      9  C   LIG    1       -6.742   0.609  -1.040  0.00  0.00    -0.041 A 
ATOM     10  C   LIG    1       -7.638  -0.465  -0.910  0.00  0.00    -0.041 A 
ATOM     11  C   LIG    1       -7.158  -1.879  -0.828  0.00  0.00    +0.036 C 
ATOM     12  C   LIG    1       -9.026  -0.257  -0.908  0.00  0.00    +0.049 A 
ATOM     13  C   LIG    1       -9.534   1.028  -1.050  0.00  0.00    +0.117 A 
ATOM     14  C   LIG    1       -8.678   2.098  -1.228  0.00  0.00    +0.045 A 
ATOM     15  C   LIG    1       -7.291   1.896  -1.230  0.00  0.00    +0.008 A 
ATOM     16  C   LIG    1       -4.653   1.184   0.259  0.00  0.00    +0.009 C 
ATOM     17  C   LIG    1       -5.795  -1.940  -0.181  0.00  0.00    +0.009 C 
ATOM     18  C   LIG    1       -3.130   1.184   0.279  0.00  0.00    +0.010 C 
ENDROOT
BRANCH   3  19
ATOM     19  O   LIG    1       -2.999  -0.505   2.604  0.00  0.00    -0.389 OA
ATOM     20  H   LIG    1       -3.888  -0.636   2.236  0.00  0.00    +0.210 HD
ENDBRANCH   3  19
BRANCH   4  21
ATOM     21  O   LIG    1       -0.763  -2.684   0.638  0.00  0.00    -0.389 OA
ATOM     22  H   LIG    1       -1.003  -3.367  -0.012  0.00  0.00    +0.210 HD
ENDBRANCH   4  21
BRANCH  13  23
ATOM     23  O   LIG    1      -10.887   1.167  -1.012  0.00  0.00    -0.507 OA
ATOM     24  H   LIG    1      -11.099   2.113  -1.085  0.00  0.00    +0.292 HD
ENDBRANCH  13  23
TORSDOF 3
