REMARK  Name = *****
REMARK                            x       y       z     vdW  Elec       q    Type
REMARK                         _______ _______ _______ _____ _____    ______ ____
ROOT
ATOM      1  C   LIG    1        4.574  -0.293  -1.078  0.00  0.00    +0.243 C 
ATOM      2  N   LIG    1        5.318  -0.737  -2.178  0.00  0.00    -0.268 N 
ATOM      3  O   LIG    1        3.368  -0.467  -0.963  0.00  0.00    -0.270 OA
ENDROOT
BRANCH   2   4
ATOM      4  C   LIG    1        6.744  -0.798  -2.198  0.00  0.00    +0.039 A 
ATOM      5  C   LIG    1        7.498  -0.108  -3.169  0.00  0.00    -0.029 A 
ATOM      6  C   LIG    1        6.880   0.761  -4.230  0.00  0.00    +0.045 C 
ATOM      7  C   LIG    1        8.902  -0.199  -3.135  0.00  0.00    +0.005 A 
ATOM      8  C   LIG    1        9.552  -0.933  -2.145  0.00  0.00    +0.000 A 
ATOM      9  C   LIG    1        8.808  -1.602  -1.181  0.00  0.00    +0.002 A 
ATOM     10  C   LIG    1        7.413  -1.539  -1.208  0.00  0.00    +0.024 A 
ENDBRANCH   2   4
BRANCH   1  13
ATOM     11  C   LIG    1        5.568   1.216   2.332  0.00  0.00    +0.035 C 
ATOM     12  C   LIG    1        4.879   0.482   1.232  0.00  0.00    -0.025 C 
ATOM     13  C   LIG    1        5.311   0.490  -0.038  0.00  0.00    +0.063 C 
ENDBRANCH   1  13
BRANCH   2  14
ATOM     14  C   LIG    1        4.597  -1.499  -3.204  0.00  0.00    +0.111 C 
ATOM     15  C   LIG    1        4.505  -2.995  -2.913  0.00  0.00    +0.025 C 
ENDBRANCH   2  14
TORSDOF 3
