REMARK  Name = *****
REMARK                            x       y       z     vdW  Elec       q    Type
REMARK                         _______ _______ _______ _____ _____    ______ ____
ROOT
ATOM      1  C   LIG    1       -0.848  -4.023  -3.825  0.00  0.00    +0.169 C 
ATOM      2  C   LIG    1        0.595  -3.479  -3.565  0.00  0.00    +0.175 C 
ATOM      3  C   LIG    1        1.733  -4.021  -4.519  0.00  0.00    +0.169 C 
ATOM      4  C   LIG    1        1.240  -3.692  -5.956  0.00  0.00    +0.084 C 
ATOM      5  C   LIG    1       -0.036  -4.490  -6.246  0.00  0.00    +0.042 C 
ATOM      6  C   LIG    1       -1.177  -3.960  -5.362  0.00  0.00    +0.084 C 
ENDROOT
BRANCH   4   7
ATOM      7  N   LIG    1        2.218  -3.799  -7.031  0.00  0.00    -0.325 NA
ATOM      8  H   LIG    1        2.236  -4.734  -7.445  0.00  0.00    +0.118 HD
ATOM      9  H   LIG    1        3.151  -3.568  -6.711  0.00  0.00    +0.118 HD
ENDBRANCH   4   7
BRANCH   6  10
ATOM     10  N   LIG    1       -2.438  -4.624  -5.727  0.00  0.00    -0.325 NA
ATOM     11  H   LIG    1       -2.510  -4.721  -6.737  0.00  0.00    +0.118 HD
ATOM     12  H   LIG    1       -2.421  -5.570  -5.336  0.00  0.00    +0.118 HD
ENDBRANCH   6  10
BRANCH   2  13
ATOM     13  O   LIG    1        0.963  -3.538  -2.179  0.00  0.00    -0.387 OA
ATOM     14  H   LIG    1        1.915  -3.413  -2.120  0.00  0.00    +0.210 HD
ENDBRANCH   2  13
BRANCH   1  15
ATOM     15  O   LIG    1       -1.154  -5.334  -3.327  0.00  0.00    -0.342 OA
BRANCH  15  18
ATOM     16  C   LIG    1       -1.684  -7.385  -0.455  0.00  0.00    +0.138 C 
ATOM     17  O   LIG    1       -1.291  -7.004  -1.774  0.00  0.00    -0.345 OA
ATOM     18  C   LIG    1       -1.001  -5.595  -1.925  0.00  0.00    +0.268 C 
ATOM     19  C   LIG    1       -1.819  -4.725  -0.870  0.00  0.00    +0.107 C 
ATOM     20  C   LIG    1       -3.194  -5.342  -0.573  0.00  0.00    +0.026 C 
ATOM     21  C   LIG    1       -3.082  -6.819  -0.177  0.00  0.00    +0.035 C 
BRANCH  19  22
ATOM     22  N   LIG    1       -1.960  -3.274  -1.058  0.00  0.00    -0.323 NA
ATOM     23  H   LIG    1       -2.345  -2.851  -0.229  0.00  0.00    +0.119 HD
ATOM     24  H   LIG    1       -1.012  -2.887  -1.174  0.00  0.00    +0.119 HD
ENDBRANCH  19  22
BRANCH  16  25
ATOM     25  C   LIG    1       -1.582  -8.931  -0.305  0.00  0.00    +0.079 C 
ATOM     26  C   LIG    1       -2.417  -9.671  -1.362  0.00  0.00    +0.026 C 
BRANCH  25  28
ATOM     27  C   LIG    1       -1.177  -8.867   2.114  0.00  0.00    +0.101 C 
ATOM     28  N   LIG    1       -1.937  -9.466   1.025  0.00  0.00    -0.314 NA
ATOM     29  H   LIG    1       -2.935  -9.348   1.195  0.00  0.00    +0.122 HD
ENDBRANCH  25  28
ENDBRANCH  16  25
ENDBRANCH  15  18
ENDBRANCH   1  15
BRANCH   3  30
ATOM     30  O   LIG    1        2.006  -5.408  -4.249  0.00  0.00    -0.341 OA
BRANCH  30  31
ATOM     31  C   LIG    1        3.087  -6.062  -4.965  0.00  0.00    +0.281 C 
ATOM     32  C   LIG    1        3.206  -7.500  -4.347  0.00  0.00    +0.190 C 
ATOM     33  C   LIG    1        4.485  -8.264  -4.770  0.00  0.00    +0.121 C 
ATOM     34  C   LIG    1        5.740  -7.345  -4.675  0.00  0.00    +0.104 C 
ATOM     35  C   LIG    1        6.213  -7.032  -3.244  0.00  0.00    +0.045 C 
ATOM     36  C   LIG    1        5.429  -6.035  -5.417  0.00  0.00    +0.199 C 
ATOM     37  O   LIG    1        4.313  -5.338  -4.837  0.00  0.00    -0.346 OA
BRANCH  33  38
ATOM     38  N   LIG    1        4.779  -9.519  -4.011  0.00  0.00    -0.311 NA
ATOM     39  H   LIG    1        4.853  -9.249  -3.024  0.00  0.00    +0.122 HD
ATOM     40  C   LIG    1        3.708 -10.508  -4.062  0.00  0.00    +0.101 C 
ENDBRANCH  33  38
BRANCH  32  41
ATOM     41  O   LIG    1        3.194  -7.413  -2.907  0.00  0.00    -0.385 OA
ATOM     42  H   LIG    1        2.787  -6.547  -2.713  0.00  0.00    +0.210 HD
ENDBRANCH  32  41
BRANCH  34  43
ATOM     43  O   LIG    1        6.830  -8.021  -5.327  0.00  0.00    -0.385 OA
ATOM     44  H   LIG    1        6.803  -8.935  -4.968  0.00  0.00    +0.210 HD
ENDBRANCH  34  43
ENDBRANCH  30  31
ENDBRANCH   3  30
TORSDOF 13
