REMARK  Name = *****
REMARK                            x       y       z     vdW  Elec       q    Type
REMARK                         _______ _______ _______ _____ _____    ______ ____
ROOT
ATOM      1  C   LIG    1        3.076  -0.986   0.054  0.00  0.00    -0.034 A 
ATOM      2  C   LIG    1        2.333  -2.056  -0.465  0.00  0.00    +0.005 A 
ATOM      3  C   LIG    1        2.768  -3.379  -0.301  0.00  0.00    +0.004 A 
ATOM      4  C   LIG    1        3.950  -3.668   0.395  0.00  0.00    -0.047 A 
ATOM      5  C   LIG    1        4.679  -2.600   0.931  0.00  0.00    +0.004 A 
ATOM      6  C   LIG    1        4.261  -1.276   0.746  0.00  0.00    +0.005 A 
ENDROOT
BRANCH   1   8
ATOM      7  C   LIG    1        1.303   0.690   0.665  0.00  0.00    +0.024 C 
ATOM      8  C   LIG    1        2.614   0.461  -0.097  0.00  0.00    +0.124 C 
BRANCH   8   9
ATOM      9  C   LIG    1        2.475   0.955  -1.540  0.00  0.00    +0.312 C 
ATOM     10  O   LIG    1        1.709   1.838  -1.886  0.00  0.00    -0.250 OA
BRANCH   9  11
ATOM     11  O   LIG    1        3.338   0.396  -2.421  0.00  0.00    -0.480 OA
ATOM     12  H   LIG    1        3.913  -0.294  -2.041  0.00  0.00    +0.295 HD
ENDBRANCH   9  11
ENDBRANCH   8   9
ENDBRANCH   1   8
BRANCH   4  13
ATOM     13  C   LIG    1        4.428  -5.099   0.571  0.00  0.00    +0.046 C 
BRANCH  13  14
ATOM     14  C   LIG    1        5.789  -5.366  -0.081  0.00  0.00    +0.059 C 
ATOM     15  C   LIG    1        6.253  -6.809   0.028  0.00  0.00    +0.137 C 
ATOM     16  O   LIG    1        6.274  -7.452   1.071  0.00  0.00    -0.297 OA
ATOM     17  C   LIG    1        6.715  -7.361  -1.299  0.00  0.00    +0.075 C 
ATOM     18  C   LIG    1        6.878  -6.088  -2.117  0.00  0.00    +0.008 C 
ATOM     19  C   LIG    1        5.776  -5.173  -1.602  0.00  0.00    +0.012 C 
ENDBRANCH  13  14
ENDBRANCH   4  13
TORSDOF 5
