REMARK  Name = *****
REMARK                            x       y       z     vdW  Elec       q    Type
REMARK                         _______ _______ _______ _____ _____    ______ ____
ROOT
ATOM      1  C   LIG    1       -4.870  -4.014   0.018  0.00  0.00    +0.133 C 
ATOM      2  C   LIG    1       -5.504  -5.445  -0.027  0.00  0.00    +0.013 C 
ATOM      3  C   LIG    1       -6.322  -5.700  -1.327  0.00  0.00    +0.015 C 
ATOM      4  C   LIG    1       -6.526  -5.407   1.154  0.00  0.00    +0.002 C 
ATOM      5  C   LIG    1       -6.013  -5.924   2.521  0.00  0.00    +0.004 C 
ATOM      6  C   LIG    1       -5.196  -7.224   2.457  0.00  0.00    +0.069 C 
ATOM      7  C   LIG    1       -4.085  -7.053   1.435  0.00  0.00    +0.138 C 
ATOM      8  O   LIG    1       -2.942  -7.449   1.678  0.00  0.00    -0.297 OA
ATOM      9  C   LIG    1       -5.971  -8.587   2.359  0.00  0.00    -0.001 C 
ATOM     10  C   LIG    1       -4.989  -9.706   2.812  0.00  0.00    +0.016 C 
ATOM     11  C   LIG    1       -7.229  -8.574   3.244  0.00  0.00    -0.060 C 
ATOM     12  C   LIG    1       -7.926  -9.717   3.432  0.00  0.00    +0.046 C 
ATOM     13  C   LIG    1       -8.430 -10.189   2.087  0.00  0.00    +0.156 C 
ATOM     14  O   LIG    1       -9.542 -10.701   2.000  0.00  0.00    -0.293 OA
ATOM     15  C   LIG    1       -7.457 -10.147   0.916  0.00  0.00    +0.080 C 
ATOM     16  C   LIG    1       -8.023  -7.286   3.290  0.00  0.00    +0.032 C 
ATOM     17  C   LIG    1       -6.500  -8.944   0.947  0.00  0.00    +0.019 C 
ATOM     18  C   LIG    1       -7.137  -6.078   3.561  0.00  0.00    +0.009 C 
ATOM     19  C   LIG    1       -6.961  -3.919   1.248  0.00  0.00    +0.007 C 
ATOM     20  C   LIG    1       -4.431  -6.545   0.057  0.00  0.00    +0.084 C 
ATOM     21  C   LIG    1       -6.074  -3.113   0.293  0.00  0.00    +0.043 C 
ENDROOT
BRANCH   1  22
ATOM     22  C   LIG    1       -4.127  -3.608  -1.289  0.00  0.00    +0.202 C 
ATOM     23  O   LIG    1       -4.693  -3.596  -2.384  0.00  0.00    -0.291 OA
BRANCH  22  24
ATOM     24  C   LIG    1       -2.658  -3.199  -1.143  0.00  0.00    +0.309 C 
BRANCH  24  25
ATOM     25  O   LIG    1       -1.867  -3.337  -2.320  0.00  0.00    -0.457 OA
BRANCH  25  27
ATOM     26  C   LIG    1       -0.961  -2.508  -4.319  0.00  0.00    +0.136 C 
ATOM     27  C   LIG    1       -1.965  -2.328  -3.221  0.00  0.00    +0.304 C 
ATOM     28  O   LIG    1       -2.714  -1.361  -3.125  0.00  0.00    -0.251 OA
ENDBRANCH  25  27
ENDBRANCH  24  25
ENDBRANCH  22  24
ENDBRANCH   1  22
BRANCH   1  29
ATOM     29  O   LIG    1       -4.006  -3.950   1.155  0.00  0.00    -0.380 OA
ATOM     30  H   LIG    1       -3.840  -3.015   1.376  0.00  0.00    +0.211 HD
ENDBRANCH   1  29
TORSDOF 5
