REMARK  Name = *****
REMARK                            x       y       z     vdW  Elec       q    Type
REMARK                         _______ _______ _______ _____ _____    ______ ____
ROOT
ATOM      1  C   LIG    1       -4.042   0.104  -0.090  0.00  0.00    +0.132 C 
ATOM      2  C   LIG    1       -4.136   0.869   1.274  0.00  0.00    +0.011 C 
ATOM      3  C   LIG    1       -3.603  -0.040   2.401  0.00  0.00    +0.015 C 
ATOM      4  C   LIG    1       -5.652   1.153   1.355  0.00  0.00    +0.002 C 
ATOM      5  C   LIG    1       -6.081   2.146   2.458  0.00  0.00    +0.001 C 
ATOM      6  C   LIG    1       -5.283   3.466   2.413  0.00  0.00    +0.023 C 
ATOM      7  C   LIG    1       -3.765   3.214   2.339  0.00  0.00    +0.009 C 
ATOM      8  C   LIG    1       -5.591   4.369   3.601  0.00  0.00    -0.041 A 
ATOM      9  C   LIG    1       -6.132   3.861   4.799  0.00  0.00    -0.041 A 
ATOM     10  C   LIG    1       -6.317   4.718   5.895  0.00  0.00    +0.049 A 
ATOM     11  C   LIG    1       -5.977   6.062   5.793  0.00  0.00    +0.117 A 
ATOM     12  C   LIG    1       -5.470   6.580   4.611  0.00  0.00    +0.045 A 
ATOM     13  C   LIG    1       -6.574   2.426   4.927  0.00  0.00    +0.036 C 
ATOM     14  C   LIG    1       -5.275   5.736   3.519  0.00  0.00    +0.008 A 
ATOM     15  C   LIG    1       -5.962   1.528   3.864  0.00  0.00    +0.009 C 
ATOM     16  C   LIG    1       -5.965   1.627  -0.083  0.00  0.00    +0.008 C 
ATOM     17  C   LIG    1       -3.362   2.224   1.247  0.00  0.00    +0.011 C 
ATOM     18  C   LIG    1       -5.074   0.774  -1.008  0.00  0.00    +0.049 C 
ENDROOT
BRANCH   1  20
ATOM     19  C   LIG    1       -1.445   0.046  -0.581  0.00  0.00    +0.007 C 
ATOM     20  C   LIG    1       -2.638   0.079  -0.540  0.00  0.00    -0.070 C 
ENDBRANCH   1  20
BRANCH   1  21
ATOM     21  O   LIG    1       -4.469  -1.254   0.074  0.00  0.00    -0.376 OA
ATOM     22  H   LIG    1       -4.314  -1.696  -0.778  0.00  0.00    +0.211 HD
ENDBRANCH   1  21
BRANCH  11  23
ATOM     23  O   LIG    1       -6.135   6.913   6.847  0.00  0.00    -0.507 OA
ATOM     24  H   LIG    1       -6.478   6.405   7.600  0.00  0.00    +0.292 HD
ENDBRANCH  11  23
TORSDOF 3
