REMARK  Name = *****
REMARK                            x       y       z     vdW  Elec       q    Type
REMARK                         _______ _______ _______ _____ _____    ______ ____
ROOT
ATOM      1  C   LIG    1        4.568   1.173   1.146  0.00  0.00    +0.406 C 
ATOM      2  F   LIG    1        5.175   1.042  -0.059  0.00  0.00    -0.170 F 
ATOM      3  F   LIG    1        4.119  -0.052   1.509  0.00  0.00    -0.170 F 
ENDROOT
BRANCH   1   4
ATOM      4  C   LIG    1        5.541   1.689   2.213  0.00  0.00    +0.355 C 
ATOM      5 CL   LIG    1        6.261   3.264   1.780  0.00  0.00    -0.076 Cl
ATOM      6  F   LIG    1        6.555   0.796   2.398  0.00  0.00    -0.219 F 
ENDBRANCH   1   4
BRANCH   1   7
ATOM      7  O   LIG    1        3.446   2.026   0.996  0.00  0.00    -0.255 OA
BRANCH   7   9
ATOM      8  F   LIG    1        2.141   0.363   0.236  0.00  0.00    -0.178 F 
ATOM      9  C   LIG    1        2.647   1.580  -0.068  0.00  0.00    +0.487 C 
ATOM     10  F   LIG    1        1.592   2.423  -0.151  0.00  0.00    -0.178 F 
ENDBRANCH   7   9
ENDBRANCH   1   7
TORSDOF 3
