REMARK  Name = *****
REMARK                            x       y       z     vdW  Elec       q    Type
REMARK                         _______ _______ _______ _____ _____    ______ ____
ROOT
ATOM      1  C   LIG    1        3.643   1.486  -0.496  0.00  0.00    +0.125 A 
ATOM      2  C   LIG    1        4.709   1.751  -1.358  0.00  0.00    +0.069 A 
ATOM      3 CL   LIG    1        5.814   0.552  -1.928  0.00  0.00    -0.082 Cl
ATOM      4  C   LIG    1        4.923   3.065  -1.811  0.00  0.00    +0.046 A 
ATOM      5  C   LIG    1        4.077   4.122  -1.443  0.00  0.00    +0.056 A 
ATOM      6  N   LIG    1        4.401   5.417  -1.843  0.00  0.00    -0.328 N 
ATOM      7  H   LIG    1        4.914   5.466  -2.719  0.00  0.00    +0.147 HD
ATOM      8  C   LIG    1        3.434   6.477  -1.687  0.00  0.00    +0.209 C 
ATOM      9  N   LIG    1        2.933   6.485  -0.332  0.00  0.00    -0.173 NA
ATOM     10  H   LIG    1        2.404   7.324  -0.103  0.00  0.00    +0.150 HD
ATOM     11  S   LIG    1        2.001   5.131  -0.017  0.00  0.00    +0.062 S 
ATOM     12  O   LIG    1        0.859   5.184  -0.903  0.00  0.00    -0.153 OA
ATOM     13  O   LIG    1        1.846   5.045   1.417  0.00  0.00    -0.153 OA
ATOM     14  C   LIG    1        3.038   3.824  -0.560  0.00  0.00    +0.128 A 
ATOM     15  C   LIG    1        2.806   2.529  -0.083  0.00  0.00    +0.060 A 
ENDROOT
BRANCH   1  16
ATOM     16  S   LIG    1        3.332  -0.135   0.128  0.00  0.00    +0.057 S 
ATOM     17  O   LIG    1        4.542  -0.670   0.704  0.00  0.00    -0.153 OA
ATOM     18  O   LIG    1        2.083  -0.121   0.855  0.00  0.00    -0.153 OA
BRANCH  16  19
ATOM     19  N   LIG    1        3.002  -1.022  -1.259  0.00  0.00    -0.203 NA
ATOM     20  H   LIG    1        3.724  -1.732  -1.393  0.00  0.00    +0.144 HD
ATOM     21  H   LIG    1        2.056  -1.401  -1.209  0.00  0.00    +0.144 HD
ENDBRANCH  16  19
ENDBRANCH   1  16
TORSDOF 2
