REMARK  Name = *****
REMARK                            x       y       z     vdW  Elec       q    Type
REMARK                         _______ _______ _______ _____ _____    ______ ____
ROOT
ATOM      1  N   LIG    1        2.893   2.151   0.833  0.00  0.00    -0.179 NA
ATOM      2  C   LIG    1        2.082   2.405   1.811  0.00  0.00    +0.177 C 
ENDROOT
BRANCH   1   5
ATOM      3  O   LIG    1        0.935  -0.116   1.115  0.00  0.00    -0.224 OA
ATOM      4  C   LIG    1        1.990  -0.144   0.498  0.00  0.00    +0.423 C 
ATOM      5  N   LIG    1        2.951   0.860   0.377  0.00  0.00    -0.155 N 
ATOM      6  C   LIG    1        3.876   0.498  -0.646  0.00  0.00    +0.179 C 
ATOM      7  C   LIG    1        3.718  -1.000  -0.681  0.00  0.00    +0.255 C 
ATOM      8  O   LIG    1        2.383  -1.240  -0.230  0.00  0.00    -0.448 OA
ENDBRANCH   1   5
BRANCH   2   9
ATOM      9  C   LIG    1        1.964   3.725   2.359  0.00  0.00    +0.154 A 
ATOM     10  O   LIG    1        1.159   3.869   3.455  0.00  0.00    -0.399 OA
ATOM     11  C   LIG    1        1.242   5.172   3.824  0.00  0.00    +0.438 A 
ATOM     12  C   LIG    1        2.066   5.884   2.985  0.00  0.00    +0.132 A 
ATOM     13  C   LIG    1        2.533   4.943   2.029  0.00  0.00    +0.058 A 
BRANCH  11  14
ATOM     14  N   LIG    1        0.501   5.546   4.986  0.00  0.00    +0.119 N 
ATOM     15  O   LIG    1       -0.192   4.680   5.535  0.00  0.00    -0.574 OA
ATOM     16  O   LIG    1        0.622   6.721   5.356  0.00  0.00    +0.045 OA
ENDBRANCH  11  14
ENDBRANCH   2   9
TORSDOF 3
