REMARK  Name = *****
REMARK                            x       y       z     vdW  Elec       q    Type
REMARK                         _______ _______ _______ _____ _____    ______ ____
ROOT
ATOM      1  C   LIG    1        5.078   2.130   2.218  0.00  0.00    +0.220 A 
ATOM      2  N   LIG    1        4.609   3.364   2.203  0.00  0.00    -0.193 NA
ATOM      3  C   LIG    1        5.161   4.189   3.110  0.00  0.00    +0.185 A 
ATOM      4  N   LIG    1        6.079   3.820   4.005  0.00  0.00    -0.193 NA
ATOM      5  C   LIG    1        6.510   2.577   3.916  0.00  0.00    +0.224 A 
ATOM      6  N   LIG    1        6.030   1.709   3.023  0.00  0.00    -0.181 NA
ENDROOT
BRANCH   3   7
ATOM      7  C   LIG    1        4.731   5.614   3.099  0.00  0.00    +0.109 A 
ATOM      8  N   LIG    1        5.365   6.455   3.971  0.00  0.00    -0.240 NA
ATOM      9  C   LIG    1        5.024   7.777   4.003  0.00  0.00    +0.144 A 
ATOM     10  C   LIG    1        4.036   8.296   3.169  0.00  0.00    +0.032 A 
ATOM     11  C   LIG    1        3.391   7.443   2.280  0.00  0.00    +0.004 A 
ATOM     12  C   LIG    1        3.743   6.096   2.241  0.00  0.00    +0.031 A 
BRANCH   9  13
ATOM     13  C   LIG    1        5.756   8.693   4.976  0.00  0.00    +0.434 C 
ATOM     14  F   LIG    1        7.101   8.747   4.753  0.00  0.00    -0.164 F 
ATOM     15  F   LIG    1        5.604   8.322   6.280  0.00  0.00    -0.164 F 
ATOM     16  F   LIG    1        5.330   9.992   4.919  0.00  0.00    -0.164 F 
ENDBRANCH   9  13
ENDBRANCH   3   7
BRANCH   1  17
ATOM     17  N   LIG    1        4.532   1.253   1.287  0.00  0.00    -0.311 N 
ATOM     18  H   LIG    1        3.653   1.635   0.963  0.00  0.00    +0.149 HD
BRANCH  17  19
ATOM     19  C   LIG    1        4.461  -0.168   1.685  0.00  0.00    +0.138 C 
BRANCH  19  21
ATOM     20  C   LIG    1        3.178  -2.357   1.443  0.00  0.00    +0.042 C 
ATOM     21  C   LIG    1        3.229  -0.874   1.047  0.00  0.00    +0.076 C 
ATOM     22  C   LIG    1        3.241  -0.746  -0.477  0.00  0.00    +0.042 C 
BRANCH  21  23
ATOM     23  O   LIG    1        2.034  -0.244   1.536  0.00  0.00    -0.388 OA
ATOM     24  H   LIG    1        1.272  -0.720   1.159  0.00  0.00    +0.210 HD
ENDBRANCH  21  23
ENDBRANCH  19  21
ENDBRANCH  17  19
ENDBRANCH   1  17
BRANCH   5  25
ATOM     25  N   LIG    1        7.519   2.186   4.794  0.00  0.00    -0.283 N 
ATOM     26  H   LIG    1        7.633   2.875   5.525  0.00  0.00    +0.155 HD
BRANCH  25  27
ATOM     27  C   LIG    1        8.391   1.092   4.760  0.00  0.00    +0.037 A 
ATOM     28  C   LIG    1        8.158  -0.039   3.973  0.00  0.00    +0.055 A 
ATOM     29  C   LIG    1        9.097  -1.068   3.904  0.00  0.00    +0.145 A 
ATOM     30  N   LIG    1       10.271  -1.009   4.584  0.00  0.00    -0.251 NA
ATOM     31  C   LIG    1       10.498   0.095   5.328  0.00  0.00    +0.113 A 
ATOM     32  C   LIG    1        9.606   1.152   5.439  0.00  0.00    +0.043 A 
BRANCH  29  33
ATOM     33  C   LIG    1        8.758  -2.273   3.040  0.00  0.00    +0.434 C 
ATOM     34  F   LIG    1        8.556  -1.944   1.729  0.00  0.00    -0.164 F 
ATOM     35  F   LIG    1        7.599  -2.885   3.434  0.00  0.00    -0.164 F 
ATOM     36  F   LIG    1        9.707  -3.251   3.034  0.00  0.00    -0.164 F 
ENDBRANCH  29  33
ENDBRANCH  25  27
ENDBRANCH   5  25
TORSDOF 9
