REMARK  Name = *****
REMARK                            x       y       z     vdW  Elec       q    Type
REMARK                         _______ _______ _______ _____ _____    ______ ____
ROOT
ATOM      1  C   LIG    1        3.247   1.322  -2.348  0.00  0.00    +0.086 C 
ENDROOT
BRANCH   1   2
ATOM      2  N   LIG    1        3.829   2.319  -3.267  0.00  0.00    -0.302 NA
ATOM      3  C   LIG    1        2.852   3.020  -4.102  0.00  0.00    +0.086 C 
ATOM      4  C   LIG    1        1.959   3.983  -3.326  0.00  0.00    +0.047 C 
ATOM      5  C   LIG    1        2.714   5.051  -2.477  0.00  0.00    +0.101 C 
ATOM      6  C   LIG    1        3.870   4.301  -1.726  0.00  0.00    +0.047 C 
ATOM      7  C   LIG    1        4.663   3.313  -2.577  0.00  0.00    +0.086 C 
BRANCH   5   8
ATOM      8  N   LIG    1        3.284   6.199  -3.266  0.00  0.00    -0.289 NA
ATOM      9  C   LIG    1        2.549   6.758  -4.405  0.00  0.00    +0.085 C 
ATOM     10  C   LIG    1        1.517   7.832  -4.056  0.00  0.00    +0.015 C 
ATOM     11  C   LIG    1        2.110   8.948  -3.203  0.00  0.00    +0.002 C 
ATOM     12  C   LIG    1        2.946   8.407  -2.053  0.00  0.00    +0.015 C 
ATOM     13  C   LIG    1        3.904   7.298  -2.499  0.00  0.00    +0.085 C 
ENDBRANCH   5   8
BRANCH   5  14
ATOM     14  C   LIG    1        1.750   5.531  -1.341  0.00  0.00    +0.231 C 
ATOM     15  O   LIG    1        2.125   5.794  -0.197  0.00  0.00    -0.274 OA
ATOM     16  N   LIG    1        0.427   5.695  -1.632  0.00  0.00    -0.328 N 
ATOM     17  H   LIG    1       -0.178   5.927  -0.855  0.00  0.00    +0.145 HD
ATOM     18  H   LIG    1        0.001   5.415  -2.502  0.00  0.00    +0.145 HD
ENDBRANCH   5  14
ENDBRANCH   1   2
BRANCH   1  19
ATOM     19  C   LIG    1        2.522   0.185  -3.123  0.00  0.00    +0.046 C 
BRANCH  19  20
ATOM     20  C   LIG    1        1.891  -0.972  -2.279  0.00  0.00    +0.108 C 
BRANCH  20  21
ATOM     21  C   LIG    1        1.062  -1.847  -3.289  0.00  0.00    -0.023 A 
ATOM     22  C   LIG    1       -0.243  -1.468  -3.694  0.00  0.00    +0.005 A 
ATOM     23  C   LIG    1       -1.005  -2.260  -4.562  0.00  0.00    +0.000 A 
ATOM     24  C   LIG    1       -0.483  -3.448  -5.057  0.00  0.00    +0.000 A 
ATOM     25  C   LIG    1        0.818  -3.815  -4.724  0.00  0.00    +0.000 A 
ATOM     26  C   LIG    1        1.590  -3.014  -3.870  0.00  0.00    +0.005 A 
ENDBRANCH  20  21
BRANCH  20  27
ATOM     27  C   LIG    1        2.944  -1.794  -1.484  0.00  0.00    -0.023 A 
ATOM     28  C   LIG    1        4.332  -1.591  -1.622  0.00  0.00    +0.005 A 
ATOM     29  C   LIG    1        5.260  -2.239  -0.806  0.00  0.00    +0.000 A 
ATOM     30  C   LIG    1        4.829  -3.180   0.116  0.00  0.00    +0.000 A 
ATOM     31  C   LIG    1        3.470  -3.465   0.224  0.00  0.00    +0.000 A 
ATOM     32  C   LIG    1        2.535  -2.776  -0.560  0.00  0.00    +0.005 A 
ENDBRANCH  20  27
BRANCH  20  34
ATOM     33  N   LIG    1        0.201   0.222  -0.607  0.00  0.00    -0.195 NA
ATOM     34  C   LIG    1        0.946  -0.320  -1.300  0.00  0.00    +0.079 C 
ENDBRANCH  20  34
ENDBRANCH  19  20
ENDBRANCH   1  19
TORSDOF 8
