REMARK  Name = *****
REMARK                            x       y       z     vdW  Elec       q    Type
REMARK                         _______ _______ _______ _____ _____    ______ ____
ROOT
ATOM      1  P   LIG    1        2.709  -1.534  -0.357  0.00  0.00    +0.216 P 
ATOM      2  O   LIG    1        2.866  -0.610  -1.578  0.00  0.00    -0.290 OA
ENDROOT
BRANCH   1   3
ATOM      3  C   LIG    1        0.899  -1.498  -0.623  0.00  0.00    +0.193 C 
BRANCH   3   4
ATOM      4  C   LIG    1        0.050  -2.721  -0.344  0.00  0.00    +0.226 C 
ATOM      5  N   LIG    1       -0.920  -2.685   0.624  0.00  0.00    -0.287 N 
ATOM      6  C   LIG    1       -1.743  -3.859   0.998  0.00  0.00    +0.185 C 
ATOM      7  C   LIG    1       -2.487  -3.396   2.270  0.00  0.00    +0.039 C 
ATOM      8  C   LIG    1       -1.781  -2.114   2.759  0.00  0.00    +0.012 C 
ATOM      9  C   LIG    1       -1.257  -1.545   1.441  0.00  0.00    +0.112 C 
ATOM     10  O   LIG    1        0.089  -3.720  -1.066  0.00  0.00    -0.275 OA
BRANCH   8  11
ATOM     11  C   LIG    1       -0.684  -2.408   3.828  0.00  0.00    -0.006 C 
ATOM     12  C   LIG    1        0.276  -1.232   4.130  0.00  0.00    +0.004 C 
ATOM     13  C   LIG    1       -0.256  -0.194   5.114  0.00  0.00    +0.000 C 
ATOM     14  C   LIG    1       -0.721  -0.838   6.412  0.00  0.00    +0.000 C 
ATOM     15  C   LIG    1       -1.782  -1.889   6.130  0.00  0.00    +0.000 C 
ATOM     16  C   LIG    1       -1.269  -2.952   5.157  0.00  0.00    +0.004 C 
ENDBRANCH   8  11
BRANCH   6  17
ATOM     17  C   LIG    1       -2.822  -4.342  -0.001  0.00  0.00    +0.326 C 
ATOM     18  O   LIG    1       -3.703  -5.141   0.293  0.00  0.00    -0.249 OA
BRANCH  17  19
ATOM     19  O   LIG    1       -2.732  -3.815  -1.242  0.00  0.00    -0.479 OA
ATOM     20  H   LIG    1       -1.867  -3.380  -1.387  0.00  0.00    +0.295 HD
ENDBRANCH  17  19
ENDBRANCH   6  17
ENDBRANCH   3   4
ENDBRANCH   1   3
BRANCH   1  21
ATOM     21  O   LIG    1        4.420  -1.569  -0.105  0.00  0.00    -0.286 OA
BRANCH  21  22
ATOM     22  C   LIG    1        5.135  -0.332   0.054  0.00  0.00    +0.320 C 
BRANCH  22  23
ATOM     23  C   LIG    1        6.645  -0.661   0.279  0.00  0.00    +0.052 C 
ATOM     24  C   LIG    1        7.258  -1.330  -0.963  0.00  0.00    +0.013 C 
ATOM     25  C   LIG    1        6.940  -1.565   1.481  0.00  0.00    +0.013 C 
ENDBRANCH  22  23
BRANCH  22  26
ATOM     26  O   LIG    1        4.521   0.450   1.096  0.00  0.00    -0.434 OA
BRANCH  26  27
ATOM     27  C   LIG    1        4.821   1.796   1.059  0.00  0.00    +0.309 C 
ATOM     28  O   LIG    1        5.838   2.285   0.630  0.00  0.00    -0.251 OA
BRANCH  27  30
ATOM     29  C   LIG    1        3.667   2.982   2.996  0.00  0.00    +0.015 C 
ATOM     30  C   LIG    1        3.621   2.614   1.530  0.00  0.00    +0.117 C 
ENDBRANCH  27  30
ENDBRANCH  26  27
ENDBRANCH  22  26
ENDBRANCH  21  22
ENDBRANCH   1  21
BRANCH   1  31
ATOM     31  C   LIG    1        2.929  -3.326  -1.018  0.00  0.00    +0.098 C 
BRANCH  31  32
ATOM     32  C   LIG    1        2.869  -4.386   0.087  0.00  0.00    +0.010 C 
BRANCH  32  33
ATOM     33  C   LIG    1        3.932  -4.182   1.167  0.00  0.00    +0.005 C 
BRANCH  33  34
ATOM     34  C   LIG    1        3.845  -5.272   2.235  0.00  0.00    +0.035 C 
BRANCH  34  35
ATOM     35  C   LIG    1        4.873  -5.101   3.324  0.00  0.00    -0.047 A 
ATOM     36  C   LIG    1        6.138  -5.695   3.212  0.00  0.00    +0.003 A 
ATOM     37  C   LIG    1        7.103  -5.498   4.202  0.00  0.00    +0.000 A 
ATOM     38  C   LIG    1        6.805  -4.731   5.326  0.00  0.00    +0.000 A 
ATOM     39  C   LIG    1        5.538  -4.168   5.466  0.00  0.00    +0.000 A 
ATOM     40  C   LIG    1        4.582  -4.337   4.463  0.00  0.00    +0.003 A 
ENDBRANCH  34  35
ENDBRANCH  33  34
ENDBRANCH  32  33
ENDBRANCH  31  32
ENDBRANCH   1  31
TORSDOF 16
