REMARK  Name = *****
REMARK                            x       y       z     vdW  Elec       q    Type
REMARK                         _______ _______ _______ _____ _____    ______ ____
ROOT
ATOM      1  C   LIG    1        5.008   2.974  -0.266  0.00  0.00    +0.121 A 
ATOM      2  C   LIG    1        6.266   3.115  -0.857  0.00  0.00    +0.045 A 
ATOM      3  C   LIG    1        6.852   4.376  -0.991  0.00  0.00    +0.004 A 
ATOM      4  C   LIG    1        6.180   5.508  -0.531  0.00  0.00    +0.000 A 
ATOM      5  C   LIG    1        4.925   5.376   0.055  0.00  0.00    +0.004 A 
ATOM      6  C   LIG    1        4.340   4.114   0.188  0.00  0.00    +0.045 A 
ENDROOT
BRANCH   1   7
ATOM      7  O   LIG    1        4.542   1.688  -0.186  0.00  0.00    -0.490 OA
BRANCH   7   8
ATOM      8  C   LIG    1        3.260   1.516   0.416  0.00  0.00    +0.257 C 
BRANCH   8   9
ATOM      9  C   LIG    1        2.901   0.035   0.430  0.00  0.00    +0.197 C 
BRANCH   9  10
ATOM     10  O   LIG    1        1.618  -0.146   1.020  0.00  0.00    -0.392 OA
ATOM     11  H   LIG    1        1.429  -1.100   1.004  0.00  0.00    +0.209 HD
ENDBRANCH   9  10
ENDBRANCH   8   9
ENDBRANCH   7   8
ENDBRANCH   1   7
TORSDOF 4
