REMARK  Name = *****
REMARK                            x       y       z     vdW  Elec       q    Type
REMARK                         _______ _______ _______ _____ _____    ______ ____
ROOT
ATOM      1  C   LIG    1        2.806  -1.272  -0.073  0.00  0.00    +0.162 A 
ATOM      2  C   LIG    1        2.185  -2.431   0.355  0.00  0.00    +0.167 A 
ATOM      3  O   LIG    1        0.905  -2.752   0.721  0.00  0.00    -0.476 OA
ATOM      4  C   LIG    1        0.806  -4.181   0.445  0.00  0.00    +0.253 C 
ATOM      5  C   LIG    1        2.028  -4.896   1.005  0.00  0.00    +0.075 C 
ATOM      6  C   LIG    1        2.192  -6.592   0.431  0.00  0.00    +0.096 C 
ATOM      7  C   LIG    1        3.896  -6.779  -0.527  0.00  0.00    +0.093 C 
ATOM      8  N   LIG    1        3.607  -6.402  -1.847  0.00  0.00    -0.299 NA
ATOM      9  C   LIG    1        2.986  -5.254  -1.242  0.00  0.00    +0.085 C 
ATOM     10  C   LIG    1        2.814  -7.311  -2.636  0.00  0.00    +0.105 C 
ATOM     11  C   LIG    1        5.166  -5.311  -0.412  0.00  0.00    +0.057 C 
ATOM     12  C   LIG    1        4.470  -3.627  -0.244  0.00  0.00    -0.038 A 
ATOM     13  C   LIG    1        5.027  -2.455  -0.669  0.00  0.00    +0.008 A 
ATOM     14  C   LIG    1        0.807  -7.014  -0.133  0.00  0.00    +0.045 C 
ATOM     15  C   LIG    1       -0.335  -6.501   0.784  0.00  0.00    +0.081 C 
ATOM     16  C   LIG    1        3.340  -5.199   0.731  0.00  0.00    +0.034 C 
ATOM     17  C   LIG    1       -0.364  -4.980   1.014  0.00  0.00    +0.174 C 
ATOM     18  O   LIG    1       -1.308  -4.453   1.603  0.00  0.00    -0.293 OA
ATOM     19  C   LIG    1        2.973  -3.538   0.343  0.00  0.00    +0.014 A 
ATOM     20  C   LIG    1        4.185  -1.303  -0.557  0.00  0.00    +0.050 A 
ENDROOT
BRANCH   1  22
ATOM     21  C   LIG    1        0.942   0.111   0.431  0.00  0.00    +0.277 C 
ATOM     22  O   LIG    1        2.237  -0.024  -0.142  0.00  0.00    -0.491 OA
ENDBRANCH   1  22
BRANCH   6  23
ATOM     23  O   LIG    1        2.302  -7.459   1.609  0.00  0.00    -0.386 OA
ATOM     24  H   LIG    1        2.595  -8.334   1.295  0.00  0.00    +0.210 HD
ENDBRANCH   6  23
TORSDOF 2
