REMARK  Name = *****
REMARK                            x       y       z     vdW  Elec       q    Type
REMARK                         _______ _______ _______ _____ _____    ______ ____
ROOT
ATOM      1  C   LIG    1        5.538   0.659   2.865  0.00  0.00    -0.025 A 
ATOM      2  C   LIG    1        6.454   1.712   2.921  0.00  0.00    +0.008 A 
ATOM      3  C   LIG    1        7.708   1.588   2.313  0.00  0.00    +0.008 A 
ATOM      4  C   LIG    1        8.066   0.405   1.660  0.00  0.00    -0.025 A 
ATOM      5  C   LIG    1        7.166  -0.667   1.645  0.00  0.00    +0.008 A 
ATOM      6  C   LIG    1        5.904  -0.538   2.240  0.00  0.00    +0.008 A 
ENDROOT
BRANCH   1  14
ATOM      7  C   LIG    1        3.339  -2.252   5.353  0.00  0.00    +0.012 C 
ATOM      8  C   LIG    1        3.658  -1.136   6.375  0.00  0.00    -0.014 C 
ATOM      9  C   LIG    1        4.253  -1.838   7.616  0.00  0.00    +0.012 C 
ATOM     10  C   LIG    1        2.492  -0.082   6.599  0.00  0.00    +0.061 C 
ATOM     11  C   LIG    1        2.483   0.583   5.221  0.00  0.00    +0.168 C 
ATOM     12  O   LIG    1        1.567   1.185   4.691  0.00  0.00    -0.292 OA
ATOM     13  C   LIG    1        3.874   0.507   4.679  0.00  0.00    -0.000 C 
ATOM     14  C   LIG    1        4.196   0.817   3.421  0.00  0.00    +0.015 C 
ATOM     15  C   LIG    1        3.179   0.990   7.484  0.00  0.00    +0.018 C 
ATOM     16  C   LIG    1        4.641   1.004   6.961  0.00  0.00    +0.010 C 
ATOM     17  C   LIG    1        4.650  -0.063   5.837  0.00  0.00    +0.029 C 
BRANCH  10  18
ATOM     18  C   LIG    1        1.146  -0.624   7.063  0.00  0.00    +0.213 C 
BRANCH  18  19
ATOM     19  S   LIG    1       -0.211   0.555   7.267  0.00  0.00    +0.081 S 
ATOM     20  O   LIG    1        0.273   1.778   7.850  0.00  0.00    -0.147 OA
ATOM     21  O   LIG    1       -1.341  -0.159   7.832  0.00  0.00    -0.147 OA
BRANCH  19  22
ATOM     22  O   LIG    1       -0.594   0.869   5.736  0.00  0.00    -0.254 OA
ATOM     23  H   LIG    1       -0.010   1.590   5.383  0.00  0.00    +0.244 HD
ENDBRANCH  19  22
ENDBRANCH  18  19
ENDBRANCH  10  18
ENDBRANCH   1  14
BRANCH   4  24
ATOM     24  C   LIG    1        9.344   0.325   0.948  0.00  0.00    +0.015 C 
ATOM     25  C   LIG    1       10.508  -0.089   1.461  0.00  0.00    -0.000 C 
ATOM     26  C   LIG    1       11.829  -0.278   0.747  0.00  0.00    +0.029 C 
ATOM     27  C   LIG    1       12.260  -1.681   1.258  0.00  0.00    -0.014 C 
ATOM     28  C   LIG    1       12.210  -1.241   2.772  0.00  0.00    +0.061 C 
ATOM     29  C   LIG    1       13.150  -0.009   2.785  0.00  0.00    +0.018 C 
ATOM     30  C   LIG    1       11.282  -2.812   0.867  0.00  0.00    +0.012 C 
ATOM     31  C   LIG    1       13.642  -2.084   0.694  0.00  0.00    +0.012 C 
ATOM     32  C   LIG    1       12.869   0.659   1.412  0.00  0.00    +0.010 C 
ATOM     33  C   LIG    1       10.815  -0.614   2.830  0.00  0.00    +0.168 C 
ATOM     34  O   LIG    1       10.123  -0.453   3.814  0.00  0.00    -0.292 OA
BRANCH  28  35
ATOM     35  C   LIG    1       12.455  -2.327   3.805  0.00  0.00    +0.213 C 
BRANCH  35  36
ATOM     36  S   LIG    1       12.438  -1.765   5.518  0.00  0.00    +0.081 S 
ATOM     37  O   LIG    1       11.094  -1.657   6.052  0.00  0.00    -0.147 OA
ATOM     38  O   LIG    1       13.447  -0.766   5.731  0.00  0.00    -0.147 OA
BRANCH  36  39
ATOM     39  O   LIG    1       12.982  -3.131   6.188  0.00  0.00    -0.254 OA
ATOM     40  H   LIG    1       12.377  -3.338   6.933  0.00  0.00    +0.244 HD
ENDBRANCH  36  39
ENDBRANCH  35  36
ENDBRANCH  28  35
ENDBRANCH   4  24
TORSDOF 8
