REMARK  Name = *****
REMARK                            x       y       z     vdW  Elec       q    Type
REMARK                         _______ _______ _______ _____ _____    ______ ____
ROOT
ATOM      1  C   LIG    1        6.333   1.117  -2.282  0.00  0.00    -0.017 C 
ATOM      2  C   LIG    1        7.473   1.616  -2.808  0.00  0.00    -0.013 C 
ATOM      3  C   LIG    1        7.349   2.677  -3.849  0.00  0.00    -0.003 A 
ATOM      4  C   LIG    1        8.112   3.854  -3.704  0.00  0.00    +0.021 A 
ATOM      5  C   LIG    1        8.021   4.868  -4.666  0.00  0.00    +0.017 A 
ATOM      6  C   LIG    1        7.203   4.704  -5.785  0.00  0.00    +0.021 A 
ATOM      7  C   LIG    1        6.477   3.526  -5.945  0.00  0.00    +0.042 A 
ATOM      8 CL   LIG    1        5.493   3.315  -7.341  0.00  0.00    -0.084 Cl
ATOM      9  S   LIG    1        9.218   4.094  -2.310  0.00  0.00    -0.088 S 
ATOM     10  C   LIG    1        9.681   2.394  -1.966  0.00  0.00    +0.021 A 
ATOM     11  C   LIG    1       10.949   2.145  -1.427  0.00  0.00    +0.015 A 
ATOM     12  C   LIG    1       11.378   0.835  -1.212  0.00  0.00    +0.001 A 
ATOM     13  C   LIG    1       10.552  -0.233  -1.554  0.00  0.00    +0.001 A 
ATOM     14  C   LIG    1        9.282   0.007  -2.082  0.00  0.00    +0.009 A 
ATOM     15  C   LIG    1        6.545   2.514  -4.987  0.00  0.00    +0.029 A 
ATOM     16  C   LIG    1        8.817   1.318  -2.251  0.00  0.00    -0.004 A 
ENDROOT
BRANCH   1  17
ATOM     17  C   LIG    1        6.142   0.161  -1.123  0.00  0.00    +0.043 C 
BRANCH  17  18
ATOM     18  C   LIG    1        5.305   0.786   0.014  0.00  0.00    +0.088 C 
BRANCH  18  20
ATOM     19  C   LIG    1        4.442   0.625   2.261  0.00  0.00    +0.104 C 
ATOM     20  N   LIG    1        5.114  -0.104   1.179  0.00  0.00    -0.308 NA
ATOM     21  C   LIG    1        4.340  -1.301   0.847  0.00  0.00    +0.104 C 
ENDBRANCH  18  20
ENDBRANCH  17  18
ENDBRANCH   1  17
TORSDOF 3
