REMARK  Name = *****
REMARK                            x       y       z     vdW  Elec       q    Type
REMARK                         _______ _______ _______ _____ _____    ______ ____
ROOT
ATOM      1  C   LIG    1       11.015   2.190   1.067  0.00  0.00    +0.178 C 
ENDROOT
BRANCH   1   6
ATOM      2 CL   LIG    1        7.777   1.825   6.193  0.00  0.00    -0.084 Cl
ATOM      3  C   LIG    1        8.710   1.919   4.749  0.00  0.00    +0.041 A 
ATOM      4  C   LIG    1        8.318   1.200   3.623  0.00  0.00    +0.020 A 
ATOM      5  C   LIG    1        9.072   1.284   2.446  0.00  0.00    +0.008 A 
ATOM      6  C   LIG    1       10.235   2.077   2.382  0.00  0.00    -0.014 A 
ATOM      7  C   LIG    1       10.614   2.784   3.537  0.00  0.00    +0.008 A 
ATOM      8  C   LIG    1        9.852   2.713   4.710  0.00  0.00    +0.020 A 
ENDBRANCH   1   6
BRANCH   1   9
ATOM      9  C   LIG    1       10.595   3.402   0.240  0.00  0.00    -0.015 A 
ATOM     10  C   LIG    1       10.829   4.717   0.688  0.00  0.00    +0.006 A 
ATOM     11  C   LIG    1       10.413   5.813  -0.068  0.00  0.00    +0.000 A 
ATOM     12  C   LIG    1        9.747   5.625  -1.274  0.00  0.00    +0.000 A 
ATOM     13  C   LIG    1        9.522   4.329  -1.744  0.00  0.00    +0.000 A 
ATOM     14  C   LIG    1        9.964   3.232  -1.003  0.00  0.00    +0.006 A 
ENDBRANCH   1   9
BRANCH   1  15
ATOM     15  O   LIG    1       12.436   2.205   1.322  0.00  0.00    -0.366 OA
BRANCH  15  16
ATOM     16  C   LIG    1       13.195   1.831   0.160  0.00  0.00    +0.176 C 
BRANCH  16  17
ATOM     17  C   LIG    1       14.708   1.935   0.435  0.00  0.00    +0.112 C 
BRANCH  17  18
ATOM     18  N   LIG    1       15.612   1.768  -0.723  0.00  0.00    -0.300 NA
ATOM     19  C   LIG    1       15.492   2.863  -1.696  0.00  0.00    +0.084 C 
ATOM     20  C   LIG    1       16.544   2.736  -2.802  0.00  0.00    +0.015 C 
ATOM     21  C   LIG    1       16.454   1.381  -3.495  0.00  0.00    +0.002 C 
ATOM     22  C   LIG    1       16.512   0.257  -2.467  0.00  0.00    +0.015 C 
ATOM     23  C   LIG    1       15.468   0.457  -1.366  0.00  0.00    +0.084 C 
ENDBRANCH  17  18
ENDBRANCH  16  17
ENDBRANCH  15  16
ENDBRANCH   1  15
TORSDOF 6
