REMARK  Name = *****
REMARK                            x       y       z     vdW  Elec       q    Type
REMARK                         _______ _______ _______ _____ _____    ______ ____
ROOT
ATOM      1  C   LIG    1        2.152  15.037  -6.139  0.00  0.00    +0.014 C 
ATOM      2  C   LIG    1        2.547  15.200  -4.669  0.00  0.00    +0.056 C 
ATOM      3  C   LIG    1        1.291  15.506  -3.785  0.00  0.00    +0.179 C 
ATOM      4  C   LIG    1        0.369  14.293  -3.671  0.00  0.00    +0.052 C 
ATOM      5  O   LIG    1        0.614  16.672  -4.327  0.00  0.00    -0.461 OA
ATOM      6  C   LIG    1       -0.713  16.798  -4.047  0.00  0.00    +0.310 C 
ATOM      7  O   LIG    1       -1.574  16.339  -4.788  0.00  0.00    -0.251 OA
ATOM      8  C   LIG    1       -0.963  17.676  -2.842  0.00  0.00    +0.152 C 
ATOM      9  C   LIG    1       -2.232  17.329  -2.056  0.00  0.00    +0.128 C 
ATOM     10  C   LIG    1       -3.559  17.479  -2.832  0.00  0.00    +0.063 C 
ATOM     11  C   LIG    1       -4.724  16.546  -2.449  0.00  0.00    +0.117 C 
ATOM     12  C   LIG    1       -4.862  15.276  -3.328  0.00  0.00    +0.034 C 
ATOM     13  C   LIG    1       -4.711  13.898  -2.651  0.00  0.00    +0.036 C 
ATOM     14  C   LIG    1       -3.280  13.354  -2.729  0.00  0.00    +0.143 C 
ATOM     15  C   LIG    1       -2.954  12.245  -1.695  0.00  0.00    +0.145 C 
ATOM     16  C   LIG    1       -1.434  12.000  -1.662  0.00  0.00    +0.065 C 
ATOM     17  C   LIG    1       -0.791  11.252  -0.478  0.00  0.00    +0.122 C 
ATOM     18  C   LIG    1        0.426  12.029   0.089  0.00  0.00    +0.096 C 
ATOM     19  C   LIG    1        0.108  13.333   0.886  0.00  0.00    +0.172 C 
ATOM     20  C   LIG    1        0.682  14.581   0.222  0.00  0.00    +0.097 C 
ATOM     21  C   LIG    1        0.454  15.823   1.091  0.00  0.00    +0.136 C 
ATOM     22  C   LIG    1        0.961  15.585   2.514  0.00  0.00    +0.155 C 
ATOM     23  C   LIG    1        0.502  14.252   3.126  0.00  0.00    +0.141 C 
ATOM     24  C   LIG    1       -0.886  14.118   3.812  0.00  0.00    +0.068 C 
ATOM     25  C   LIG    1       -0.999  12.857   4.717  0.00  0.00    +0.147 C 
ATOM     26  C   LIG    1       -0.638  11.598   3.981  0.00  0.00    +0.004 C 
ATOM     27  C   LIG    1        0.449  10.871   4.286  0.00  0.00    -0.002 C 
ATOM     28  C   LIG    1        0.915   9.752   3.506  0.00  0.00    -0.000 C 
ATOM     29  C   LIG    1        2.127   9.215   3.725  0.00  0.00    +0.000 C 
ATOM     30  C   LIG    1        2.756   8.349   2.757  0.00  0.00    +0.000 C 
ATOM     31  C   LIG    1        4.087   8.176   2.712  0.00  0.00    +0.000 C 
ATOM     32  C   LIG    1        4.700   7.727   1.480  0.00  0.00    +0.000 C 
ATOM     33  C   LIG    1        5.880   8.229   1.076  0.00  0.00    +0.000 C 
ATOM     34  C   LIG    1        6.162   8.312  -0.344  0.00  0.00    +0.000 C 
ATOM     35  C   LIG    1        6.756   9.411  -0.840  0.00  0.00    +0.000 C 
ATOM     36  C   LIG    1        6.515   9.836  -2.204  0.00  0.00    +0.000 C 
ATOM     37  C   LIG    1        6.572  11.138  -2.529  0.00  0.00    -0.000 C 
ATOM     38  C   LIG    1        5.910  11.667  -3.702  0.00  0.00    -0.004 C 
ATOM     39  C   LIG    1        5.670  12.983  -3.833  0.00  0.00    -0.021 C 
ATOM     40  C   LIG    1        4.719  13.657  -4.821  0.00  0.00    +0.037 C 
ATOM     41  C   LIG    1        4.512  12.795  -6.076  0.00  0.00    +0.014 C 
ATOM     42  O   LIG    1        0.726  13.203   2.169  0.00  0.00    -0.344 OA
ATOM     43  C   LIG    1        3.363  13.998  -4.106  0.00  0.00    +0.127 C 
ENDROOT
BRANCH   9  44
ATOM     44  O   LIG    1       -2.081  16.059  -1.437  0.00  0.00    -0.391 OA
ATOM     45  H   LIG    1       -2.909  15.923  -0.923  0.00  0.00    +0.210 HD
ENDBRANCH   9  44
BRANCH  11  46
ATOM     46  O   LIG    1       -4.665  16.252  -1.056  0.00  0.00    -0.392 OA
ATOM     47  H   LIG    1       -5.489  16.587  -0.654  0.00  0.00    +0.210 HD
ENDBRANCH  11  46
BRANCH  14  48
ATOM     48  O   LIG    1       -3.017  12.856  -4.045  0.00  0.00    -0.389 OA
ATOM     49  H   LIG    1       -2.934  13.630  -4.632  0.00  0.00    +0.210 HD
ENDBRANCH  14  48
BRANCH  15  50
ATOM     50  O   LIG    1       -3.410  12.606  -0.392  0.00  0.00    -0.389 OA
ATOM     51  H   LIG    1       -2.913  13.410  -0.125  0.00  0.00    +0.210 HD
ENDBRANCH  15  50
BRANCH  17  52
ATOM     52  O   LIG    1       -1.675  10.953   0.602  0.00  0.00    -0.392 OA
ATOM     53  H   LIG    1       -2.599  11.045   0.285  0.00  0.00    +0.210 HD
ENDBRANCH  17  52
BRANCH  19  54
ATOM     54  O   LIG    1       -1.291  13.513   1.012  0.00  0.00    -0.364 OA
ATOM     55  H   LIG    1       -1.613  12.630   1.298  0.00  0.00    +0.213 HD
ENDBRANCH  19  54
BRANCH  21  56
ATOM     56  O   LIG    1        1.160  16.899   0.449  0.00  0.00    -0.391 OA
ATOM     57  H   LIG    1        1.587  17.458   1.124  0.00  0.00    +0.210 HD
ENDBRANCH  21  56
BRANCH  22  58
ATOM     58  C   LIG    1        0.713  16.787   3.384  0.00  0.00    +0.313 C 
ATOM     59  O   LIG    1       -0.264  17.046   4.079  0.00  0.00    -0.251 OA
BRANCH  58  60
ATOM     60  O   LIG    1        1.722  17.680   3.311  0.00  0.00    -0.480 OA
ATOM     61  H   LIG    1        1.460  18.391   3.935  0.00  0.00    +0.295 HD
ENDBRANCH  58  60
ENDBRANCH  22  58
BRANCH  43  62
ATOM     62  O   LIG    1        3.589  14.307  -2.718  0.00  0.00    -0.391 OA
ATOM     63  H   LIG    1        3.867  13.482  -2.280  0.00  0.00    +0.210 HD
ENDBRANCH  43  62
BRANCH  25  64
ATOM     64  O   LIG    1       -2.341  12.786   5.239  0.00  0.00    -0.341 OA
BRANCH  64  65
ATOM     65  C   LIG    1       -2.521  11.775   6.248  0.00  0.00    +0.281 C 
ATOM     66  C   LIG    1       -3.918  11.846   6.913  0.00  0.00    +0.189 C 
ATOM     67  C   LIG    1       -5.039  11.751   5.852  0.00  0.00    +0.116 C 
ATOM     68  C   LIG    1       -4.550  10.990   4.600  0.00  0.00    +0.162 C 
ATOM     69  C   LIG    1       -3.530   9.921   5.028  0.00  0.00    +0.148 C 
ATOM     70  C   LIG    1       -3.068   9.055   3.861  0.00  0.00    +0.040 C 
ATOM     71  O   LIG    1       -2.374  10.455   5.698  0.00  0.00    -0.343 OA
BRANCH  67  72
ATOM     72  N   LIG    1       -5.658  13.046   5.474  0.00  0.00    -0.323 NA
ATOM     73  H   LIG    1       -5.581  13.666   6.287  0.00  0.00    +0.119 HD
ATOM     74  H   LIG    1       -5.050  13.503   4.787  0.00  0.00    +0.119 HD
ENDBRANCH  67  72
BRANCH  66  75
ATOM     75  O   LIG    1       -4.136  12.962   7.783  0.00  0.00    -0.385 OA
ATOM     76  H   LIG    1       -4.947  12.753   8.284  0.00  0.00    +0.210 HD
ENDBRANCH  66  75
BRANCH  68  77
ATOM     77  O   LIG    1       -5.682  10.423   3.939  0.00  0.00    -0.388 OA
ATOM     78  H   LIG    1       -6.318  11.160   3.849  0.00  0.00    +0.210 HD
ENDBRANCH  68  77
ENDBRANCH  64  65
ENDBRANCH  25  64
TORSDOF 15
