REMARK  Name = *****
REMARK                            x       y       z     vdW  Elec       q    Type
REMARK                         _______ _______ _______ _____ _____    ______ ____
ROOT
ATOM      1  C   LIG    1        7.215  -1.220  -7.679  0.00  0.00    +0.190 C 
ENDROOT
BRANCH   1   2
ATOM      2  C   LIG    1        6.435  -2.186  -8.583  0.00  0.00    -0.005 A 
ATOM      3  C   LIG    1        5.668  -3.250  -8.066  0.00  0.00    +0.007 A 
ATOM      4  C   LIG    1        4.953  -4.125  -8.902  0.00  0.00    +0.000 A 
ATOM      5  C   LIG    1        4.953  -3.948 -10.281  0.00  0.00    +0.000 A 
ATOM      6  C   LIG    1        5.667  -2.897 -10.823  0.00  0.00    +0.000 A 
ATOM      7  C   LIG    1        6.385  -2.039  -9.987  0.00  0.00    +0.007 A 
ENDBRANCH   1   2
BRANCH   1   8
ATOM      8  C   LIG    1        8.545  -0.609  -8.265  0.00  0.00    +0.036 C 
ATOM      9  C   LIG    1        8.317   0.281  -9.509  0.00  0.00    +0.007 C 
ATOM     10  C   LIG    1        9.160   1.528  -9.399  0.00  0.00    +0.000 C 
ATOM     11  C   LIG    1        9.354   1.717  -7.916  0.00  0.00    +0.000 C 
ATOM     12  C   LIG    1        9.338   0.317  -7.311  0.00  0.00    +0.007 C 
ENDBRANCH   1   8
BRANCH   1  13
ATOM     13  C   LIG    1        7.617  -1.973  -6.310  0.00  0.00    +0.344 C 
ATOM     14  O   LIG    1        8.269  -2.975  -6.197  0.00  0.00    -0.247 OA
BRANCH  13  15
ATOM     15  O   LIG    1        7.014  -1.318  -5.238  0.00  0.00    -0.454 OA
BRANCH  15  19
ATOM     16  C   LIG    1        4.755  -0.591  -1.457  0.00  0.00    +0.192 C 
ATOM     17  N   LIG    1        5.308  -0.704  -2.869  0.00  0.00    +0.242 N 
ATOM     18  C   LIG    1        6.843  -0.955  -2.844  0.00  0.00    +0.178 C 
ATOM     19  C   LIG    1        7.085  -1.985  -3.955  0.00  0.00    +0.226 C 
ATOM     20  C   LIG    1        5.883  -2.897  -3.779  0.00  0.00    +0.101 C 
ATOM     21  C   LIG    1        4.720  -1.934  -3.592  0.00  0.00    +0.136 C 
ATOM     22  C   LIG    1        4.994   0.584  -3.634  0.00  0.00    +0.192 C 
ENDBRANCH  15  19
ENDBRANCH  13  15
ENDBRANCH   1  13
BRANCH   1  23
ATOM     23  O   LIG    1        6.349  -0.118  -7.347  0.00  0.00    -0.373 OA
ATOM     24  H   LIG    1        5.487  -0.507  -7.118  0.00  0.00    +0.211 HD
ENDBRANCH   1  23
TORSDOF 6
