REMARK  Name = *****
REMARK                            x       y       z     vdW  Elec       q    Type
REMARK                         _______ _______ _______ _____ _____    ______ ____
ROOT
ATOM      1  C   LIG    1        2.339   2.267  -0.433  0.00  0.00    +0.150 C 
ATOM      2  N   LIG    1        3.544   1.613  -0.879  0.00  0.00    -0.333 N 
ATOM      3  C   LIG    1        3.964   0.341  -0.563  0.00  0.00    +0.072 A 
ATOM      4  C   LIG    1        3.469  -0.663   0.279  0.00  0.00    +0.043 A 
ATOM      5  C   LIG    1        4.209  -1.869   0.385  0.00  0.00    +0.065 A 
ATOM      6  C   LIG    1        5.369  -2.100  -0.398  0.00  0.00    +0.082 A 
ATOM      7  C   LIG    1        5.768  -1.083  -1.298  0.00  0.00    +0.172 A 
ATOM      8  F   LIG    1        6.771  -1.305  -2.164  0.00  0.00    -0.201 F 
ATOM      9  C   LIG    1        5.107   0.159  -1.338  0.00  0.00    +0.126 A 
ATOM     10  N   LIG    1        5.395   1.300  -2.055  0.00  0.00    -0.233 NA
ATOM     11  C   LIG    1        4.454   2.159  -1.741  0.00  0.00    +0.200 A 
ENDROOT
BRANCH   5  12
ATOM     12  C   LIG    1        3.684  -2.870   1.380  0.00  0.00    +0.269 C 
ATOM     13  N   LIG    1        4.640  -3.690   1.937  0.00  0.00    -0.190 N 
ATOM     14  H   LIG    1        5.633  -3.489   1.843  0.00  0.00    +0.183 HD
ATOM     15  O   LIG    1        2.496  -2.896   1.644  0.00  0.00    -0.268 OA
BRANCH  13  16
ATOM     16  O   LIG    1        4.268  -4.529   3.011  0.00  0.00    -0.277 OA
BRANCH  16  17
ATOM     17  C   LIG    1        4.092  -5.849   2.493  0.00  0.00    +0.217 C 
BRANCH  17  18
ATOM     18  C   LIG    1        3.824  -6.847   3.615  0.00  0.00    +0.186 C 
BRANCH  18  19
ATOM     19  O   LIG    1        3.602  -8.153   3.085  0.00  0.00    -0.393 OA
ATOM     20  H   LIG    1        2.905  -8.085   2.409  0.00  0.00    +0.209 HD
ENDBRANCH  18  19
ENDBRANCH  17  18
ENDBRANCH  16  17
ENDBRANCH  13  16
ENDBRANCH   5  12
BRANCH   6  21
ATOM     21  N   LIG    1        6.082  -3.333  -0.293  0.00  0.00    -0.309 N 
ATOM     22  H   LIG    1        5.488  -4.137  -0.512  0.00  0.00    +0.152 HD
BRANCH  21  23
ATOM     23  C   LIG    1        7.448  -3.611  -0.548  0.00  0.00    +0.067 A 
ATOM     24  C   LIG    1        7.837  -4.872  -1.036  0.00  0.00    +0.145 A 
ATOM     25  F   LIG    1        6.895  -5.794  -1.293  0.00  0.00    -0.203 F 
ATOM     26  C   LIG    1        9.171  -5.192  -1.285  0.00  0.00    +0.055 A 
ATOM     27  C   LIG    1       10.146  -4.224  -1.072  0.00  0.00    +0.021 A 
ATOM     28 BR   LIG    1       11.956  -4.603  -1.466  0.00  0.00    -0.050 Br
ATOM     29  C   LIG    1        9.796  -2.969  -0.578  0.00  0.00    +0.017 A 
ATOM     30  C   LIG    1        8.458  -2.679  -0.286  0.00  0.00    +0.027 A 
ENDBRANCH  21  23
ENDBRANCH   6  21
TORSDOF 7
