REMARK  Name = *****
REMARK                            x       y       z     vdW  Elec       q    Type
REMARK                         _______ _______ _______ _____ _____    ______ ____
ROOT
ATOM      1  C   LIG    1        5.619   1.004   1.966  0.00  0.00    +0.231 C 
ATOM      2  N   LIG    1        5.803   1.418   3.278  0.00  0.00    -0.284 N 
ATOM      3  H   LIG    1        5.325   2.280   3.507  0.00  0.00    +0.155 HD
ATOM      4  O   LIG    1        6.399   0.268   1.359  0.00  0.00    -0.274 OA
ENDROOT
BRANCH   2   5
ATOM      5  C   LIG    1        6.896   1.063   4.122  0.00  0.00    +0.039 A 
ATOM      6  C   LIG    1        7.380   2.055   5.016  0.00  0.00    -0.029 A 
ATOM      7  C   LIG    1        6.772   3.429   5.144  0.00  0.00    +0.045 C 
ATOM      8  C   LIG    1        8.538   1.808   5.780  0.00  0.00    +0.005 A 
ATOM      9  C   LIG    1        9.205   0.595   5.696  0.00  0.00    +0.001 A 
ATOM     10  C   LIG    1        8.692  -0.406   4.885  0.00  0.00    +0.005 A 
ATOM     11  C   LIG    1        7.514  -0.214   4.133  0.00  0.00    -0.029 A 
ATOM     12  C   LIG    1        6.979  -1.452   3.459  0.00  0.00    +0.045 C 
ENDBRANCH   2   5
BRANCH   1  13
ATOM     13  C   LIG    1        4.351   1.562   1.282  0.00  0.00    +0.180 C 
BRANCH  13  14
ATOM     14  N   LIG    1        4.553   2.114  -0.089  0.00  0.00    -0.294 NA
BRANCH  14  16
ATOM     15  C   LIG    1        5.183   4.408   0.774  0.00  0.00    +0.020 C 
ATOM     16  C   LIG    1        5.497   3.239  -0.150  0.00  0.00    +0.081 C 
ENDBRANCH  14  16
BRANCH  14  17
ATOM     17  C   LIG    1        4.929   1.054  -1.053  0.00  0.00    +0.081 C 
ATOM     18  C   LIG    1        4.945   1.496  -2.518  0.00  0.00    +0.020 C 
ENDBRANCH  14  17
ENDBRANCH  13  14
ENDBRANCH   1  13
TORSDOF 5
