REMARK  Name = *****
REMARK                            x       y       z     vdW  Elec       q    Type
REMARK                         _______ _______ _______ _____ _____    ______ ____
ROOT
ATOM      1  C   LIG    1        6.504  -7.974   3.045  0.00  0.00    -0.046 A 
ATOM      2  C   LIG    1        6.031  -9.232   3.446  0.00  0.00    +0.005 A 
ATOM      3  C   LIG    1        6.648 -10.399   2.994  0.00  0.00    +0.029 A 
ATOM      4  C   LIG    1        7.738 -10.300   2.119  0.00  0.00    +0.113 A 
ATOM      5  C   LIG    1        8.216  -9.056   1.710  0.00  0.00    +0.029 A 
ATOM      6  C   LIG    1        7.597  -7.896   2.168  0.00  0.00    +0.005 A 
ENDROOT
BRANCH   4   7
ATOM      7  S   LIG    1        8.505 -11.778   1.497  0.00  0.00    +0.103 S 
ATOM      8  O   LIG    1        7.762 -12.906   2.023  0.00  0.00    -0.146 OA
ATOM      9  O   LIG    1        9.925 -11.648   1.768  0.00  0.00    -0.146 OA
BRANCH   7  10
ATOM     10  N   LIG    1        8.248 -11.662  -0.086  0.00  0.00    -0.076 NA
ATOM     11  C   LIG    1        7.670 -12.566  -0.789  0.00  0.00    +0.299 C 
BRANCH  11  12
ATOM     12  N   LIG    1        7.522 -12.531  -2.139  0.00  0.00    -0.295 N 
ATOM     13  H   LIG    1        7.336 -13.436  -2.556  0.00  0.00    +0.151 HD
BRANCH  12  14
ATOM     14  C   LIG    1        8.055 -11.479  -2.991  0.00  0.00    +0.075 C 
ATOM     15  C   LIG    1        9.587 -11.428  -2.947  0.00  0.00    +0.022 C 
ATOM     16  C   LIG    1       10.269 -12.553  -3.720  0.00  0.00    +0.002 C 
ATOM     17  C   LIG    1        9.725 -12.716  -5.134  0.00  0.00    +0.000 C 
ATOM     18  C   LIG    1        8.204 -12.816  -5.160  0.00  0.00    +0.002 C 
ATOM     19  C   LIG    1        7.553 -11.642  -4.432  0.00  0.00    +0.022 C 
ENDBRANCH  12  14
ENDBRANCH  11  12
BRANCH  11  20
ATOM     20  O   LIG    1        7.124 -13.696  -0.317  0.00  0.00    -0.481 OA
ATOM     21  H   LIG    1        7.165 -13.738   0.662  0.00  0.00    +0.295 HD
ENDBRANCH  11  20
ENDBRANCH   7  10
ENDBRANCH   4   7
BRANCH   1  22
ATOM     22  C   LIG    1        5.829  -6.717   3.540  0.00  0.00    +0.054 C 
BRANCH  22  23
ATOM     23  C   LIG    1        4.706  -6.258   2.601  0.00  0.00    +0.121 C 
BRANCH  23  28
ATOM     24  C   LIG    1        0.822  -3.181   6.237  0.00  0.00    +0.121 A 
ATOM     25  C   LIG    1        1.457  -4.250   5.616  0.00  0.00    +0.059 A 
ATOM     26  C   LIG    1        2.393  -4.043   4.600  0.00  0.00    +0.045 A 
ATOM     27  C   LIG    1        2.978  -5.243   3.969  0.00  0.00    +0.253 C 
ATOM     28  N   LIG    1        4.030  -5.054   3.085  0.00  0.00    -0.237 N 
ATOM     29  C   LIG    1        4.575  -3.817   2.762  0.00  0.00    +0.232 C 
ATOM     30  C   LIG    1        3.713  -2.568   3.045  0.00  0.00    +0.068 C 
ATOM     31  C   LIG    1        2.899  -2.312   1.762  0.00  0.00    +0.025 C 
ATOM     32  C   LIG    1        4.665  -1.383   3.304  0.00  0.00    +0.025 C 
ATOM     33  O   LIG    1        5.657  -3.727   2.175  0.00  0.00    -0.274 OA
ATOM     34  O   LIG    1        2.539  -6.351   4.269  0.00  0.00    -0.270 OA
ATOM     35  C   LIG    1        2.734  -2.755   4.192  0.00  0.00    -0.021 A 
ATOM     36  C   LIG    1        2.079  -1.674   4.816  0.00  0.00    +0.009 A 
ATOM     37  C   LIG    1        1.137  -1.887   5.832  0.00  0.00    +0.046 A 
BRANCH  24  39
ATOM     38  C   LIG    1       -0.413  -4.661   7.597  0.00  0.00    +0.277 C 
ATOM     39  O   LIG    1       -0.116  -3.313   7.225  0.00  0.00    -0.495 OA
ENDBRANCH  24  39
ENDBRANCH  23  28
ENDBRANCH  22  23
ENDBRANCH   1  22
TORSDOF 9
