REMARK  Name = *****
REMARK                            x       y       z     vdW  Elec       q    Type
REMARK                         _______ _______ _______ _____ _____    ______ ____
ROOT
ATOM      1  S   LIG    1        5.832  -0.818  -6.090  0.00  0.00    +0.075 S 
ATOM      2  O   LIG    1        4.615  -1.580  -6.255  0.00  0.00    -0.150 OA
ATOM      3  O   LIG    1        7.098  -1.501  -5.878  0.00  0.00    -0.150 OA
ENDROOT
BRANCH   1   4
ATOM      4  C   LIG    1        5.992   0.247  -7.498  0.00  0.00    +0.109 A 
ATOM      5  C   LIG    1        4.861   0.651  -8.214  0.00  0.00    +0.030 A 
ATOM      6  C   LIG    1        5.024   1.503  -9.314  0.00  0.00    +0.024 A 
ATOM      7  C   LIG    1        6.293   1.967  -9.682  0.00  0.00    +0.025 A 
ATOM      8  C   LIG    1        7.412   1.477  -9.004  0.00  0.00    +0.024 A 
ATOM      9  C   LIG    1        7.265   0.627  -7.911  0.00  0.00    +0.030 A 
BRANCH   7  10
ATOM     10  N   LIG    1        6.463   2.719 -10.850  0.00  0.00    -0.358 N 
ATOM     11  H   LIG    1        5.666   3.302 -11.083  0.00  0.00    +0.142 HD
ATOM     12  H   LIG    1        7.338   3.235 -10.878  0.00  0.00    +0.142 HD
ENDBRANCH   7  10
ENDBRANCH   1   4
BRANCH   1  13
ATOM     13  N   LIG    1        5.553   0.241  -4.829  0.00  0.00    -0.184 N 
ATOM     14  H   LIG    1        5.062  -0.237  -4.080  0.00  0.00    +0.177 HD
BRANCH  13  18
ATOM     15  C   LIG    1        8.735   2.145  -3.137  0.00  0.00    +0.156 A 
ATOM     16  C   LIG    1        8.015   1.145  -2.515  0.00  0.00    +0.161 A 
ATOM     17  N   LIG    1        6.979   0.493  -3.079  0.00  0.00    -0.218 NA
ATOM     18  C   LIG    1        6.687   0.866  -4.324  0.00  0.00    +0.235 A 
ATOM     19  N   LIG    1        7.277   1.831  -5.033  0.00  0.00    -0.218 NA
ATOM     20  C   LIG    1        8.296   2.464  -4.407  0.00  0.00    +0.161 A 
BRANCH  15  22
ATOM     21  C   LIG    1       10.511   2.114  -1.609  0.00  0.00    +0.277 C 
ATOM     22  O   LIG    1        9.778   2.835  -2.602  0.00  0.00    -0.492 OA
ENDBRANCH  15  22
ENDBRANCH  13  18
ENDBRANCH   1  13
TORSDOF 5
