REMARK  Name = *****
REMARK                            x       y       z     vdW  Elec       q    Type
REMARK                         _______ _______ _______ _____ _____    ______ ____
ROOT
ATOM      1  C   LIG    1        0.463   0.676  -0.108  0.00  0.00    -0.006 A 
ATOM      2  C   LIG    1       -0.462   1.697  -0.473  0.00  0.00    +0.007 A 
ATOM      3  C   LIG    1       -0.083   3.005  -0.855  0.00  0.00    +0.010 A 
ATOM      4  C   LIG    1       -1.027   3.978  -1.168  0.00  0.00    +0.001 A 
ATOM      5  C   LIG    1       -2.374   3.660  -1.116  0.00  0.00    +0.014 A 
ATOM      6  C   LIG    1       -2.789   2.364  -0.754  0.00  0.00    +0.081 A 
ATOM      7  C   LIG    1       -1.851   1.383  -0.431  0.00  0.00    +0.084 A 
ATOM      8  N   LIG    1       -2.283   0.168  -0.075  0.00  0.00    -0.242 NA
ATOM      9  C   LIG    1       -1.407  -0.811   0.272  0.00  0.00    +0.145 A 
ATOM     10  C   LIG    1       -0.039  -0.586   0.249  0.00  0.00    +0.039 A 
ENDROOT
BRANCH   6  11
ATOM     11  C   LIG    1       -4.276   2.099  -0.730  0.00  0.00    +0.419 C 
ATOM     12  F   LIG    1       -4.843   2.336  -1.952  0.00  0.00    -0.166 F 
ATOM     13  F   LIG    1       -4.921   2.950   0.125  0.00  0.00    -0.166 F 
ATOM     14  F   LIG    1       -4.692   0.855  -0.378  0.00  0.00    -0.166 F 
ENDBRANCH   6  11
BRANCH   9  15
ATOM     15  C   LIG    1       -1.955  -2.158   0.725  0.00  0.00    +0.434 C 
ATOM     16  F   LIG    1       -2.695  -2.784  -0.235  0.00  0.00    -0.164 F 
ATOM     17  F   LIG    1       -2.760  -2.063   1.822  0.00  0.00    -0.164 F 
ATOM     18  F   LIG    1       -0.980  -3.052   1.069  0.00  0.00    -0.164 F 
ENDBRANCH   9  15
BRANCH   1  19
ATOM     19  C   LIG    1        1.974   0.901  -0.023  0.00  0.00    +0.162 C 
BRANCH  19  20
ATOM     20  C   LIG    1        2.769   0.615  -1.347  0.00  0.00    +0.087 C 
ATOM     21  N   LIG    1        4.191   1.054  -1.283  0.00  0.00    -0.311 NA
ATOM     22  H   LIG    1        4.519   1.166  -2.245  0.00  0.00    +0.122 HD
ATOM     23  C   LIG    1        5.102   0.103  -0.630  0.00  0.00    +0.081 C 
ATOM     24  C   LIG    1        5.003  -1.319  -1.170  0.00  0.00    +0.015 C 
ATOM     25  C   LIG    1        3.566  -1.817  -1.177  0.00  0.00    +0.003 C 
ATOM     26  C   LIG    1        2.670  -0.820  -1.899  0.00  0.00    +0.021 C 
ENDBRANCH  19  20
BRANCH  19  27
ATOM     27  O   LIG    1        2.475   0.132   1.075  0.00  0.00    -0.386 OA
ATOM     28  H   LIG    1        3.286   0.588   1.356  0.00  0.00    +0.210 HD
ENDBRANCH  19  27
ENDBRANCH   1  19
TORSDOF 5
