REMARK  Name = *****
REMARK                            x       y       z     vdW  Elec       q    Type
REMARK                         _______ _______ _______ _____ _____    ______ ____
ROOT
ATOM      1  O   LIG    1       24.701   0.609  12.344  0.00  0.00    -0.375 OA
ENDROOT
BRANCH   1   2
ATOM      2  C   LIG    1       24.320   1.048  11.076  0.00  0.00    +0.188 C 
BRANCH   2   3
ATOM      3  C   LIG    1       22.816   0.908  10.765  0.00  0.00    +0.188 C 
BRANCH   3   4
ATOM      4  O   LIG    1       22.334  -0.401  10.430  0.00  0.00    -0.374 OA
BRANCH   4   5
ATOM      5  C   LIG    1       22.219  -1.358  11.481  0.00  0.00    +0.201 C 
BRANCH   5   6
ATOM      6  C   LIG    1       23.527  -1.936  11.922  0.00  0.00    +0.257 C 
BRANCH   6   7
ATOM      7  O   LIG    1       23.304  -2.915  12.905  0.00  0.00    -0.490 OA
BRANCH   7  11
ATOM      8  C   LIG    1       25.866  -2.194  17.042  0.00  0.00    -0.047 A 
ATOM      9  C   LIG    1       25.642  -0.795  15.774  0.00  0.00    +0.007 A 
ATOM     10  C   LIG    1       24.432  -1.092  14.466  0.00  0.00    +0.046 A 
ATOM     11  C   LIG    1       23.939  -2.648  14.032  0.00  0.00    +0.121 A 
ATOM     12  C   LIG    1       24.324  -3.946  14.974  0.00  0.00    +0.046 A 
ATOM     13  C   LIG    1       25.217  -3.737  16.407  0.00  0.00    +0.007 A 
BRANCH   8  14
ATOM     14  C   LIG    1       26.810  -1.454  18.651  0.00  0.00    +0.035 C 
BRANCH  14  15
ATOM     15  C   LIG    1       26.406   0.403  19.170  0.00  0.00    +0.005 C 
BRANCH  15  16
ATOM     16  C   LIG    1       26.236   1.597  18.204  0.00  0.00    +0.000 C 
BRANCH  16  17
ATOM     17  C   LIG    1       27.479   1.877  17.465  0.00  0.00    +0.000 C 
BRANCH  17  18
ATOM     18  C   LIG    1       28.607   2.056  18.452  0.00  0.00    -0.000 C 
BRANCH  18  19
ATOM     19  C   LIG    1       29.906   2.524  17.810  0.00  0.00    -0.000 C 
BRANCH  19  20
ATOM     20  C   LIG    1       29.776   3.834  17.020  0.00  0.00    -0.000 C 
BRANCH  20  22
ATOM     21  C   LIG    1       32.142   4.586  17.470  0.00  0.00    +0.004 C 
ATOM     22  C   LIG    1       31.095   4.314  16.399  0.00  0.00    -0.003 C 
ENDBRANCH  20  22
ENDBRANCH  19  20
ENDBRANCH  18  19
ENDBRANCH  17  18
ENDBRANCH  16  17
ENDBRANCH  15  16
ENDBRANCH  14  15
ENDBRANCH   8  14
ENDBRANCH   7  11
ENDBRANCH   6   7
ENDBRANCH   5   6
ENDBRANCH   4   5
ENDBRANCH   3   4
ENDBRANCH   2   3
ENDBRANCH   1   2
BRANCH   1  23
ATOM     23  C   LIG    1       26.117   0.376  12.510  0.00  0.00    +0.188 C 
BRANCH  23  24
ATOM     24  C   LIG    1       26.543  -0.416  13.698  0.00  0.00    +0.188 C 
BRANCH  24  25
ATOM     25  O   LIG    1       26.313  -1.876  13.582  0.00  0.00    -0.375 OA
BRANCH  25  26
ATOM     26  C   LIG    1       25.948  -2.588  14.892  0.00  0.00    +0.188 C 
BRANCH  26  27
ATOM     27  C   LIG    1       24.083  -1.975  16.207  0.00  0.00    +0.188 C 
BRANCH  27  28
ATOM     28  O   LIG    1       22.746  -2.046  16.133  0.00  0.00    -0.375 OA
BRANCH  28  29
ATOM     29  C   LIG    1       22.331  -3.388  16.239  0.00  0.00    +0.188 C 
BRANCH  29  30
ATOM     30  C   LIG    1       22.725  -4.324  17.628  0.00  0.00    +0.188 C 
BRANCH  30  31
ATOM     31  O   LIG    1       24.150  -5.096  18.301  0.00  0.00    -0.375 OA
BRANCH  31  32
ATOM     32  C   LIG    1       25.329  -4.238  18.832  0.00  0.00    +0.188 C 
BRANCH  32  33
ATOM     33  C   LIG    1       26.890  -4.459  19.071  0.00  0.00    +0.188 C 
BRANCH  33  34
ATOM     34  O   LIG    1       27.991  -3.378  19.163  0.00  0.00    -0.375 OA
BRANCH  34  35
ATOM     35  C   LIG    1       28.579  -2.433  18.053  0.00  0.00    +0.188 C 
BRANCH  35  36
ATOM     36  C   LIG    1       27.531  -1.409  16.983  0.00  0.00    +0.188 C 
BRANCH  36  37
ATOM     37  O   LIG    1       25.875  -0.566  17.678  0.00  0.00    -0.375 OA
BRANCH  37  38
ATOM     38  C   LIG    1       25.004  -1.225  19.323  0.00  0.00    +0.188 C 
BRANCH  38  39
ATOM     39  C   LIG    1       24.371  -0.350  20.468  0.00  0.00    +0.188 C 
BRANCH  39  40
ATOM     40  O   LIG    1       25.324   0.485  21.184  0.00  0.00    -0.375 OA
BRANCH  40  41
ATOM     41  C   LIG    1       24.674   1.479  21.924  0.00  0.00    +0.187 C 
BRANCH  41  42
ATOM     42  C   LIG    1       25.615   2.517  22.530  0.00  0.00    +0.184 C 
BRANCH  42  43
ATOM     43  O   LIG    1       26.232   3.376  21.576  0.00  0.00    -0.393 OA
ATOM     44  H   LIG    1       27.121   3.583  21.920  0.00  0.00    +0.209 HD
ENDBRANCH  42  43
ENDBRANCH  41  42
ENDBRANCH  40  41
ENDBRANCH  39  40
ENDBRANCH  38  39
ENDBRANCH  37  38
ENDBRANCH  36  37
ENDBRANCH  35  36
ENDBRANCH  34  35
ENDBRANCH  33  34
ENDBRANCH  32  33
ENDBRANCH  31  32
ENDBRANCH  30  31
ENDBRANCH  29  30
ENDBRANCH  28  29
ENDBRANCH  27  28
ENDBRANCH  26  27
ENDBRANCH  25  26
ENDBRANCH  24  25
ENDBRANCH  23  24
ENDBRANCH   1  23
TORSDOF 36
