REMARK  Name = *****
REMARK                            x       y       z     vdW  Elec       q    Type
REMARK                         _______ _______ _______ _____ _____    ______ ____
ROOT
ATOM      1  C   LIG    1        5.477  -0.068   0.269  0.00  0.00    -0.046 A 
ATOM      2  C   LIG    1        6.388  -0.491  -0.709  0.00  0.00    +0.007 A 
ATOM      3  C   LIG    1        7.764  -0.384  -0.495  0.00  0.00    +0.045 A 
ATOM      4  C   LIG    1        8.235   0.150   0.699  0.00  0.00    +0.117 A 
ATOM      5  C   LIG    1        7.351   0.557   1.690  0.00  0.00    +0.045 A 
ATOM      6  C   LIG    1        5.974   0.439   1.481  0.00  0.00    +0.007 A 
ENDROOT
BRANCH   4   7
ATOM      7  O   LIG    1        9.584   0.256   0.858  0.00  0.00    -0.507 OA
ATOM      8  H   LIG    1        9.762   0.673   1.718  0.00  0.00    +0.292 HD
ENDBRANCH   4   7
BRANCH   1   9
ATOM      9  C   LIG    1        3.987  -0.182   0.026  0.00  0.00    +0.053 C 
BRANCH   9  11
ATOM     10  C   LIG    1        3.651   2.125  -1.046  0.00  0.00    +0.024 C 
ATOM     11  C   LIG    1        3.218   1.158   0.057  0.00  0.00    +0.052 C 
BRANCH  11  12
ATOM     12  N   LIG    1        1.774   0.902  -0.073  0.00  0.00    -0.327 NA
ATOM     13  H   LIG    1        1.276   1.790  -0.140  0.00  0.00    +0.118 HD
ATOM     14  H   LIG    1        1.589   0.415  -0.950  0.00  0.00    +0.118 HD
ENDBRANCH  11  12
ENDBRANCH   9  11
ENDBRANCH   1   9
TORSDOF 4
