REMARK  Name = *****
REMARK                            x       y       z     vdW  Elec       q    Type
REMARK                         _______ _______ _______ _____ _____    ______ ____
ROOT
ATOM      1  C   LIG    1        4.262  -3.519  -1.072  0.00  0.00    +0.021 C 
ENDROOT
BRANCH   1   2
ATOM      2  C   LIG    1        3.333  -2.326  -0.813  0.00  0.00    +0.116 C 
BRANCH   2   5
ATOM      3  O   LIG    1        2.726  -1.776  -3.464  0.00  0.00    -0.275 OA
ATOM      4  C   LIG    1        3.329  -0.915  -2.810  0.00  0.00    +0.222 C 
ATOM      5  N   LIG    1        3.769  -1.110  -1.508  0.00  0.00    -0.242 N 
ATOM      6  C   LIG    1        4.637  -0.258  -0.833  0.00  0.00    +0.222 C 
ATOM      7  O   LIG    1        4.955  -0.422   0.345  0.00  0.00    -0.275 OA
ATOM      8  C   LIG    1        5.143   0.969  -1.567  0.00  0.00    +0.103 C 
ATOM      9  C   LIG    1        5.009   0.918  -3.092  0.00  0.00    -0.013 C 
ATOM     10  C   LIG    1        5.274   2.323  -3.691  0.00  0.00    +0.008 C 
ATOM     11  C   LIG    1        6.688   2.259  -4.249  0.00  0.00    +0.001 C 
ATOM     12  C   LIG    1        6.756   0.857  -4.819  0.00  0.00    +0.001 C 
ATOM     13  C   LIG    1        6.073   0.003  -3.756  0.00  0.00    +0.008 C 
ATOM     14  C   LIG    1        3.590   0.455  -3.401  0.00  0.00    +0.103 C 
ENDBRANCH   2   5
ENDBRANCH   1   2
BRANCH   1  15
ATOM     15  C   LIG    1        3.853  -4.802  -0.328  0.00  0.00    +0.017 C 
BRANCH  15  16
ATOM     16  C   LIG    1        2.476  -5.360  -0.737  0.00  0.00    +0.084 C 
BRANCH  16  17
ATOM     17  N   LIG    1        2.160  -6.680  -0.164  0.00  0.00    -0.299 NA
ATOM     18  C   LIG    1        2.212  -6.753   1.312  0.00  0.00    +0.103 C 
ATOM     19  C   LIG    1        1.071  -6.039   2.071  0.00  0.00    +0.123 C 
ATOM     20  N   LIG    1       -0.252  -6.426   1.559  0.00  0.00    -0.297 N 
ATOM     21  C   LIG    1       -0.390  -6.460   0.096  0.00  0.00    +0.123 C 
ATOM     22  C   LIG    1        0.815  -7.147  -0.590  0.00  0.00    +0.103 C 
BRANCH  20  23
ATOM     23  C   LIG    1       -1.276  -5.707   2.193  0.00  0.00    +0.218 A 
ATOM     24  N   LIG    1       -2.269  -5.185   1.450  0.00  0.00    -0.223 NA
ATOM     25  C   LIG    1       -3.223  -4.472   2.076  0.00  0.00    +0.116 A 
ATOM     26  C   LIG    1       -3.254  -4.278   3.431  0.00  0.00    +0.039 A 
ATOM     27  C   LIG    1       -2.220  -4.858   4.119  0.00  0.00    +0.116 A 
ATOM     28  N   LIG    1       -1.226  -5.553   3.529  0.00  0.00    -0.223 NA
ENDBRANCH  20  23
ENDBRANCH  16  17
ENDBRANCH  15  16
ENDBRANCH   1  15
TORSDOF 6
