REMARK  Name = *****
REMARK                            x       y       z     vdW  Elec       q    Type
REMARK                         _______ _______ _______ _____ _____    ______ ____
ROOT
ATOM      1  C   LIG    1        0.925  -0.674  -2.300  0.00  0.00    +0.000 C 
ENDROOT
BRANCH   1   4
ATOM      2  N   LIG    1       -0.516   0.177  -0.246  0.00  0.00    +0.000 N 
ATOM      3  H   LIG    1       -0.768   0.973   0.358  0.00  0.00    +0.000 HD
ATOM      4  C   LIG    1        0.533   0.342  -1.139  0.00  0.00    +0.000 C 
ATOM      5  O   LIG    1        1.188   1.374  -1.081  0.00  0.00    +0.000 OA
BRANCH   2   6
ATOM      6  C   LIG    1       -1.396  -1.030  -0.209  0.00  0.00    +0.000 C 
BRANCH   6   7
ATOM      7  C   LIG    1       -1.661  -1.790  -1.639  0.00  0.00    +0.000 C 
BRANCH   7   9
ATOM      8  C   LIG    1       -2.553  -2.228  -4.412  0.00  0.00    +0.000 C 
ATOM      9  C   LIG    1       -2.357  -1.384  -3.085  0.00  0.00    +0.000 C 
ATOM     10  C   LIG    1       -3.819  -0.973  -2.765  0.00  0.00    +0.000 C 
ENDBRANCH   7   9
ENDBRANCH   6   7
BRANCH   6  11
ATOM     11  B   LIG    1       -0.631  -2.038   0.842  0.00  0.00    +0.000 B 
BRANCH  11  12
ATOM     12  O   LIG    1        0.231  -3.135   0.377  0.00  0.00    +0.000 OA
ATOM     13  H   LIG    1        0.630  -2.869  -0.485  0.00  0.00    +0.000 HD
ENDBRANCH  11  12
BRANCH  11  14
ATOM     14  O   LIG    1       -0.952  -1.974   2.274  0.00  0.00    +0.000 OA
ATOM     15  H   LIG    1       -1.879  -2.316   2.359  0.00  0.00    +0.000 HD
ENDBRANCH  11  14
ENDBRANCH   6  11
ENDBRANCH   2   6
ENDBRANCH   1   4
BRANCH   1  16
ATOM     16  N   LIG    1        0.209  -0.319  -3.503  0.00  0.00    +0.000 N 
ATOM     17  H   LIG    1        0.355   0.627  -3.877  0.00  0.00    +0.000 HD
ATOM     18  C   LIG    1       -0.529  -1.208  -4.222  0.00  0.00    +0.000 C 
ATOM     19  O   LIG    1       -1.120  -0.867  -5.230  0.00  0.00    +0.000 OA
BRANCH  18  20
ATOM     20  C   LIG    1       -0.636  -2.587  -3.717  0.00  0.00    +0.000 A 
ATOM     21  N   LIG    1       -0.638  -2.816  -2.380  0.00  0.00    +0.000 NA
ATOM     22  C   LIG    1       -0.783  -4.067  -1.877  0.00  0.00    +0.000 A 
ATOM     23  C   LIG    1       -0.973  -5.135  -2.754  0.00  0.00    +0.000 A 
ATOM     24  N   LIG    1       -0.936  -4.678  -4.095  0.00  0.00    +0.000 NA
ATOM     25  C   LIG    1       -0.798  -4.187  -4.600  0.00  0.00    +0.000 A 
ENDBRANCH  18  20
ENDBRANCH   1  16
BRANCH   1  26
ATOM     26  C   LIG    1        2.400  -1.139  -2.745  0.00  0.00    +0.000 C 
BRANCH  26  27
ATOM     27  C   LIG    1        3.259  -1.538  -1.601  0.00  0.00    +0.000 A 
ATOM     28  C   LIG    1        3.725  -0.584  -0.660  0.00  0.00    +0.000 A 
ATOM     29  C   LIG    1        3.953  -0.980   0.668  0.00  0.00    +0.000 A 
ATOM     30  C   LIG    1        3.630  -2.275   1.032  0.00  0.00    +0.000 A 
ATOM     31  C   LIG    1        3.267  -3.158   0.035  0.00  0.00    +0.000 A 
ATOM     32  C   LIG    1        3.198  -2.852  -1.261  0.00  0.00    +0.000 A 
ENDBRANCH  26  27
ENDBRANCH   1  26
TORSDOF 11
