REMARK  Name = *****
REMARK                            x       y       z     vdW  Elec       q    Type
REMARK                         _______ _______ _______ _____ _____    ______ ____
ROOT
ATOM      1  C   LIG    1        2.403   4.944  -4.279  0.00  0.00    +0.009 C 
ENDROOT
BRANCH   1   2
ATOM      2  C   LIG    1        1.702   4.095  -3.206  0.00  0.00    +0.000 C 
BRANCH   2   3
ATOM      3  C   LIG    1        0.855   2.963  -3.805  0.00  0.00    +0.000 C 
BRANCH   3   4
ATOM      4  C   LIG    1        0.209   2.052  -2.757  0.00  0.00    +0.009 C 
BRANCH   4   5
ATOM      5  C   LIG    1       -0.695   0.969  -3.361  0.00  0.00    +0.098 C 
BRANCH   5   7
ATOM      6  O   LIG    1        0.534   0.315  -5.349  0.00  0.00    -0.274 OA
ATOM      7  C   LIG    1       -0.006  -0.017  -4.292  0.00  0.00    +0.235 C 
ATOM      8  N   LIG    1       -0.103  -1.331  -3.911  0.00  0.00    -0.198 N 
ATOM      9  H   LIG    1       -0.491  -1.666  -3.037  0.00  0.00    +0.182 HD
BRANCH   8  10
ATOM     10  O   LIG    1        0.421  -2.304  -4.789  0.00  0.00    -0.295 OA
ATOM     11  H   LIG    1        0.393  -1.846  -5.657  0.00  0.00    +0.241 HD
ENDBRANCH   8  10
ENDBRANCH   5   7
ENDBRANCH   4   5
ENDBRANCH   3   4
ENDBRANCH   2   3
ENDBRANCH   1   2
BRANCH   1  12
ATOM     12  C   LIG    1        1.423   5.657  -5.212  0.00  0.00    +0.096 C 
BRANCH  12  13
ATOM     13  C   LIG    1        2.107   6.541  -6.231  0.00  0.00    +0.217 C 
ATOM     14  N   LIG    1        1.390   6.641  -7.414  0.00  0.00    -0.285 N 
ATOM     15  H   LIG    1        0.632   5.987  -7.545  0.00  0.00    +0.155 HD
ATOM     16  O   LIG    1        3.175   7.112  -5.977  0.00  0.00    -0.276 OA
BRANCH  14  17
ATOM     17  C   LIG    1        1.690   7.474  -8.506  0.00  0.00    +0.033 A 
ATOM     18  C   LIG    1        1.102   7.167  -9.737  0.00  0.00    +0.023 A 
ATOM     19  C   LIG    1        1.340   7.970 -10.856  0.00  0.00    +0.002 A 
ATOM     20  C   LIG    1        2.143   9.102 -10.742  0.00  0.00    +0.000 A 
ATOM     21  C   LIG    1        2.724   9.419  -9.517  0.00  0.00    +0.002 A 
ATOM     22  C   LIG    1        2.508   8.602  -8.404  0.00  0.00    +0.023 A 
ENDBRANCH  14  17
ENDBRANCH  12  13
ENDBRANCH   1  12
TORSDOF 9
