REMARK  Name = *****
REMARK                            x       y       z     vdW  Elec       q    Type
REMARK                         _______ _______ _______ _____ _____    ______ ____
ROOT
ATOM      1  C   LIG    1        6.730   2.333   0.381  0.00  0.00    -0.017 A 
ATOM      2  C   LIG    1        7.514   2.839   1.428  0.00  0.00    +0.015 A 
ATOM      3  C   LIG    1        8.796   2.337   1.703  0.00  0.00    +0.019 A 
ATOM      4  C   LIG    1        9.317   1.347   0.861  0.00  0.00    +0.122 A 
ATOM      5  C   LIG    1        8.579   0.861  -0.211  0.00  0.00    +0.046 A 
ATOM      6  C   LIG    1        7.299   1.354  -0.455  0.00  0.00    +0.010 A 
ENDROOT
BRANCH   4   7
ATOM      7  O   LIG    1       10.568   0.864   1.112  0.00  0.00    -0.506 OA
ATOM      8  H   LIG    1       10.745   0.133   0.492  0.00  0.00    +0.292 HD
ENDBRANCH   4   7
BRANCH   1   9
ATOM      9  C   LIG    1        5.315   2.817   0.113  0.00  0.00    +0.158 C 
BRANCH   9  10
ATOM     10  O   LIG    1        4.521   1.737  -0.405  0.00  0.00    -0.386 OA
ATOM     11  H   LIG    1        4.644   1.006   0.224  0.00  0.00    +0.210 HD
ENDBRANCH   9  10
BRANCH   9  12
ATOM     12  C   LIG    1        4.538   3.410   1.321  0.00  0.00    +0.117 C 
BRANCH  12  13
ATOM     13  N   LIG    1        4.329   2.452   2.430  0.00  0.00    -0.309 NA
ATOM     14  H   LIG    1        3.915   1.599   2.056  0.00  0.00    +0.122 HD
BRANCH  13  16
ATOM     15  C   LIG    1        2.052   3.278   3.039  0.00  0.00    +0.027 C 
ATOM     16  C   LIG    1        3.472   2.945   3.529  0.00  0.00    +0.011 C 
ATOM     17  C   LIG    1        3.361   1.808   4.565  0.00  0.00    +0.027 C 
ATOM     18  C   LIG    1        4.093   4.166   4.224  0.00  0.00    +0.027 C 
ENDBRANCH  13  16
ENDBRANCH  12  13
ENDBRANCH   9  12
ENDBRANCH   1   9
BRANCH   3  19
ATOM     19  C   LIG    1        9.563   2.855   2.886  0.00  0.00    +0.194 C 
BRANCH  19  20
ATOM     20  O   LIG    1       10.379   3.957   2.512  0.00  0.00    -0.390 OA
ATOM     21  H   LIG    1       10.841   3.680   1.701  0.00  0.00    +0.210 HD
ENDBRANCH  19  20
ENDBRANCH   3  19
TORSDOF 8
