REMARK  Name = *****
REMARK                            x       y       z     vdW  Elec       q    Type
REMARK                         _______ _______ _______ _____ _____    ______ ____
ROOT
ATOM      1  C   LIG    1        8.609  -3.082  -2.654  0.00  0.00    -0.008 A 
ATOM      2  C   LIG    1        9.525  -4.150  -2.573  0.00  0.00    -0.004 A 
ATOM      3  C   LIG    1        9.389  -5.613  -2.723  0.00  0.00    -0.009 A 
ATOM      4  C   LIG    1       10.610  -6.252  -2.361  0.00  0.00    -0.008 A 
ATOM      5  C   LIG    1       11.548  -5.176  -1.989  0.00  0.00    -0.009 C 
ATOM      6  C   LIG    1       12.727  -5.433  -1.370  0.00  0.00    +0.017 C 
ATOM      7  C   LIG    1       10.764  -7.633  -2.386  0.00  0.00    +0.029 A 
ATOM      8  C   LIG    1        9.687  -8.404  -2.800  0.00  0.00    +0.042 A 
ATOM      9 CL   LIG    1        9.825 -10.121  -2.819  0.00  0.00    -0.084 Cl
ATOM     10  C   LIG    1        8.489  -7.800  -3.212  0.00  0.00    +0.020 A 
ATOM     11  C   LIG    1        8.344  -6.404  -3.189  0.00  0.00    +0.010 A 
ATOM     12  C   LIG    1       10.894  -3.877  -2.239  0.00  0.00    -0.008 A 
ATOM     13  C   LIG    1       11.397  -2.588  -2.178  0.00  0.00    +0.029 A 
ATOM     14  C   LIG    1       10.510  -1.541  -2.320  0.00  0.00    +0.042 A 
ATOM     15 CL   LIG    1       11.083   0.079  -2.184  0.00  0.00    -0.084 Cl
ATOM     16  C   LIG    1        9.143  -1.775  -2.528  0.00  0.00    +0.027 A 
ENDROOT
BRANCH   6  17
ATOM     17  C   LIG    1       13.637  -4.465  -0.753  0.00  0.00    -0.024 A 
ATOM     18  C   LIG    1       14.705  -3.917  -1.473  0.00  0.00    +0.009 A 
ATOM     19  C   LIG    1       15.586  -3.029  -0.853  0.00  0.00    +0.020 A 
ATOM     20  C   LIG    1       15.404  -2.690   0.490  0.00  0.00    +0.041 A 
ATOM     21 CL   LIG    1       16.503  -1.613   1.259  0.00  0.00    -0.084 Cl
ATOM     22  C   LIG    1       14.340  -3.226   1.211  0.00  0.00    +0.020 A 
ATOM     23  C   LIG    1       13.457  -4.110   0.593  0.00  0.00    +0.009 A 
ENDBRANCH   6  17
BRANCH   1  24
ATOM     24  C   LIG    1        7.113  -3.247  -2.863  0.00  0.00    +0.159 C 
BRANCH  24  25
ATOM     25  O   LIG    1        6.898  -3.244  -4.282  0.00  0.00    -0.386 OA
ATOM     26  H   LIG    1        5.944  -3.347  -4.433  0.00  0.00    +0.210 HD
ENDBRANCH  24  25
BRANCH  24  27
ATOM     27  C   LIG    1        6.161  -2.168  -2.216  0.00  0.00    +0.120 C 
BRANCH  27  28
ATOM     28  N   LIG    1        6.180  -1.986  -0.751  0.00  0.00    -0.300 NA
BRANCH  28  29
ATOM     29  C   LIG    1        5.240  -0.946  -0.273  0.00  0.00    +0.084 C 
BRANCH  29  30
ATOM     30  C   LIG    1        5.327   0.442  -0.930  0.00  0.00    +0.015 C 
BRANCH  30  32
ATOM     31  C   LIG    1        4.306   2.767  -0.963  0.00  0.00    +0.004 C 
ATOM     32  C   LIG    1        4.271   1.383  -0.332  0.00  0.00    -0.002 C 
ENDBRANCH  30  32
ENDBRANCH  29  30
ENDBRANCH  28  29
BRANCH  28  33
ATOM     33  C   LIG    1        5.971  -3.244   0.000  0.00  0.00    +0.084 C 
BRANCH  33  34
ATOM     34  C   LIG    1        4.586  -3.900  -0.163  0.00  0.00    +0.015 C 
BRANCH  34  35
ATOM     35  C   LIG    1        4.473  -5.189   0.650  0.00  0.00    -0.002 C 
ATOM     36  C   LIG    1        3.091  -5.810   0.507  0.00  0.00    +0.004 C 
ENDBRANCH  34  35
ENDBRANCH  33  34
ENDBRANCH  28  33
ENDBRANCH  27  28
ENDBRANCH  24  27
ENDBRANCH   1  24
TORSDOF 11
