REMARK  Name = *****
REMARK                            x       y       z     vdW  Elec       q    Type
REMARK                         _______ _______ _______ _____ _____    ______ ____
ROOT
ATOM      1  C   LIG    1        3.551  -0.724  -0.346  0.00  0.00    +0.056 C 
ENDROOT
BRANCH   1   2
ATOM      2  C   LIG    1        5.056  -0.672  -0.205  0.00  0.00    -0.046 A 
ATOM      3  C   LIG    1        5.841  -0.077  -1.202  0.00  0.00    +0.003 A 
ATOM      4  C   LIG    1        7.230  -0.022  -1.076  0.00  0.00    +0.000 A 
ATOM      5  C   LIG    1        7.850  -0.566   0.047  0.00  0.00    +0.000 A 
ATOM      6  C   LIG    1        7.082  -1.168   1.041  0.00  0.00    +0.000 A 
ATOM      7  C   LIG    1        5.692  -1.224   0.916  0.00  0.00    +0.003 A 
ENDBRANCH   1   2
BRANCH   1   9
ATOM      8  C   LIG    1        3.151   1.809  -0.385  0.00  0.00    +0.027 C 
ATOM      9  C   LIG    1        2.757   0.471   0.257  0.00  0.00    +0.015 C 
ATOM     10  C   LIG    1        2.918   0.558   1.782  0.00  0.00    +0.027 C 
BRANCH   9  11
ATOM     11  N   LIG    1        1.325   0.252  -0.036  0.00  0.00    -0.325 NA
ATOM     12  H   LIG    1        0.998  -0.584   0.448  0.00  0.00    +0.119 HD
ATOM     13  H   LIG    1        0.775   1.026   0.338  0.00  0.00    +0.119 HD
ENDBRANCH   9  11
ENDBRANCH   1   9
TORSDOF 3
