REMARK  Name = *****
REMARK                            x       y       z     vdW  Elec       q    Type
REMARK                         _______ _______ _______ _____ _____    ______ ____
ROOT
ATOM      1  N   LIG    1        8.325   2.975   3.417  0.00  0.00    -0.341 N 
ATOM      2  H   LIG    1        9.036   2.279   3.615  0.00  0.00    +0.146 HD
ENDROOT
BRANCH   1   3
ATOM      3  C   LIG    1        8.754   4.075   2.659  0.00  0.00    +0.038 A 
ATOM      4  C   LIG    1       10.116   4.526   2.691  0.00  0.00    +0.021 A 
ATOM      5  C   LIG    1       10.442   5.729   2.006  0.00  0.00    +0.074 A 
ATOM      6  C   LIG    1       11.743   6.210   1.977  0.00  0.00    +0.048 A 
ATOM      7  C   LIG    1       12.766   5.516   2.605  0.00  0.00    +0.043 A 
ATOM      8  C   LIG    1       12.496   4.343   3.294  0.00  0.00    +0.021 A 
ATOM      9 CL   LIG    1       14.384   6.103   2.514  0.00  0.00    -0.084 Cl
ATOM     10  N   LIG    1        9.541   6.467   1.342  0.00  0.00    -0.255 NA
ATOM     11  C   LIG    1        8.279   6.017   1.315  0.00  0.00    +0.113 A 
ATOM     12  C   LIG    1       11.180   3.855   3.351  0.00  0.00    +0.013 A 
ATOM     13  C   LIG    1        7.848   4.856   1.933  0.00  0.00    +0.043 A 
ENDBRANCH   1   3
BRANCH   1  14
ATOM     14  C   LIG    1        6.942   2.473   3.462  0.00  0.00    +0.067 C 
ATOM     15  C   LIG    1        6.665   1.867   4.848  0.00  0.00    +0.027 C 
BRANCH  14  16
ATOM     16  C   LIG    1        6.704   1.421   2.353  0.00  0.00    +0.023 C 
BRANCH  16  17
ATOM     17  C   LIG    1        5.253   0.910   2.369  0.00  0.00    +0.017 C 
BRANCH  17  18
ATOM     18  C   LIG    1        4.965  -0.219   1.370  0.00  0.00    +0.084 C 
BRANCH  18  19
ATOM     19  N   LIG    1        3.543  -0.659   1.339  0.00  0.00    -0.303 NA
BRANCH  19  21
ATOM     20  C   LIG    1        3.755  -1.421  -1.079  0.00  0.00    +0.020 C 
ATOM     21  C   LIG    1        3.356  -1.757   0.362  0.00  0.00    +0.081 C 
ENDBRANCH  19  21
BRANCH  19  22
ATOM     22  C   LIG    1        3.067  -1.071   2.682  0.00  0.00    +0.081 C 
ATOM     23  C   LIG    1        1.564  -1.312   2.811  0.00  0.00    +0.020 C 
ENDBRANCH  19  22
ENDBRANCH  18  19
ENDBRANCH  17  18
ENDBRANCH  16  17
ENDBRANCH  14  16
ENDBRANCH   1  14
TORSDOF 8
