REMARK  Name = *****
REMARK                            x       y       z     vdW  Elec       q    Type
REMARK                         _______ _______ _______ _____ _____    ______ ____
ROOT
ATOM      1  C   LIG    1        1.842   1.235  -4.066  0.00  0.00    +0.015 C 
ATOM      2  C   LIG    1        0.783   2.107  -3.004  0.00  0.00    +0.011 C 
ATOM      3  C   LIG    1       -0.602   0.936  -2.498  0.00  0.00    +0.123 C 
ATOM      4  O   LIG    1       -1.859   1.158  -1.386  0.00  0.00    -0.457 OA
ATOM      5  C   LIG    1       -2.002   0.363  -0.150  0.00  0.00    +0.308 C 
ATOM      6  O   LIG    1       -2.401   0.703   0.966  0.00  0.00    -0.251 OA
ATOM      7  C   LIG    1       -1.660  -1.037  -0.463  0.00  0.00    +0.124 C 
ATOM      8  C   LIG    1       -0.521  -0.690  -1.654  0.00  0.00    +0.060 C 
ATOM      9  C   LIG    1       -0.931   1.283  -4.112  0.00  0.00    +0.037 C 
ATOM     10  C   LIG    1       -0.409   2.684  -4.164  0.00  0.00    +0.000 C 
ATOM     11  C   LIG    1       -0.105   2.210  -5.495  0.00  0.00    +0.012 C 
ATOM     12  C   LIG    1        1.339   3.351  -3.222  0.00  0.00    +0.006 C 
ATOM     13  C   LIG    1        1.329   4.235  -1.714  0.00  0.00    +0.001 C 
ATOM     14  C   LIG    1        0.952   3.327  -0.676  0.00  0.00    +0.000 C 
ATOM     15  C   LIG    1       -0.774   3.186  -0.922  0.00  0.00    +0.019 C 
ATOM     16  C   LIG    1       -1.657   4.426  -0.680  0.00  0.00    -0.057 C 
ATOM     17  C   LIG    1       -0.681   5.574  -0.651  0.00  0.00    -0.007 C 
ATOM     18  C   LIG    1       -0.024   5.397   0.748  0.00  0.00    +0.016 C 
ATOM     19  C   LIG    1       -1.476   6.856  -0.964  0.00  0.00    +0.019 C 
ATOM     20  C   LIG    1       -2.314   6.780  -2.287  0.00  0.00    +0.080 C 
ATOM     21  C   LIG    1       -3.474   6.096  -1.717  0.00  0.00    +0.156 C 
ATOM     22  O   LIG    1       -4.578   6.625  -1.692  0.00  0.00    -0.293 OA
ATOM     23  C   LIG    1       -3.005   4.684  -1.003  0.00  0.00    +0.046 C 
ATOM     24  C   LIG    1        0.095   2.275  -0.142  0.00  0.00    +0.012 C 
ATOM     25  C   LIG    1        0.382   5.448  -1.767  0.00  0.00    +0.003 C 
ATOM     26  C   LIG    1       -0.234   5.247  -3.080  0.00  0.00    +0.005 C 
ATOM     27  C   LIG    1        0.633   4.197  -3.745  0.00  0.00    +0.011 C 
ENDROOT
TORSDOF 0
