REMARK  Name = *****
REMARK                            x       y       z     vdW  Elec       q    Type
REMARK                         _______ _______ _______ _____ _____    ______ ____
ROOT
ATOM      1  N   LIG    1       -2.678  -6.530  -3.216  0.00  0.00    -0.296 NA
ATOM      2  C   LIG    1       -1.653  -7.171  -2.358  0.00  0.00    +0.100 C 
ATOM      3  C   LIG    1       -0.211  -7.138  -2.947  0.00  0.00    +0.100 C 
ATOM      4  N   LIG    1        0.032  -6.000  -3.843  0.00  0.00    -0.289 NA
ATOM      5  C   LIG    1       -0.763  -4.815  -3.494  0.00  0.00    +0.100 C 
ATOM      6  C   LIG    1       -2.289  -5.106  -3.328  0.00  0.00    +0.100 C 
ENDROOT
BRANCH   1   7
ATOM      7  C   LIG    1       -2.741  -7.216  -4.527  0.00  0.00    +0.119 C 
BRANCH   7  11
ATOM      8  C   LIG    1       -5.554  -5.614  -7.464  0.00  0.00    -0.042 A 
ATOM      9  C   LIG    1       -4.176  -5.694  -7.724  0.00  0.00    +0.004 A 
ATOM     10  C   LIG    1       -3.279  -6.199  -6.776  0.00  0.00    +0.005 A 
ATOM     11  C   LIG    1       -3.726  -6.644  -5.526  0.00  0.00    -0.033 A 
ATOM     12  C   LIG    1       -5.094  -6.585  -5.255  0.00  0.00    +0.005 A 
ATOM     13  C   LIG    1       -5.992  -6.075  -6.207  0.00  0.00    +0.004 A 
BRANCH   8  15
ATOM     14  C   LIG    1       -5.874  -4.598  -9.809  0.00  0.00    +0.015 C 
ATOM     15  C   LIG    1       -6.553  -5.058  -8.498  0.00  0.00    -0.013 C 
ATOM     16  C   LIG    1       -7.589  -6.141  -8.870  0.00  0.00    +0.015 C 
ATOM     17  C   LIG    1       -7.304  -3.835  -7.928  0.00  0.00    +0.015 C 
ENDBRANCH   8  15
ENDBRANCH   7  11
ENDBRANCH   1   7
BRANCH   4  18
ATOM     18  C   LIG    1        1.419  -5.753  -4.291  0.00  0.00    +0.117 C 
BRANCH  18  19
ATOM     19  C   LIG    1        2.276  -4.991  -3.260  0.00  0.00    -0.026 A 
ATOM     20  C   LIG    1        2.771  -5.598  -2.088  0.00  0.00    +0.007 A 
ATOM     21  C   LIG    1        3.566  -4.880  -1.187  0.00  0.00    +0.020 A 
ATOM     22  C   LIG    1        3.865  -3.548  -1.429  0.00  0.00    +0.041 A 
ATOM     23 CL   LIG    1        4.846  -2.670  -0.321  0.00  0.00    -0.084 Cl
ATOM     24  C   LIG    1        3.374  -2.915  -2.571  0.00  0.00    +0.020 A 
ATOM     25  C   LIG    1        2.586  -3.637  -3.476  0.00  0.00    +0.007 A 
ENDBRANCH  18  19
BRANCH  18  26
ATOM     26  C   LIG    1        2.082  -6.977  -4.977  0.00  0.00    -0.026 A 
ATOM     27  C   LIG    1        3.424  -7.331  -4.761  0.00  0.00    +0.005 A 
ATOM     28  C   LIG    1        3.998  -8.449  -5.395  0.00  0.00    +0.000 A 
ATOM     29  C   LIG    1        3.256  -9.213  -6.284  0.00  0.00    +0.000 A 
ATOM     30  C   LIG    1        1.941  -8.848  -6.564  0.00  0.00    +0.000 A 
ATOM     31  C   LIG    1        1.367  -7.739  -5.923  0.00  0.00    +0.005 A 
ENDBRANCH  18  26
ENDBRANCH   4  18
TORSDOF 6
