REMARK  Name = *****
REMARK                            x       y       z     vdW  Elec       q    Type
REMARK                         _______ _______ _______ _____ _____    ______ ____
ROOT
ATOM      1  C   UNK A  0        3.930   1.620   0.528  0.00  0.00    +0.037 C 
ENDROOT
BRANCH   1   2
ATOM      2  C   UNK A  0        5.449   1.450   0.703  0.00  0.00    -0.043 A 
ATOM      3  C   UNK A  0        6.309   2.467   1.140  0.00  0.00    +0.005 A 
ATOM      4  C   UNK A  0        7.694   2.243   1.244  0.00  0.00    +0.013 A 
ATOM      5  C   UNK A  0        8.244   0.986   0.959  0.00  0.00    +0.037 A 
ATOM      6  C   UNK A  0        7.383  -0.059   0.622  0.00  0.00    +0.013 A 
ATOM      7  C   UNK A  0        6.016   0.186   0.450  0.00  0.00    +0.005 A 
BRANCH   5   8
ATOM      8  C   UNK A  0        9.736   0.827   0.967  0.00  0.00    +0.245 C 
ATOM      9  N   GLU A  1       10.256  -0.091   0.073  0.00  0.00    -0.298 N 
ATOM     10  H   GLU A  1        9.629  -0.775  -0.331  0.00  0.00    +0.150 HD
ATOM     11  O   UNK A  0       10.438   1.540   1.671  0.00  0.00    -0.270 OA
BRANCH   9  12
ATOM     12  CA  GLU A  1       11.701  -0.346  -0.097  0.00  0.00    +0.182 C 
BRANCH  12  13
ATOM     13  C   GLU A  1       12.006  -0.568  -1.594  0.00  0.00    +0.325 C 
ATOM     14  O   GLU A  1       12.914  -1.255  -2.038  0.00  0.00    -0.249 OA
BRANCH  13  15
ATOM     15  OXT GLU A  1       11.207   0.174  -2.407  0.00  0.00    -0.479 OA
ATOM     16  HXT GLU A  1       10.602   0.742  -1.887  0.00  0.00    +0.295 HD
ENDBRANCH  13  15
ENDBRANCH  12  13
BRANCH  12  17
ATOM     17  CB  GLU A  1       12.209  -1.469   0.814  0.00  0.00    +0.045 C 
BRANCH  17  18
ATOM     18  CG  GLU A  1       11.478  -2.795   0.634  0.00  0.00    +0.123 C 
BRANCH  18  19
ATOM     19  CD  GLU A  1       12.031  -3.828   1.574  0.00  0.00    +0.305 C 
ATOM     20  OE1 GLU A  1       11.675  -4.016   2.725  0.00  0.00    -0.251 OA
BRANCH  19  21
ATOM     21  OE2 GLU A  1       13.043  -4.530   1.035  0.00  0.00    -0.481 OA
ATOM     22  HE2 GLU A  1       13.368  -5.099   1.763  0.00  0.00    +0.295 HD
ENDBRANCH  19  21
ENDBRANCH  18  19
ENDBRANCH  17  18
ENDBRANCH  12  17
ENDBRANCH   9  12
ENDBRANCH   5   8
ENDBRANCH   1   2
BRANCH   1  23
ATOM     23  C   UNK A  0        3.135   1.067   1.740  0.00  0.00    +0.097 C 
BRANCH  23  25
ATOM     24  C   UNK A  0        3.736  -1.452   2.395  0.00  0.00    +0.004 C 
ATOM     25  C   UNK A  0        3.454  -0.333   2.098  0.00  0.00    -0.105 C 
ENDBRANCH  23  25
ENDBRANCH   1  23
BRANCH   1  26
ATOM     26  C   UNK A  0        3.507   3.088   0.234  0.00  0.00    +0.066 C 
BRANCH  26  27
ATOM     27  C   UNK A  0        2.047   3.269  -0.097  0.00  0.00    +0.061 A 
ATOM     28  N   UNK A  0        1.190   3.503   0.920  0.00  0.00    -0.243 NA
ATOM     29  C   UNK A  0       -0.136   3.643   0.595  0.00  0.00    +0.148 A 
ATOM     30  C   UNK A  0       -0.609   3.523  -0.716  0.00  0.00    +0.185 A 
ATOM     31  N   UNK A  0       -1.899   3.595  -1.035  0.00  0.00    -0.193 NA
ATOM     32  C   UNK A  0       -2.769   3.785  -0.051  0.00  0.00    +0.216 A 
ATOM     33  N   UNK A  0       -2.445   3.977   1.224  0.00  0.00    -0.198 NA
ATOM     34  N   UNK A  0        0.265   3.312  -1.709  0.00  0.00    -0.233 NA
ATOM     35  C   UNK A  0       -1.140   3.897   1.526  0.00  0.00    +0.149 A 
ATOM     36  C   UNK A  0        1.577   3.192  -1.394  0.00  0.00    +0.136 A 
BRANCH  32  37
ATOM     37  N   UNK A  0       -4.108   3.806  -0.375  0.00  0.00    -0.327 N 
ATOM     38  H   UNK A  0       -4.632   4.341   0.302  0.00  0.00    +0.145 HD
ATOM     39  H   UNK A  0       -4.232   4.035  -1.351  0.00  0.00    +0.145 HD
ENDBRANCH  32  37
BRANCH  35  40
ATOM     40  N   UNK A  0       -0.818   4.167   2.867  0.00  0.00    -0.341 N 
ATOM     41  H   UNK A  0       -0.118   3.523   3.219  0.00  0.00    +0.144 HD
ATOM     42  H   UNK A  0       -1.671   4.204   3.416  0.00  0.00    +0.144 HD
ENDBRANCH  35  40
ENDBRANCH  26  27
ENDBRANCH   1  26
TORSDOF 15
