REMARK  Name = *****
REMARK                            x       y       z     vdW  Elec       q    Type
REMARK                         _______ _______ _______ _____ _____    ______ ____
ROOT
ATOM      1  C   LIG    1        4.569   1.287   0.172  0.00  0.00    +0.064 C 
ATOM      2  C   LIG    1        5.420   2.506   0.708  0.00  0.00    +0.039 C 
ATOM      3  C   LIG    1        6.243   2.905  -0.557  0.00  0.00    -0.002 C 
ATOM      4  C   LIG    1        5.218   2.695  -1.672  0.00  0.00    +0.009 C 
ATOM      5  C   LIG    1        7.287   1.831  -0.918  0.00  0.00    +0.004 C 
ATOM      6  C   LIG    1        6.426   0.654  -1.381  0.00  0.00    +0.005 C 
ATOM      7  C   LIG    1        4.999   1.226  -1.318  0.00  0.00    +0.007 C 
ENDROOT
BRANCH   2   8
ATOM      8  C   LIG    1        6.224   2.285   1.980  0.00  0.00    -0.043 A 
ATOM      9  C   LIG    1        7.394   3.020   2.238  0.00  0.00    +0.004 A 
ATOM     10  C   LIG    1        8.136   2.816   3.406  0.00  0.00    +0.000 A 
ATOM     11  C   LIG    1        7.703   1.890   4.354  0.00  0.00    +0.000 A 
ATOM     12  C   LIG    1        6.526   1.186   4.137  0.00  0.00    +0.000 A 
ATOM     13  C   LIG    1        5.787   1.391   2.969  0.00  0.00    +0.004 A 
ENDBRANCH   2   8
BRANCH   1  14
ATOM     14  N   LIG    1        3.122   1.538   0.319  0.00  0.00    -0.313 NA
ATOM     15  H   LIG    1        2.926   1.796   1.287  0.00  0.00    +0.122 HD
BRANCH  14  17
ATOM     16  C   LIG    1        0.839   0.648   0.137  0.00  0.00    +0.020 C 
ATOM     17  C   LIG    1        2.323   0.360  -0.030  0.00  0.00    +0.077 C 
ENDBRANCH  14  17
ENDBRANCH   1  14
TORSDOF 3
