REMARK  Name = *****
REMARK                            x       y       z     vdW  Elec       q    Type
REMARK                         _______ _______ _______ _____ _____    ______ ____
ROOT
ATOM      1  O   LIG    1        1.228  -0.736   0.454  0.00  0.00    -0.227 OA
ATOM      2  C   LIG    1        2.322  -0.341   0.102  0.00  0.00    +0.401 C 
ATOM      3  O   LIG    1        3.018   0.672   0.696  0.00  0.00    -0.442 OA
ATOM      4  C   LIG    1        4.312   0.785   0.060  0.00  0.00    +0.133 C 
ATOM      5  C   LIG    1        5.358   0.111   0.962  0.00  0.00    +0.065 C 
ATOM      6  C   LIG    1        6.780   0.404   0.485  0.00  0.00    +0.088 C 
ATOM      7  N   LIG    1        7.070   1.839   0.349  0.00  0.00    -0.302 NA
ATOM      8  C   LIG    1        6.095   2.474  -0.555  0.00  0.00    +0.088 C 
ATOM      9  C   LIG    1        4.640   2.267  -0.130  0.00  0.00    +0.065 C 
ATOM     10  C   LIG    1        4.116   0.049  -1.264  0.00  0.00    +0.155 C 
ATOM     11  N   LIG    1        3.025  -0.816  -0.969  0.00  0.00    -0.277 N 
ATOM     12  H   LIG    1        2.557  -1.431  -1.622  0.00  0.00    +0.152 HD
ENDROOT
BRANCH   7  13
ATOM     13  C   LIG    1        7.153   2.565   1.638  0.00  0.00    +0.089 C 
BRANCH  13  14
ATOM     14  C   LIG    1        8.274   2.091   2.582  0.00  0.00    +0.050 C 
BRANCH  14  15
ATOM     15  C   LIG    1        8.295   2.879   3.874  0.00  0.00    -0.046 A 
ATOM     16  C   LIG    1        9.051   4.053   3.987  0.00  0.00    +0.003 A 
ATOM     17  C   LIG    1        9.062   4.776   5.182  0.00  0.00    +0.000 A 
ATOM     18  C   LIG    1        8.314   4.337   6.274  0.00  0.00    +0.000 A 
ATOM     19  C   LIG    1        7.553   3.175   6.170  0.00  0.00    +0.000 A 
ATOM     20  C   LIG    1        7.541   2.450   4.976  0.00  0.00    +0.003 A 
ENDBRANCH  14  15
ENDBRANCH  13  14
ENDBRANCH   7  13
TORSDOF 3
