REMARK  Name = *****
REMARK                            x       y       z     vdW  Elec       q    Type
REMARK                         _______ _______ _______ _____ _____    ______ ____
ROOT
ATOM      1  C   LIG    1        4.872   0.854  -0.931  0.00  0.00    -0.043 A 
ATOM      2  C   LIG    1        5.614   1.667  -0.063  0.00  0.00    +0.052 A 
ATOM      3  C   LIG    1        7.000   1.611  -0.087  0.00  0.00    +0.159 A 
ATOM      4  C   LIG    1        7.666   0.761  -0.967  0.00  0.00    +0.158 A 
ATOM      5  C   LIG    1        6.948  -0.044  -1.841  0.00  0.00    +0.049 A 
ATOM      6  C   LIG    1        5.551   0.006  -1.824  0.00  0.00    +0.007 A 
ENDROOT
BRANCH   3   7
ATOM      7  O   LIG    1        7.714   2.403   0.766  0.00  0.00    -0.503 OA
ATOM      8  H   LIG    1        8.648   2.187   0.573  0.00  0.00    +0.292 HD
ENDBRANCH   3   7
BRANCH   4   9
ATOM      9  O   LIG    1        9.033   0.754  -0.932  0.00  0.00    -0.503 OA
ATOM     10  H   LIG    1        9.346   0.102  -1.583  0.00  0.00    +0.292 HD
ENDBRANCH   4   9
BRANCH   1  11
ATOM     11  C   LIG    1        3.363   0.907  -0.923  0.00  0.00    +0.050 C 
BRANCH  11  12
ATOM     12  C   LIG    1        2.825   1.968  -1.888  0.00  0.00    +0.082 C 
BRANCH  12  13
ATOM     13  N   LIG    1        1.363   2.009  -1.862  0.00  0.00    -0.330 NA
ATOM     14  H   LIG    1        1.047   2.273  -0.928  0.00  0.00    +0.118 HD
ATOM     15  H   LIG    1        1.039   2.747  -2.487  0.00  0.00    +0.118 HD
ENDBRANCH  12  13
ENDBRANCH  11  12
ENDBRANCH   1  11
TORSDOF 5
