REMARK  Name = *****
REMARK                            x       y       z     vdW  Elec       q    Type
REMARK                         _______ _______ _______ _____ _____    ______ ____
ROOT
ATOM      1  O   LIG    1        0.897   0.258   0.651  0.00  0.00    -0.273 OA
ATOM      2  C   LIG    1        2.106   0.086   0.487  0.00  0.00    +0.239 C 
ATOM      3  N   LIG    1        2.966   1.117   0.759  0.00  0.00    -0.283 N 
ATOM      4  H   LIG    1        2.477   1.981   0.959  0.00  0.00    +0.155 HD
ATOM      5  C   LIG    1        4.359   1.137   0.605  0.00  0.00    +0.043 A 
ATOM      6  C   LIG    1        5.193   0.006   0.657  0.00  0.00    +0.023 A 
ATOM      7  C   LIG    1        6.572   0.151   0.426  0.00  0.00    +0.032 A 
ATOM      8  C   LIG    1        7.117   1.411   0.189  0.00  0.00    +0.042 A 
ATOM      9  C   LIG    1        6.306   2.539   0.194  0.00  0.00    +0.022 A 
ATOM     10 CL   LIG    1        8.807   1.575  -0.082  0.00  0.00    -0.084 Cl
ATOM     11  C   LIG    1        4.691  -1.328   1.105  0.00  0.00    +0.076 C 
ATOM     12  N   LIG    1        3.558  -1.858   0.800  0.00  0.00    -0.273 NA
ATOM     13  C   LIG    1        4.934   2.403   0.408  0.00  0.00    +0.025 A 
ATOM     14  C   LIG    1        2.677  -1.173  -0.135  0.00  0.00    +0.238 C 
ENDROOT
BRANCH  11  15
ATOM     15  C   LIG    1        5.545  -2.103   2.044  0.00  0.00    +0.019 A 
ATOM     16  C   LIG    1        6.179  -3.288   1.656  0.00  0.00    +0.050 A 
ATOM     17 CL   LIG    1        6.090  -3.902   0.045  0.00  0.00    -0.083 Cl
ATOM     18  C   LIG    1        6.961  -3.984   2.582  0.00  0.00    +0.021 A 
ATOM     19  C   LIG    1        7.105  -3.501   3.885  0.00  0.00    +0.002 A 
ATOM     20  C   LIG    1        6.469  -2.321   4.270  0.00  0.00    +0.001 A 
ATOM     21  C   LIG    1        5.686  -1.619   3.352  0.00  0.00    +0.011 A 
ENDBRANCH  11  15
TORSDOF 1
