REMARK  Name = *****
REMARK                            x       y       z     vdW  Elec       q    Type
REMARK                         _______ _______ _______ _____ _____    ______ ____
ROOT
ATOM      1  C   LIG    1        5.321   1.883  -0.743  0.00  0.00    +0.157 C 
ATOM      2  C   LIG    1        4.519   3.199  -0.814  0.00  0.00    +0.196 C 
ATOM      3  C   LIG    1        4.851   4.078   0.338  0.00  0.00    +0.068 C 
ATOM      4  C   LIG    1        5.308   3.607   1.506  0.00  0.00    +0.204 C 
ATOM      5  O   LIG    1        5.512   2.267   1.774  0.00  0.00    -0.477 OA
ATOM      6  C   LIG    1        5.353   1.294   0.697  0.00  0.00    +0.228 C 
ENDROOT
BRANCH   1   9
ATOM      7  C   LIG    1        8.765   1.383  -2.371  0.00  0.00    +0.109 C 
ATOM      8  C   LIG    1        7.362   1.030  -1.954  0.00  0.00    +0.210 C 
ATOM      9  N   LIG    1        6.710   2.038  -1.267  0.00  0.00    -0.305 N 
ATOM     10  H   LIG    1        7.223   2.882  -1.048  0.00  0.00    +0.149 HD
ATOM     11  O   LIG    1        6.871  -0.065  -2.203  0.00  0.00    -0.276 OA
ENDBRANCH   1   9
BRANCH   2  12
ATOM     12  N   LIG    1        3.068   3.005  -0.831  0.00  0.00    -0.268 N 
ATOM     13  H   LIG    1        2.777   2.327  -0.116  0.00  0.00    +0.259 HD
BRANCH  12  14
ATOM     14  C   LIG    1        2.353   2.852  -1.969  0.00  0.00    +0.377 C 
ATOM     15  N   LIG    1        2.632   3.294  -3.140  0.00  0.00    -0.130 NA
ATOM     16  H   LIG    1        3.499   3.824  -3.104  0.00  0.00    +0.306 HD
BRANCH  14  17
ATOM     17  N   LIG    1        1.199   2.173  -1.815  0.00  0.00    -0.289 N 
ATOM     18  H   LIG    1        0.736   2.141  -2.721  0.00  0.00    +0.255 HD
ATOM     19  H   LIG    1        0.572   2.599  -1.144  0.00  0.00    +0.255 HD
ENDBRANCH  14  17
ENDBRANCH  12  14
ENDBRANCH   2  12
BRANCH   4  20
ATOM     20  C   LIG    1        5.631   4.595   2.582  0.00  0.00    +0.372 C 
ATOM     21  O   LIG    1        5.542   5.822   2.469  0.00  0.00    -0.242 OA
BRANCH  20  22
ATOM     22  O   LIG    1        6.077   3.991   3.700  0.00  0.00    -0.475 OA
ATOM     23  H   LIG    1        6.061   3.015   3.595  0.00  0.00    +0.295 HD
ENDBRANCH  20  22
ENDBRANCH   4  20
BRANCH   6  24
ATOM     24  C   LIG    1        4.180   0.332   1.047  0.00  0.00    +0.188 C 
BRANCH  24  25
ATOM     25  O   LIG    1        2.932   1.048   1.025  0.00  0.00    -0.385 OA
ATOM     26  H   LIG    1        2.216   0.387   1.084  0.00  0.00    +0.210 HD
ENDBRANCH  24  25
BRANCH  24  27
ATOM     27  C   LIG    1        4.091  -0.939   0.162  0.00  0.00    +0.172 C 
BRANCH  27  28
ATOM     28  O   LIG    1        3.802  -0.606  -1.195  0.00  0.00    -0.387 OA
ATOM     29  H   LIG    1        4.066  -1.379  -1.735  0.00  0.00    +0.210 HD
ENDBRANCH  27  28
BRANCH  27  30
ATOM     30  C   LIG    1        5.338  -1.828   0.223  0.00  0.00    +0.190 C 
BRANCH  30  31
ATOM     31  O   LIG    1        5.110  -2.955  -0.624  0.00  0.00    -0.392 OA
ATOM     32  H   LIG    1        5.851  -3.571  -0.491  0.00  0.00    +0.209 HD
ENDBRANCH  30  31
ENDBRANCH  27  30
ENDBRANCH  24  27
ENDBRANCH   6  24
TORSDOF 12
