REMARK  Name = *****
REMARK                            x       y       z     vdW  Elec       q    Type
REMARK                         _______ _______ _______ _____ _____    ______ ____
ROOT
ATOM      1  C   LIG    1        4.186   0.518   0.173  0.00  0.00    +0.062 C 
ATOM      2  C   LIG    1        3.774   1.475   1.300  0.00  0.00    +0.021 C 
ATOM      3  C   LIG    1        2.567   2.115   1.307  0.00  0.00    +0.015 C 
ENDROOT
BRANCH   2   4
ATOM      4  N   LIG    1        4.755   1.677   2.301  0.00  0.00    -0.273 N 
ATOM      5  C   LIG    1        5.292   2.963   2.408  0.00  0.00    +0.333 C 
ATOM      6  O   LIG    1        6.410   3.281   2.874  0.00  0.00    -0.279 OA
BRANCH   4   7
ATOM      7  C   LIG    1        5.538   0.510   2.777  0.00  0.00    +0.153 C 
BRANCH   7   8
ATOM      8  C   LIG    1        5.974   0.427   4.225  0.00  0.00    +0.028 A 
ATOM      9  C   LIG    1        5.823   1.369   5.223  0.00  0.00    +0.124 A 
ATOM     10  N   LIG    1        6.371   1.258   6.440  0.00  0.00    -0.218 NA
ATOM     11  C   LIG    1        7.062   0.149   6.717  0.00  0.00    +0.128 A 
ATOM     12  C   LIG    1        7.627   0.055   8.097  0.00  0.00    +0.088 C 
ATOM     13  N   LIG    1        7.200  -0.882   5.873  0.00  0.00    -0.240 NA
ATOM     14  C   LIG    1        6.666  -0.706   4.644  0.00  0.00    +0.121 A 
BRANCH   9  15
ATOM     15  N   LIG    1        5.021   2.493   5.136  0.00  0.00    -0.343 N 
ATOM     16  H   LIG    1        4.043   2.250   5.072  0.00  0.00    +0.144 HD
ATOM     17  H   LIG    1        5.215   3.038   5.971  0.00  0.00    +0.144 HD
ENDBRANCH   9  15
ENDBRANCH   7   8
ENDBRANCH   4   7
ENDBRANCH   2   4
BRANCH   3  18
ATOM     18  S   LIG    1        1.492   1.823  -0.054  0.00  0.00    -0.060 S 
BRANCH  18  19
ATOM     19  S   LIG    1        0.934   3.694  -0.721  0.00  0.00    -0.086 S 
BRANCH  19  20
ATOM     20  C   LIG    1       -0.498   3.396  -1.875  0.00  0.00    +0.113 C 
BRANCH  20  21
ATOM     21  C   LIG    1       -1.763   2.836  -1.208  0.00  0.00    +0.129 C 
ATOM     22  O   LIG    1       -2.809   2.632  -2.181  0.00  0.00    -0.376 OA
ATOM     23  C   LIG    1       -3.276   1.277  -2.091  0.00  0.00    +0.160 C 
ATOM     24  C   LIG    1       -2.795   0.716  -0.778  0.00  0.00    +0.030 C 
ATOM     25  C   LIG    1       -1.540   1.490  -0.550  0.00  0.00    +0.035 C 
ENDBRANCH  20  21
ENDBRANCH  19  20
ENDBRANCH  18  19
ENDBRANCH   3  18
BRANCH   3  26
ATOM     26  C   LIG    1        2.043   2.986   2.452  0.00  0.00    +0.072 C 
BRANCH  26  27
ATOM     27  C   LIG    1        0.800   2.504   3.218  0.00  0.00    +0.161 C 
BRANCH  27  28
ATOM     28  O   LIG    1        0.504   3.475   4.228  0.00  0.00    -0.395 OA
ATOM     29  H   LIG    1       -0.195   3.114   4.800  0.00  0.00    +0.209 HD
ENDBRANCH  27  28
ENDBRANCH  26  27
ENDBRANCH   3  26
TORSDOF 11
