REMARK  Name = *****
REMARK                            x       y       z     vdW  Elec       q    Type
REMARK                         _______ _______ _______ _____ _____    ______ ____
ROOT
ATOM      1  C   LIG    1        2.938   0.161   1.089  0.00  0.00    +0.282 A 
ATOM      2  C   LIG    1        3.436  -0.982   1.769  0.00  0.00    +0.081 A 
ATOM      3  C   LIG    1        4.130  -0.775   2.982  0.00  0.00    +0.119 A 
ATOM      4  N   LIG    1        4.635  -1.808   3.693  0.00  0.00    -0.251 NA
ATOM      5  C   LIG    1        4.472  -3.067   3.241  0.00  0.00    +0.111 A 
ATOM      6  C   LIG    1        3.807  -3.376   2.078  0.00  0.00    +0.020 A 
ATOM      7  C   LIG    1        4.282   0.545   3.447  0.00  0.00    +0.143 A 
ATOM      8  C   LIG    1        3.776   1.656   2.765  0.00  0.00    +0.054 A 
ATOM      9  C   LIG    1        3.283  -2.324   1.337  0.00  0.00    +0.018 A 
ATOM     10  C   LIG    1        3.094   1.465   1.574  0.00  0.00    +0.088 A 
ENDROOT
BRANCH   1  12
ATOM     11  O   LIG    1        1.067   0.453  -0.209  0.00  0.00    +0.042 OA
ATOM     12  N   LIG    1        2.225   0.018  -0.169  0.00  0.00    +0.080 N 
ATOM     13  O   LIG    1        2.835  -0.496  -1.115  0.00  0.00    -0.576 OA
ENDBRANCH   1  12
BRANCH   7  14
ATOM     14  O   LIG    1        4.957   0.756   4.628  0.00  0.00    -0.505 OA
ATOM     15  H   LIG    1        4.986   1.703   4.832  0.00  0.00    +0.292 HD
ENDBRANCH   7  14
TORSDOF 2
