REMARK  Name = *****
REMARK                            x       y       z     vdW  Elec       q    Type
REMARK                         _______ _______ _______ _____ _____    ______ ____
ROOT
ATOM      1  C   LIG    1        2.004  -2.143  -0.599  0.00  0.00    +0.045 C 
ATOM      2  C   LIG    1        1.929  -3.626   0.045  0.00  0.00    +0.083 C 
ATOM      3  N   LIG    1        2.077  -4.662  -0.965  0.00  0.00    -0.294 NA
ATOM      4  C   LIG    1        0.756  -4.840  -1.590  0.00  0.00    +0.086 C 
ATOM      5  C   LIG    1       -0.255  -4.204  -0.578  0.00  0.00    +0.030 C 
ATOM      6  C   LIG    1        3.295  -4.517  -1.751  0.00  0.00    +0.112 C 
ATOM      7  C   LIG    1        4.037  -3.196  -1.554  0.00  0.00    -0.015 C 
ATOM      8  C   LIG    1        0.618  -4.020   0.678  0.00  0.00    +0.037 C 
ATOM      9  C   LIG    1        0.371  -3.024   1.847  0.00  0.00    +0.132 C 
ATOM     10  C   LIG    1        0.397  -1.516   1.459  0.00  0.00    +0.220 C 
ATOM     11  N   LIG    1       -0.887  -3.546   2.485  0.00  0.00    -0.325 N 
ATOM     12  C   LIG    1       -1.309  -3.140   3.822  0.00  0.00    +0.130 C 
ATOM     13  C   LIG    1       -0.651  -4.963   2.391  0.00  0.00    +0.037 A 
ATOM     14  C   LIG    1       -1.378  -5.956   3.010  0.00  0.00    +0.069 A 
ATOM     15  C   LIG    1       -1.254  -7.301   2.610  0.00  0.00    +0.127 A 
ATOM     16  C   LIG    1       -0.226  -7.720   1.709  0.00  0.00    +0.017 A 
ATOM     17  C   LIG    1        0.584  -6.670   1.159  0.00  0.00    +0.014 A 
ATOM     18  C   LIG    1        0.316  -5.313   1.450  0.00  0.00    -0.016 A 
ATOM     19  C   LIG    1        1.586  -1.085   0.500  0.00  0.00    +0.232 C 
ATOM     20  C   LIG    1        3.483  -2.095  -1.002  0.00  0.00    -0.018 C 
ENDROOT
BRANCH  16  21
ATOM     21  C   LIG    1       -0.084  -9.243   1.128  0.00  0.00    +0.136 C 
ATOM     22  C   LIG    1       -0.565 -10.424   2.094  0.00  0.00    +0.043 C 
ATOM     23  C   LIG    1       -0.786 -11.828   1.964  0.00  0.00    -0.004 C 
ATOM     24  C   LIG    1       -1.280 -12.289   3.246  0.00  0.00    +0.004 C 
ATOM     25  C   LIG    1       -1.151 -11.240   4.142  0.00  0.00    +0.047 C 
ATOM     26  C   LIG    1       -1.517 -11.329   5.489  0.00  0.00    +0.026 C 
ATOM     27  C   LIG    1       -2.023 -12.547   5.945  0.00  0.00    +0.002 C 
ATOM     28  C   LIG    1       -2.143 -13.635   5.085  0.00  0.00    +0.001 C 
ATOM     29  C   LIG    1       -1.772 -13.521   3.739  0.00  0.00    +0.010 C 
ATOM     30  C   LIG    1       -0.560 -12.805   0.811  0.00  0.00    +0.122 C 
ATOM     31  N   LIG    1        0.860 -13.035   0.423  0.00  0.00    -0.297 NA
ATOM     32  C   LIG    1        1.407 -11.853  -0.207  0.00  0.00    +0.088 C 
ATOM     33  C   LIG    1        1.905 -10.941   0.905  0.00  0.00    +0.005 C 
ATOM     34  C   LIG    1        3.294 -11.421   1.267  0.00  0.00    +0.015 C 
ATOM     35  C   LIG    1        3.107 -12.875   1.853  0.00  0.00    +0.072 C 
ATOM     36  C   LIG    1        1.744 -13.596   1.467  0.00  0.00    +0.094 C 
ATOM     37  N   LIG    1       -0.567 -10.209   3.459  0.00  0.00    -0.356 NA
ATOM     38  H   LIG    1       -0.290  -9.339   3.890  0.00  0.00    +0.166 HD
ATOM     39  C   LIG    1        1.472  -9.488   0.739  0.00  0.00    +0.034 C 
BRANCH  35  40
ATOM     40  C   LIG    1        3.260 -12.842   3.392  0.00  0.00    +0.250 C 
ATOM     41  F   LIG    1        2.356 -11.981   3.929  0.00  0.00    -0.206 F 
ATOM     42  F   LIG    1        4.486 -12.331   3.699  0.00  0.00    -0.206 F 
ATOM     43  C   LIG    1        3.130 -14.177   4.106  0.00  0.00    +0.085 C 
ENDBRANCH  35  40
BRANCH  21  44
ATOM     44  C   LIG    1       -1.001  -9.285  -0.146  0.00  0.00    +0.324 C 
ATOM     45  O   LIG    1       -0.615  -9.400  -1.304  0.00  0.00    -0.249 OA
BRANCH  44  46
ATOM     46  O   LIG    1       -2.305  -9.038   0.185  0.00  0.00    -0.467 OA
ATOM     47  C   LIG    1       -2.923  -7.980  -0.550  0.00  0.00    +0.280 C 
ENDBRANCH  44  46
ENDBRANCH  21  44
ENDBRANCH  16  21
BRANCH   1  49
ATOM     48  C   LIG    1        1.526  -0.615  -2.832  0.00  0.00    +0.005 C 
ATOM     49  C   LIG    1        1.259  -1.874  -1.993  0.00  0.00    +0.013 C 
ENDBRANCH   1  49
BRANCH  10  50
ATOM     50  O   LIG    1       -0.862  -1.214   0.841  0.00  0.00    -0.373 OA
ATOM     51  H   LIG    1       -1.528  -1.633   1.424  0.00  0.00    +0.211 HD
ENDBRANCH  10  50
BRANCH  10  52
ATOM     52  C   LIG    1        0.645  -0.729   2.783  0.00  0.00    +0.345 C 
ATOM     53  O   LIG    1        1.731  -0.606   3.341  0.00  0.00    -0.247 OA
BRANCH  52  54
ATOM     54  O   LIG    1       -0.532  -0.228   3.254  0.00  0.00    -0.466 OA
ATOM     55  C   LIG    1       -0.445   0.751   4.290  0.00  0.00    +0.280 C 
ENDBRANCH  52  54
ENDBRANCH  10  52
BRANCH  15  56
ATOM     56  O   LIG    1       -2.193  -8.218   3.008  0.00  0.00    -0.495 OA
ATOM     57  C   LIG    1       -3.172  -7.824   3.968  0.00  0.00    +0.277 C 
ENDBRANCH  15  56
BRANCH  19  58
ATOM     58  O   LIG    1        1.230   0.142  -0.216  0.00  0.00    -0.457 OA
BRANCH  58  59
ATOM     59  C   LIG    1        1.278   1.378   0.279  0.00  0.00    +0.304 C 
ATOM     60  O   LIG    1        1.553   1.628   1.411  0.00  0.00    -0.251 OA
ATOM     61  C   LIG    1        1.004   2.409  -0.733  0.00  0.00    +0.136 C 
ENDBRANCH  58  59
ENDBRANCH  19  58
TORSDOF 11
