REMARK  Name = *****
REMARK                            x       y       z     vdW  Elec       q    Type
REMARK                         _______ _______ _______ _____ _____    ______ ____
ROOT
ATOM      1  C   LIG    1       10.274  -0.136  -3.891  0.00  0.00    -0.021 C 
ATOM      2  C   LIG    1       11.555   0.167  -4.114  0.00  0.00    -0.035 C 
ATOM      3  C   LIG    1       12.203   1.509  -3.785  0.00  0.00    +0.059 C 
ATOM      4  C   LIG    1       12.903   2.214  -4.973  0.00  0.00    +0.085 C 
ATOM      5  C   LIG    1       13.779   3.356  -4.478  0.00  0.00    -0.011 C 
ATOM      6  C   LIG    1       14.212   3.451  -3.237  0.00  0.00    +0.009 C 
ATOM      7  C   LIG    1       13.890   2.447  -2.206  0.00  0.00    +0.051 C 
ATOM      8  S   LIG    1       13.975   1.186  -6.033  0.00  0.00    -0.116 S 
ATOM      9  C   LIG    1       13.482  -0.476  -5.625  0.00  0.00    +0.016 A 
ATOM     10  C   LIG    1       14.261  -1.482  -6.229  0.00  0.00    +0.015 A 
ATOM     11  C   LIG    1       13.997  -2.830  -6.005  0.00  0.00    +0.001 A 
ATOM     12  C   LIG    1       12.953  -3.200  -5.177  0.00  0.00    +0.001 A 
ATOM     13  C   LIG    1       12.173  -2.212  -4.571  0.00  0.00    +0.009 A 
ATOM     14  C   LIG    1       12.990   1.490  -2.492  0.00  0.00    -0.005 C 
ATOM     15  C   LIG    1       12.425  -0.841  -4.785  0.00  0.00    -0.008 A 
ENDROOT
BRANCH   7  16
ATOM     16  C   LIG    1       14.478   2.623  -0.824  0.00  0.00    +0.417 C 
ATOM     17  F   LIG    1       15.245   1.568  -0.454  0.00  0.00    -0.166 F 
ATOM     18  F   LIG    1       13.490   2.736   0.105  0.00  0.00    -0.166 F 
ATOM     19  F   LIG    1       15.247   3.735  -0.700  0.00  0.00    -0.166 F 
ENDBRANCH   7  16
BRANCH   1  20
ATOM     20  C   LIG    1        9.220   0.804  -3.376  0.00  0.00    +0.043 C 
BRANCH  20  21
ATOM     21  C   LIG    1        8.900   0.728  -1.880  0.00  0.00    +0.088 C 
BRANCH  21  25
ATOM     22  N   LIG    1        6.633   3.462  -3.438  0.00  0.00    -0.298 NA
ATOM     23  C   LIG    1        7.953   3.769  -2.864  0.00  0.00    +0.100 C 
ATOM     24  C   LIG    1        8.286   3.101  -1.503  0.00  0.00    +0.100 C 
ATOM     25  N   LIG    1        7.908   1.683  -1.361  0.00  0.00    -0.300 NA
ATOM     26  C   LIG    1        6.557   1.436  -1.879  0.00  0.00    +0.100 C 
ATOM     27  C   LIG    1        6.252   2.052  -3.268  0.00  0.00    +0.100 C 
BRANCH  22  28
ATOM     28  C   LIG    1        5.577   4.381  -2.997  0.00  0.00    +0.112 C 
BRANCH  28  29
ATOM     29  C   LIG    1        5.139   4.296  -1.531  0.00  0.00    +0.171 C 
BRANCH  29  30
ATOM     30  O   LIG    1        4.122   5.232  -1.219  0.00  0.00    -0.394 OA
ATOM     31  H   LIG    1        3.893   5.048  -0.289  0.00  0.00    +0.209 HD
ENDBRANCH  29  30
ENDBRANCH  28  29
ENDBRANCH  22  28
ENDBRANCH  21  25
ENDBRANCH  20  21
ENDBRANCH   1  20
TORSDOF 7
