REMARK  Name = *****
REMARK                            x       y       z     vdW  Elec       q    Type
REMARK                         _______ _______ _______ _____ _____    ______ ____
ROOT
ATOM      1  O   LIG    1        1.170   0.172  -0.592  0.00  0.00    -0.252 OA
ATOM      2  C   LIG    1        2.268  -0.073  -0.118  0.00  0.00    +0.306 C 
ATOM      3  N   LIG    1        3.080   0.805   0.617  0.00  0.00    -0.271 N 
ATOM      4  C   LIG    1        4.450   0.298   0.602  0.00  0.00    +0.155 C 
ATOM      5  C   LIG    1        4.233  -1.208   0.479  0.00  0.00    +0.152 C 
ATOM      6  C   LIG    1        4.085  -1.763   1.903  0.00  0.00    +0.302 C 
ATOM      7  S   LIG    1        4.884  -0.641   3.119  0.00  0.00    -0.004 S 
ATOM      8  C   LIG    1        6.543  -1.395   3.103  0.00  0.00    +0.278 C 
ATOM      9  C   LIG    1        7.226  -1.013   1.808  0.00  0.00    +0.059 C 
ATOM     10  C   LIG    1        6.828   0.429   1.545  0.00  0.00    +0.064 C 
ATOM     11  C   LIG    1        5.326   0.584   1.817  0.00  0.00    +0.230 C 
ATOM     12  N   LIG    1        2.987  -1.262  -0.268  0.00  0.00    -0.272 N 
ENDROOT
BRANCH   3  13
ATOM     13  C   LIG    1        2.742   2.209   0.761  0.00  0.00    +0.145 C 
BRANCH  13  14
ATOM     14  C   LIG    1        3.300   3.075  -0.344  0.00  0.00    -0.030 A 
ATOM     15  C   LIG    1        4.577   3.647  -0.232  0.00  0.00    +0.005 A 
ATOM     16  C   LIG    1        5.102   4.420  -1.268  0.00  0.00    +0.000 A 
ATOM     17  C   LIG    1        4.353   4.639  -2.423  0.00  0.00    +0.000 A 
ATOM     18  C   LIG    1        3.082   4.081  -2.545  0.00  0.00    +0.000 A 
ATOM     19  C   LIG    1        2.561   3.297  -1.514  0.00  0.00    +0.005 A 
ENDBRANCH  13  14
ENDBRANCH   3  13
BRANCH  12  20
ATOM     20  C   LIG    1        2.688  -2.257  -1.275  0.00  0.00    +0.145 C 
BRANCH  20  21
ATOM     21  C   LIG    1        2.355  -3.612  -0.709  0.00  0.00    -0.030 A 
ATOM     22  C   LIG    1        3.362  -4.556  -0.465  0.00  0.00    +0.005 A 
ATOM     23  C   LIG    1        3.043  -5.820   0.033  0.00  0.00    +0.000 A 
ATOM     24  C   LIG    1        1.714  -6.161   0.275  0.00  0.00    +0.000 A 
ATOM     25  C   LIG    1        0.704  -5.230   0.039  0.00  0.00    +0.000 A 
ATOM     26  C   LIG    1        1.023  -3.956  -0.434  0.00  0.00    +0.005 A 
ENDBRANCH  20  21
ENDBRANCH  12  20
TORSDOF 4
