REMARK  Name = *****
REMARK                            x       y       z     vdW  Elec       q    Type
REMARK                         _______ _______ _______ _____ _____    ______ ____
ROOT
ATOM      1  C   LIG    1        3.583   0.092   0.445  0.00  0.00    +0.100 C 
ATOM      2  C   LIG    1        4.234   1.333   0.225  0.00  0.00    +0.073 C 
ATOM      3  C   LIG    1        5.618   1.300  -0.040  0.00  0.00    +0.050 C 
ATOM      4  C   LIG    1        6.391   2.562  -0.107  0.00  0.00    +0.203 C 
ATOM      5  C   LIG    1        5.672   3.841   0.038  0.00  0.00    +0.122 C 
ATOM      6  C   LIG    1        4.340   3.770   0.180  0.00  0.00    +0.105 C 
ATOM      7  O   LIG    1        7.610   2.554  -0.268  0.00  0.00    -0.286 OA
ATOM      8  C   LIG    1        6.291   0.097  -0.246  0.00  0.00    +0.054 C 
ATOM      9  C   LIG    1        5.588  -1.097  -0.187  0.00  0.00    +0.146 C 
ATOM     10  F   LIG    1        6.255  -2.215  -0.512  0.00  0.00    -0.203 F 
ATOM     11  N   LIG    1        3.582   2.609   0.226  0.00  0.00    -0.342 NA
ATOM     12  C   LIG    1        4.228  -1.147   0.171  0.00  0.00    +0.085 C 
ENDROOT
BRANCH  12  13
ATOM     13  N   LIG    1        3.462  -2.342   0.184  0.00  0.00    -0.323 NA
ATOM     14  C   LIG    1        2.815  -2.569  -1.133  0.00  0.00    +0.138 C 
ATOM     15  C   LIG    1        3.697  -3.618  -1.814  0.00  0.00    +0.154 C 
ATOM     16  C   LIG    1        4.032  -4.577  -0.651  0.00  0.00    +0.102 C 
ATOM     17  N   LIG    1        3.027  -5.647  -0.429  0.00  0.00    -0.307 NA
ATOM     18  H   LIG    1        2.184  -5.232  -0.027  0.00  0.00    +0.122 HD
ATOM     19  C   LIG    1        2.684  -6.259  -1.722  0.00  0.00    +0.109 C 
ATOM     20  C   LIG    1        2.150  -5.213  -2.704  0.00  0.00    +0.175 C 
ATOM     21  O   LIG    1        3.132  -4.215  -2.981  0.00  0.00    -0.372 OA
ATOM     22  C   LIG    1        4.134  -3.615   0.570  0.00  0.00    +0.126 C 
ENDBRANCH  12  13
BRANCH  11  23
ATOM     23  C   LIG    1        2.149   2.747  -0.153  0.00  0.00    +0.087 C 
ATOM     24  C   LIG    1        1.702   3.473  -1.405  0.00  0.00    +0.027 C 
ATOM     25  C   LIG    1        1.565   1.989  -1.327  0.00  0.00    +0.027 C 
ENDBRANCH  11  23
BRANCH   1  27
ATOM     26  N   LIG    1        1.259   0.032   1.613  0.00  0.00    -0.191 NA
ATOM     27  C   LIG    1        2.286   0.049   1.075  0.00  0.00    +0.103 C 
ENDBRANCH   1  27
BRANCH   5  28
ATOM     28  C   LIG    1        6.335   5.160  -0.021  0.00  0.00    +0.342 C 
ATOM     29  O   LIG    1        5.731   6.219   0.068  0.00  0.00    -0.245 OA
BRANCH  28  30
ATOM     30  O   LIG    1        7.675   5.109  -0.189  0.00  0.00    -0.477 OA
ATOM     31  H   LIG    1        8.042   4.194  -0.274  0.00  0.00    +0.295 HD
ENDBRANCH  28  30
ENDBRANCH   5  28
TORSDOF 5
