REMARK  Name = *****
REMARK                            x       y       z     vdW  Elec       q    Type
REMARK                         _______ _______ _______ _____ _____    ______ ____
ROOT
ATOM      1  C   LIG    1       10.838  -0.215   0.185  0.00  0.00    +0.136 C 
ATOM      2  N   LIG    1       12.209  -0.209   0.420  0.00  0.00    -0.295 N 
ATOM      3  C   LIG    1       12.983   0.933   0.893  0.00  0.00    +0.154 C 
ATOM      4  C   LIG    1       12.965  -1.331   0.137  0.00  0.00    +0.296 C 
ATOM      5  O   LIG    1       14.197  -1.387   0.166  0.00  0.00    -0.264 OA
ATOM      6  C   LIG    1       12.248  -2.559  -0.247  0.00  0.00    +0.213 C 
ATOM      7  C   LIG    1       10.920  -2.459  -0.395  0.00  0.00    +0.173 C 
ATOM      8  N   LIG    1       10.208  -1.282  -0.224  0.00  0.00    -0.223 NA
ENDROOT
BRANCH   1   9
ATOM      9  C   LIG    1        9.990   1.121   0.335  0.00  0.00    +0.087 C 
ATOM     10  C   LIG    1       10.467   2.134  -0.734  0.00  0.00    +0.039 C 
ATOM     11  C   LIG    1        8.492   0.882   0.034  0.00  0.00    +0.039 C 
BRANCH   9  13
ATOM     12  C   LIG    1        9.765   1.092   2.852  0.00  0.00    +0.301 C 
ATOM     13  N   LIG    1       10.148   1.716   1.672  0.00  0.00    -0.295 N 
ATOM     14  H   LIG    1       10.494   2.656   1.766  0.00  0.00    +0.150 HD
ATOM     15  O   LIG    1        9.179   0.016   2.850  0.00  0.00    -0.265 OA
BRANCH  12  19
ATOM     16  C   LIG    1        9.959   2.229   7.561  0.00  0.00    +0.111 C 
ATOM     17  C   LIG    1       10.288   2.293   6.122  0.00  0.00    +0.215 A 
ATOM     18  O   LIG    1        9.611   1.444   5.285  0.00  0.00    -0.417 OA
ATOM     19  C   LIG    1       10.148   1.794   4.066  0.00  0.00    +0.304 A 
ATOM     20  N   LIG    1       11.035   2.749   4.148  0.00  0.00    -0.102 NA
ATOM     21  N   LIG    1       11.146   3.065   5.491  0.00  0.00    -0.112 NA
ENDBRANCH  12  19
ENDBRANCH   9  13
ENDBRANCH   1   9
BRANCH   6  22
ATOM     22  O   LIG    1       13.012  -3.688  -0.456  0.00  0.00    -0.501 OA
ATOM     23  H   LIG    1       13.938  -3.419  -0.289  0.00  0.00    +0.292 HD
ENDBRANCH   6  22
BRANCH   7  24
ATOM     24  C   LIG    1       10.150  -3.676  -0.853  0.00  0.00    +0.238 C 
ATOM     25  N   LIG    1       10.595  -4.859  -1.046  0.00  0.00    -0.244 NA
BRANCH  24  26
ATOM     26  O   LIG    1        8.852  -3.350  -1.077  0.00  0.00    -0.491 OA
ATOM     27  H   LIG    1        8.712  -2.412  -0.841  0.00  0.00    +0.294 HD
ENDBRANCH  24  26
BRANCH  25  28
ATOM     28  C   LIG    1        9.699  -5.889  -1.561  0.00  0.00    +0.180 C 
BRANCH  28  29
ATOM     29  C   LIG    1       10.404  -7.237  -1.586  0.00  0.00    -0.026 A 
ATOM     30  C   LIG    1       11.624  -7.401  -2.268  0.00  0.00    +0.008 A 
ATOM     31  C   LIG    1       12.313  -8.618  -2.218  0.00  0.00    +0.039 A 
ATOM     32  C   LIG    1       11.785  -9.674  -1.488  0.00  0.00    +0.123 A 
ATOM     33  F   LIG    1       12.467 -10.824  -1.395  0.00  0.00    -0.205 F 
ATOM     34  C   LIG    1       10.563  -9.549  -0.839  0.00  0.00    +0.039 A 
ATOM     35  C   LIG    1        9.868  -8.337  -0.897  0.00  0.00    +0.008 A 
ENDBRANCH  28  29
ENDBRANCH  25  28
ENDBRANCH   7  24
TORSDOF 8
