REMARK  Name = *****
REMARK                            x       y       z     vdW  Elec       q    Type
REMARK                         _______ _______ _______ _____ _____    ______ ____
ROOT
ATOM      1  C   LIG    1        0.544  -0.836   1.003  0.00  0.00    +0.013 C 
ATOM      2  C   LIG    1        1.850  -0.520   1.023  0.00  0.00    -0.036 C 
ATOM      3  C   LIG    1        2.541   0.588   0.226  0.00  0.00    +0.085 C 
ATOM      4  C   LIG    1        3.237   1.539   1.173  0.00  0.00    +0.050 C 
ATOM      5  C   LIG    1        3.299   2.870   0.961  0.00  0.00    +0.141 C 
ATOM      6  C   LIG    1        2.756   3.527  -0.283  0.00  0.00    +0.189 C 
ATOM      7  C   LIG    1        2.362   2.545  -1.410  0.00  0.00    +0.089 C 
ATOM      8  C   LIG    1        1.552   3.325  -2.495  0.00  0.00    +0.133 C 
ATOM      9  C   LIG    1        2.360   4.543  -3.031  0.00  0.00    +0.170 C 
ATOM     10  O   LIG    1        2.218   4.992  -4.176  0.00  0.00    -0.294 OA
ATOM     11  C   LIG    1        3.228   5.322  -2.065  0.00  0.00    +0.211 C 
ATOM     12  C   LIG    1        3.788   4.440  -0.980  0.00  0.00    +0.192 C 
ATOM     13  O   LIG    1        5.006   4.357  -0.809  0.00  0.00    -0.293 OA
ATOM     14  C   LIG    1        3.837   0.955   2.420  0.00  0.00    +0.197 C 
ATOM     15  O   LIG    1        4.316   1.696   3.275  0.00  0.00    -0.287 OA
ATOM     16  C   LIG    1        3.794  -0.525   2.578  0.00  0.00    +0.071 A 
ATOM     17  C   LIG    1        4.710  -1.209   3.391  0.00  0.00    +0.128 A 
ATOM     18  C   LIG    1        4.624  -2.594   3.548  0.00  0.00    +0.046 A 
ATOM     19  C   LIG    1        3.625  -3.306   2.889  0.00  0.00    +0.004 A 
ATOM     20  C   LIG    1        2.712  -2.636   2.074  0.00  0.00    +0.009 A 
ATOM     21  C   LIG    1        1.630   1.329  -0.803  0.00  0.00    +0.135 C 
ATOM     22  C   LIG    1        2.781  -1.242   1.917  0.00  0.00    -0.007 A 
ENDROOT
BRANCH  11  23
ATOM     23  C   LIG    1        2.541   6.556  -1.544  0.00  0.00    +0.228 C 
ATOM     24  O   LIG    1        2.479   6.860  -0.356  0.00  0.00    -0.275 OA
ATOM     25  N   LIG    1        2.020   7.390  -2.495  0.00  0.00    -0.328 N 
ATOM     26  H   LIG    1        2.005   7.151  -3.484  0.00  0.00    +0.145 HD
ATOM     27  H   LIG    1        1.560   8.240  -2.198  0.00  0.00    +0.145 HD
ENDBRANCH  11  23
BRANCH   8  28
ATOM     28  N   LIG    1        1.050   2.428  -3.580  0.00  0.00    -0.299 NA
ATOM     29  C   LIG    1       -0.042   3.033  -4.353  0.00  0.00    +0.105 C 
ATOM     30  C   LIG    1        2.083   1.913  -4.486  0.00  0.00    +0.105 C 
ENDBRANCH   8  28
BRANCH   5  31
ATOM     31  O   LIG    1        3.790   3.768   1.896  0.00  0.00    -0.507 OA
ATOM     32  H   LIG    1        4.164   3.255   2.653  0.00  0.00    +0.292 HD
ENDBRANCH   5  31
BRANCH   6  33
ATOM     33  O   LIG    1        1.606   4.257   0.126  0.00  0.00    -0.373 OA
ATOM     34  H   LIG    1        1.901   4.831   0.869  0.00  0.00    +0.211 HD
ENDBRANCH   6  33
BRANCH  17  35
ATOM     35  O   LIG    1        5.729  -0.541   4.009  0.00  0.00    -0.506 OA
ATOM     36  H   LIG    1        6.186  -1.130   4.630  0.00  0.00    +0.292 HD
ENDBRANCH  17  35
BRANCH  21  37
ATOM     37  O   LIG    1        1.297   0.386  -1.830  0.00  0.00    -0.390 OA
ATOM     38  H   LIG    1        0.851   0.890  -2.545  0.00  0.00    +0.210 HD
ENDBRANCH  21  37
TORSDOF 6
