REMARK  Name = *****
REMARK                            x       y       z     vdW  Elec       q    Type
REMARK                         _______ _______ _______ _____ _____    ______ ____
ROOT
ATOM      1  C   LIG    1        6.347   2.412  -2.275  0.00  0.00    +0.178 C 
ENDROOT
BRANCH   1   2
ATOM      2  C   LIG    1        6.899   3.650  -2.975  0.00  0.00    -0.015 A 
ATOM      3  C   LIG    1        7.245   3.666  -4.336  0.00  0.00    +0.006 A 
ATOM      4  C   LIG    1        7.675   4.852  -4.943  0.00  0.00    +0.000 A 
ATOM      5  C   LIG    1        7.748   6.036  -4.216  0.00  0.00    +0.000 A 
ATOM      6  C   LIG    1        7.402   6.044  -2.869  0.00  0.00    +0.000 A 
ATOM      7  C   LIG    1        6.989   4.859  -2.259  0.00  0.00    +0.006 A 
ENDBRANCH   1   2
BRANCH   1   8
ATOM      8  C   LIG    1        6.924   1.057  -2.683  0.00  0.00    -0.015 A 
ATOM      9  C   LIG    1        6.079   0.011  -3.107  0.00  0.00    +0.006 A 
ATOM     10  C   LIG    1        6.580  -1.267  -3.358  0.00  0.00    +0.000 A 
ATOM     11  C   LIG    1        7.931  -1.531  -3.178  0.00  0.00    +0.000 A 
ATOM     12  C   LIG    1        8.792  -0.506  -2.780  0.00  0.00    +0.000 A 
ATOM     13  C   LIG    1        8.292   0.783  -2.542  0.00  0.00    +0.006 A 
ENDBRANCH   1   8
BRANCH   1  14
ATOM     14  O   LIG    1        4.917   2.406  -2.447  0.00  0.00    -0.366 OA
BRANCH  14  15
ATOM     15  C   LIG    1        4.234   2.899  -1.295  0.00  0.00    +0.176 C 
BRANCH  15  16
ATOM     16  C   LIG    1        2.710   2.855  -1.500  0.00  0.00    +0.112 C 
BRANCH  16  18
ATOM     17  C   LIG    1        2.253   4.814  -0.130  0.00  0.00    +0.104 C 
ATOM     18  N   LIG    1        1.957   3.396  -0.347  0.00  0.00    -0.306 NA
ATOM     19  C   LIG    1        0.515   3.225  -0.548  0.00  0.00    +0.104 C 
ENDBRANCH  16  18
ENDBRANCH  15  16
ENDBRANCH  14  15
ENDBRANCH   1  14
TORSDOF 6
