REMARK  Name = *****
REMARK                            x       y       z     vdW  Elec       q    Type
REMARK                         _______ _______ _______ _____ _____    ______ ____
ROOT
ATOM      1  CA  HIS A  1        6.574  -2.393  -1.702  0.00  0.00    +0.187 C 
ENDROOT
BRANCH   1   3
ATOM      2  C   UNK A  0        4.380  -1.356  -2.239  0.00  0.00    +0.215 C 
ATOM      3  N   HIS A  1        5.116  -2.280  -1.530  0.00  0.00    -0.302 N 
ATOM      4  H   HIS A  1        4.648  -2.970  -0.947  0.00  0.00    +0.149 HD
ATOM      5  O   UNK A  0        4.887  -0.655  -3.104  0.00  0.00    -0.276 OA
BRANCH   2   6
ATOM      6  C   UNK A  0        2.898  -1.398  -1.952  0.00  0.00    +0.110 C 
BRANCH   6   7
ATOM      7  C   UNK A  0        2.282  -0.038  -2.248  0.00  0.00    +0.087 C 
BRANCH   7   8
ATOM      8  N   UNK A  0        0.853  -0.043  -1.951  0.00  0.00    -0.330 NA
ATOM      9  H   UNK A  0        0.704  -0.174  -0.951  0.00  0.00    +0.118 HD
ATOM     10  H   UNK A  0        0.468   0.876  -2.173  0.00  0.00    +0.118 HD
ENDBRANCH   7   8
ENDBRANCH   6   7
ENDBRANCH   2   6
ENDBRANCH   1   3
BRANCH   1  11
ATOM     11  C   HIS A  1        6.918  -3.351  -2.853  0.00  0.00    +0.326 C 
ATOM     12  O   HIS A  1        8.060  -3.711  -3.108  0.00  0.00    -0.249 OA
BRANCH  11  13
ATOM     13  OXT HIS A  1        5.859  -3.792  -3.557  0.00  0.00    -0.479 OA
ATOM     14  HXT HIS A  1        5.044  -3.332  -3.270  0.00  0.00    +0.295 HD
ENDBRANCH  11  13
ENDBRANCH   1  11
BRANCH   1  15
ATOM     15  CB  HIS A  1        7.305  -2.793  -0.408  0.00  0.00    +0.088 C 
BRANCH  15  16
ATOM     16  CG  HIS A  1        6.857  -4.096   0.166  0.00  0.00    +0.038 A 
ATOM     17  ND1 HIS A  1        7.433  -5.301  -0.163  0.00  0.00    -0.348 N 
ATOM     18  HD1 HIS A  1        8.200  -5.452  -0.808  0.00  0.00    +0.167 HD
ATOM     19  CE1 HIS A  1        6.767  -6.274   0.527  0.00  0.00    +0.196 A 
ATOM     20  NE2 HIS A  1        5.830  -5.765   1.294  0.00  0.00    -0.244 NA
ATOM     21  CD2 HIS A  1        5.896  -4.413   1.102  0.00  0.00    +0.133 A 
ENDBRANCH  15  16
ENDBRANCH   1  15
TORSDOF 8
