REMARK  Name = *****
REMARK                            x       y       z     vdW  Elec       q    Type
REMARK                         _______ _______ _______ _____ _____    ______ ____
ROOT
ATOM      1  C   LIG    1        2.433   0.013  -0.011  0.00  0.00    +0.156 A 
ATOM      2  C   LIG    1        3.150   1.220  -0.013  0.00  0.00    +0.115 A 
ATOM      3  C   LIG    1        4.562   1.163  -0.009  0.00  0.00    +0.022 A 
ATOM      4  C   LIG    1        5.257   2.394  -0.028  0.00  0.00    +0.013 A 
ATOM      5  C   LIG    1        4.569   3.600  -0.057  0.00  0.00    +0.020 A 
ATOM      6  C   LIG    1        3.195   3.551  -0.055  0.00  0.00    +0.111 A 
ATOM      7  C   LIG    1        5.201  -0.103   0.004  0.00  0.00    +0.051 A 
ATOM      8 CL   LIG    1        6.928  -0.260   0.022  0.00  0.00    -0.083 Cl
ATOM      9  C   LIG    1        4.466  -1.289  -0.004  0.00  0.00    +0.038 A 
ATOM     10  N   LIG    1        2.491   2.402  -0.029  0.00  0.00    -0.251 NA
ATOM     11  C   LIG    1        3.080  -1.229  -0.015  0.00  0.00    +0.058 A 
ATOM     12  I   LIG    1        2.006  -3.022  -0.055  0.00  0.00    -0.040 I 
ENDROOT
BRANCH   1  13
ATOM     13  O   LIG    1        1.056   0.076  -0.012  0.00  0.00    -0.504 OA
ATOM     14  H   LIG    1        0.705  -0.830  -0.017  0.00  0.00    +0.292 HD
ENDBRANCH   1  13
TORSDOF 1
