REMARK  Name = *****
REMARK                            x       y       z     vdW  Elec       q    Type
REMARK                         _______ _______ _______ _____ _____    ______ ____
ROOT
ATOM      1  C   LIG    1        8.988  -3.963   0.599  0.00  0.00    +0.085 C 
ENDROOT
BRANCH   1   2
ATOM      2  N   LIG    1        9.692  -5.040   1.315  0.00  0.00    -0.299 NA
ATOM      3  C   LIG    1        9.352  -6.404   0.840  0.00  0.00    +0.103 C 
ATOM      4  C   LIG    1        9.876  -6.744  -0.577  0.00  0.00    +0.120 C 
ATOM      5  N   LIG    1       11.349  -6.597  -0.585  0.00  0.00    -0.326 N 
ATOM      6  C   LIG    1       11.772  -5.238  -0.182  0.00  0.00    +0.120 C 
ATOM      7  C   LIG    1       11.166  -4.875   1.201  0.00  0.00    +0.103 C 
BRANCH   5   8
ATOM      8  C   LIG    1       12.075  -7.305  -1.553  0.00  0.00    +0.050 A 
ATOM      9  C   LIG    1       12.115  -8.729  -1.610  0.00  0.00    +0.080 A 
ATOM     10 CL   LIG    1       11.286  -9.688  -0.411  0.00  0.00    -0.080 Cl
ATOM     11  C   LIG    1       12.897  -9.391  -2.581  0.00  0.00    +0.061 A 
ATOM     12 CL   LIG    1       12.975 -11.119  -2.712  0.00  0.00    -0.082 Cl
ATOM     13  C   LIG    1       13.667  -8.664  -3.488  0.00  0.00    +0.021 A 
ATOM     14  C   LIG    1       13.657  -7.278  -3.439  0.00  0.00    +0.003 A 
ATOM     15  C   LIG    1       12.870  -6.615  -2.491  0.00  0.00    +0.025 A 
ENDBRANCH   5   8
ENDBRANCH   1   2
BRANCH   1  16
ATOM     16  C   LIG    1        7.459  -4.065   0.716  0.00  0.00    +0.019 C 
BRANCH  16  20
ATOM     17  C   LIG    1        5.024  -1.605   2.078  0.00  0.00    +0.074 C 
ATOM     18  C   LIG    1        4.638  -2.966   1.488  0.00  0.00    +0.022 C 
ATOM     19  C   LIG    1        5.183  -3.151   0.073  0.00  0.00    +0.005 C 
ATOM     20  C   LIG    1        6.704  -2.928  -0.006  0.00  0.00    -0.010 C 
ATOM     21  C   LIG    1        7.035  -1.530   0.533  0.00  0.00    +0.005 C 
ATOM     22  C   LIG    1        6.531  -1.325   1.962  0.00  0.00    +0.022 C 
BRANCH  17  26
ATOM     23  C   LIG    1        3.215   0.748   5.978  0.00  0.00    +0.133 C 
ATOM     24  N   LIG    1        3.748  -0.451   5.349  0.00  0.00    -0.292 N 
ATOM     25  C   LIG    1        4.168  -0.358   4.028  0.00  0.00    +0.302 C 
ATOM     26  N   LIG    1        4.586  -1.542   3.467  0.00  0.00    -0.296 N 
ATOM     27  H   LIG    1        5.015  -2.197   4.091  0.00  0.00    +0.150 HD
ATOM     28  O   LIG    1        4.141   0.682   3.390  0.00  0.00    -0.253 OA
ATOM     29  C   LIG    1        3.556  -1.687   6.089  0.00  0.00    +0.133 C 
ENDBRANCH  17  26
ENDBRANCH  16  20
ENDBRANCH   1  16
TORSDOF 5
