REMARK  Name = *****
REMARK                            x       y       z     vdW  Elec       q    Type
REMARK                         _______ _______ _______ _____ _____    ______ ____
ROOT
ATOM      1  C   LIG    1        2.001   2.568   0.209  0.00  0.00    +0.144 C 
ENDROOT
BRANCH   1   2
ATOM      2  C   LIG    1        2.376   2.582  -1.308  0.00  0.00    -0.003 C 
ATOM      3  C   LIG    1        3.554   1.623  -1.637  0.00  0.00    +0.012 C 
ATOM      4  C   LIG    1        3.903   1.663  -3.134  0.00  0.00    -0.007 C 
ATOM      5  C   LIG    1        2.677   1.241  -3.954  0.00  0.00    +0.038 C 
ATOM      6  C   LIG    1        1.518   2.213  -3.688  0.00  0.00    +0.067 C 
ATOM      7  C   LIG    1        1.927   3.638  -4.077  0.00  0.00    +0.038 C 
ATOM      8  C   LIG    1        3.144   4.067  -3.248  0.00  0.00    -0.007 C 
ATOM      9  C   LIG    1        4.306   3.095  -3.519  0.00  0.00    +0.007 C 
ATOM     10  C   LIG    1        1.173   2.175  -2.195  0.00  0.00    +0.043 C 
ATOM     11  C   LIG    1        2.787   4.023  -1.748  0.00  0.00    +0.012 C 
BRANCH   6  12
ATOM     12  O   LIG    1        0.368   1.825  -4.426  0.00  0.00    -0.389 OA
ATOM     13  H   LIG    1        0.605   1.829  -5.370  0.00  0.00    +0.210 HD
ENDBRANCH   6  12
ENDBRANCH   1   2
BRANCH   1  16
ATOM     14  C   LIG    1       -0.303  -0.390   1.326  0.00  0.00    +0.179 C 
ATOM     15  N   LIG    1        0.197   0.858   0.702  0.00  0.00    -0.281 N 
ATOM     16  C   LIG    1        1.536   1.182   0.750  0.00  0.00    +0.234 C 
ATOM     17  O   LIG    1        2.353   0.412   1.270  0.00  0.00    -0.274 OA
ATOM     18  C   LIG    1       -0.894   1.630   0.177  0.00  0.00    +0.081 C 
ATOM     19  C   LIG    1       -2.186   0.969   0.559  0.00  0.00    +0.014 C 
ATOM     20  C   LIG    1       -1.799   1.069  -0.889  0.00  0.00    +0.028 C 
ATOM     21  C   LIG    1       -1.838  -0.220   1.415  0.00  0.00    +0.043 C 
BRANCH  14  23
ATOM     22  N   LIG    1        0.283  -2.552  -0.063  0.00  0.00    -0.195 NA
ATOM     23  C   LIG    1        0.047  -1.591   0.534  0.00  0.00    +0.085 C 
ENDBRANCH  14  23
ENDBRANCH   1  16
BRANCH   1  24
ATOM     24  N   LIG    1        3.150   3.006   1.050  0.00  0.00    -0.320 NA
ATOM     25  H   LIG    1        2.872   2.930   2.031  0.00  0.00    +0.119 HD
ATOM     26  H   LIG    1        3.873   2.283   0.969  0.00  0.00    +0.119 HD
ENDBRANCH   1  24
TORSDOF 5
