REMARK  Name = *****
REMARK                            x       y       z     vdW  Elec       q    Type
REMARK                         _______ _______ _______ _____ _____    ______ ____
ROOT
ATOM      1  N   UNK A  1        1.419  -0.410   0.760  0.00  0.00    -0.294 NA
ATOM      2  H   UNK A  1        0.735  -0.662   0.037  0.00  0.00    +0.123 HD
ENDROOT
BRANCH   1   4
ATOM      3  C   UNK A  1        3.254  -1.228  -0.717  0.00  0.00    +0.034 C 
ATOM      4  C   UNK A  1        2.674  -0.022   0.029  0.00  0.00    +0.138 C 
BRANCH   4   5
ATOM      5  C   UNK A  1        2.398   1.116  -0.983  0.00  0.00    +0.233 C 
ATOM      6  N   PRO A  2        3.093   2.301  -0.893  0.00  0.00    -0.287 N 
ATOM      7  CA  PRO A  2        2.636   3.526  -1.593  0.00  0.00    +0.184 C 
ATOM      8  CB  PRO A  2        3.456   4.659  -0.947  0.00  0.00    +0.035 C 
ATOM      9  CG  PRO A  2        3.853   4.098   0.406  0.00  0.00    +0.021 C 
ATOM     10  CD  PRO A  2        4.130   2.645   0.077  0.00  0.00    +0.109 C 
ATOM     11  O   UNK A  1        1.557   0.971  -1.879  0.00  0.00    -0.274 OA
BRANCH   7  12
ATOM     12  C   PRO A  2        2.808   3.571  -3.125  0.00  0.00    +0.326 C 
ATOM     13  O   PRO A  2        3.026   4.600  -3.751  0.00  0.00    -0.249 OA
BRANCH  12  14
ATOM     14  OXT PRO A  2        2.579   2.404  -3.766  0.00  0.00    -0.479 OA
ATOM     15  HXT PRO A  2        2.179   1.724  -3.174  0.00  0.00    +0.295 HD
ENDBRANCH  12  14
ENDBRANCH   7  12
ENDBRANCH   4   5
ENDBRANCH   1   4
BRANCH   1  16
ATOM     16  C   UNK A  1        0.832   0.719   1.548  0.00  0.00    +0.164 C 
BRANCH  16  17
ATOM     17  C   UNK A  1        1.848   1.190   2.621  0.00  0.00    +0.322 C 
ATOM     18  O   UNK A  1        2.289   2.309   2.713  0.00  0.00    -0.249 OA
BRANCH  17  19
ATOM     19  O   UNK A  1        2.236   0.172   3.444  0.00  0.00    -0.479 OA
ATOM     20  H   UNK A  1        1.852  -0.673   3.140  0.00  0.00    +0.295 HD
ENDBRANCH  17  19
ENDBRANCH  16  17
BRANCH  16  21
ATOM     21  C   UNK A  1       -0.465   0.272   2.268  0.00  0.00    +0.035 C 
BRANCH  21  22
ATOM     22  C   UNK A  1       -1.151   1.373   3.107  0.00  0.00    +0.037 C 
BRANCH  22  23
ATOM     23  C   UNK A  1       -1.605   2.567   2.307  0.00  0.00    -0.047 A 
ATOM     24  C   UNK A  1       -0.747   3.660   2.117  0.00  0.00    +0.003 A 
ATOM     25  C   UNK A  1       -1.114   4.721   1.291  0.00  0.00    +0.000 A 
ATOM     26  C   UNK A  1       -2.364   4.725   0.680  0.00  0.00    +0.000 A 
ATOM     27  C   UNK A  1       -3.253   3.676   0.912  0.00  0.00    +0.000 A 
ATOM     28  C   UNK A  1       -2.875   2.598   1.716  0.00  0.00    +0.003 A 
ENDBRANCH  22  23
ENDBRANCH  21  22
ENDBRANCH  16  21
ENDBRANCH   1  16
TORSDOF 10
