REMARK  Name = *****
REMARK                            x       y       z     vdW  Elec       q    Type
REMARK                         _______ _______ _______ _____ _____    ______ ____
ROOT
ATOM      1  N   LIG    1        5.089  -1.748   2.824  0.00  0.00    -0.324 N 
ENDROOT
BRANCH   1   2
ATOM      2  C   LIG    1        4.337  -1.869   1.617  0.00  0.00    +0.030 A 
ATOM      3  C   LIG    1        4.305  -3.031   0.797  0.00  0.00    +0.023 A 
ATOM      4  C   LIG    1        3.209  -3.369  -0.072  0.00  0.00    +0.002 A 
ATOM      5  C   LIG    1        2.115  -2.526  -0.189  0.00  0.00    +0.000 A 
ATOM      6  C   LIG    1        2.187  -1.305   0.463  0.00  0.00    +0.002 A 
ATOM      7  C   LIG    1        3.282  -0.979   1.314  0.00  0.00    +0.023 A 
ENDBRANCH   1   2
BRANCH   1   8
ATOM      8  C   LIG    1        6.398  -2.445   3.092  0.00  0.00    +0.126 C 
BRANCH   8   9
ATOM      9  C   LIG    1        6.431  -3.777   3.998  0.00  0.00    +0.100 C 
BRANCH   9  10
ATOM     10  N   LIG    1        6.162  -4.982   3.200  0.00  0.00    -0.296 NA
ATOM     11  C   LIG    1        6.011  -6.282   3.824  0.00  0.00    +0.085 C 
ATOM     12  C   LIG    1        5.914  -7.256   2.650  0.00  0.00    +0.017 C 
ATOM     13  C   LIG    1        6.200  -6.413   1.426  0.00  0.00    +0.017 C 
ATOM     14  C   LIG    1        6.900  -5.189   1.976  0.00  0.00    +0.085 C 
ENDBRANCH   9  10
BRANCH   9  15
ATOM     15  C   LIG    1        5.767  -3.758   5.439  0.00  0.00    +0.180 C 
BRANCH  15  16
ATOM     16  O   LIG    1        4.367  -3.901   5.681  0.00  0.00    -0.378 OA
BRANCH  16  17
ATOM     17  C   LIG    1        3.539  -4.979   5.198  0.00  0.00    +0.162 C 
BRANCH  17  19
ATOM     18  C   LIG    1        2.880  -6.284   2.986  0.00  0.00    +0.009 C 
ATOM     19  C   LIG    1        3.216  -4.965   3.646  0.00  0.00    +0.009 C 
ATOM     20  C   LIG    1        2.349  -3.997   2.856  0.00  0.00    +0.009 C 
ENDBRANCH  17  19
ENDBRANCH  16  17
ENDBRANCH  15  16
ENDBRANCH   9  15
ENDBRANCH   8   9
ENDBRANCH   1   8
BRANCH   1  21
ATOM     21  C   LIG    1        4.755  -0.678   3.858  0.00  0.00    +0.140 C 
BRANCH  21  22
ATOM     22  C   LIG    1        3.679  -0.981   4.895  0.00  0.00    -0.030 A 
ATOM     23  C   LIG    1        3.509  -0.214   6.065  0.00  0.00    +0.005 A 
ATOM     24  C   LIG    1        2.674  -0.719   7.105  0.00  0.00    +0.000 A 
ATOM     25  C   LIG    1        1.950  -1.863   7.042  0.00  0.00    +0.000 A 
ATOM     26  C   LIG    1        1.950  -2.539   5.813  0.00  0.00    +0.000 A 
ATOM     27  C   LIG    1        2.882  -2.027   4.893  0.00  0.00    +0.005 A 
ENDBRANCH  21  22
ENDBRANCH   1  21
TORSDOF 10
