REMARK  Name = *****
REMARK                            x       y       z     vdW  Elec       q    Type
REMARK                         _______ _______ _______ _____ _____    ______ ____
ROOT
ATOM      1  C   LIG    1        1.237  -3.624  -1.028  0.00  0.00    +0.061 C 
ATOM      2  C   LIG    1        2.676  -3.713  -0.546  0.00  0.00    +0.016 C 
ATOM      3  N   LIG    1        3.209  -4.989  -0.672  0.00  0.00    -0.321 N 
ATOM      4  H   LIG    1        2.648  -5.625  -1.235  0.00  0.00    +0.152 HD
ATOM      5  C   LIG    1        4.573  -5.249  -0.685  0.00  0.00    +0.017 C 
ATOM      6  C   LIG    1        4.913  -6.535  -1.370  0.00  0.00    +0.061 C 
ATOM      7  C   LIG    1        5.453  -4.373  -0.143  0.00  0.00    +0.070 C 
ATOM      8  C   LIG    1        4.847  -3.144   0.589  0.00  0.00    +0.097 C 
ATOM      9  C   LIG    1        3.481  -2.755  -0.011  0.00  0.00    +0.065 C 
ENDROOT
BRANCH   7  10
ATOM     10  P   LIG    1        7.223  -4.430  -0.223  0.00  0.00    +0.362 P 
ATOM     11  O   LIG    1        7.682  -5.163   1.152  0.00  0.00    -0.304 OA
ATOM     12  C   LIG    1        9.002  -5.689   1.212  0.00  0.00    +0.179 C 
ATOM     13  C   LIG    1        9.196  -6.757   0.125  0.00  0.00    +0.013 C 
ATOM     14  C   LIG    1       10.594  -7.377   0.216  0.00  0.00    +0.015 C 
ATOM     15  C   LIG    1        8.140  -7.857   0.326  0.00  0.00    +0.015 C 
ATOM     16  C   LIG    1        8.970  -6.089  -1.240  0.00  0.00    +0.179 C 
ATOM     17  O   LIG    1        7.642  -5.573  -1.309  0.00  0.00    -0.304 OA
ATOM     18  O   LIG    1        8.084  -3.223  -0.479  0.00  0.00    -0.253 OA
ENDBRANCH   7  10
BRANCH   8  19
ATOM     19  C   LIG    1        4.762  -3.382   2.126  0.00  0.00    -0.029 A 
ATOM     20  C   LIG    1        4.412  -4.597   2.704  0.00  0.00    +0.088 A 
ATOM     21  C   LIG    1        4.450  -4.750   4.105  0.00  0.00    +0.273 A 
ATOM     22  C   LIG    1        4.822  -3.729   4.983  0.00  0.00    +0.084 A 
ATOM     23  C   LIG    1        5.091  -2.496   4.432  0.00  0.00    +0.007 A 
ATOM     24  C   LIG    1        5.012  -2.349   3.037  0.00  0.00    +0.005 A 
BRANCH  21  25
ATOM     25  N   LIG    1        4.086  -6.035   4.655  0.00  0.00    +0.080 N 
ATOM     26  O   LIG    1        2.952  -6.457   4.394  0.00  0.00    -0.576 OA
ATOM     27  O   LIG    1        4.938  -6.617   5.339  0.00  0.00    +0.041 OA
ENDBRANCH  21  25
ENDBRANCH   8  19
BRANCH   9  28
ATOM     28  C   LIG    1        3.213  -1.293   0.018  0.00  0.00    +0.338 C 
ATOM     29  O   LIG    1        3.286  -0.659   1.012  0.00  0.00    -0.245 OA
BRANCH  28  30
ATOM     30  O   LIG    1        2.982  -0.793  -1.247  0.00  0.00    -0.460 OA
BRANCH  30  31
ATOM     31  C   LIG    1        4.091  -0.083  -1.841  0.00  0.00    +0.251 C 
BRANCH  31  32
ATOM     32  C   LIG    1        4.288   1.360  -1.386  0.00  0.00    +0.146 C 
BRANCH  32  33
ATOM     33  N   LIG    1        4.658   1.642  -0.001  0.00  0.00    -0.322 N 
BRANCH  33  34
ATOM     34  C   LIG    1        5.798   1.023   0.527  0.00  0.00    +0.030 A 
ATOM     35  C   LIG    1        6.892   0.681  -0.284  0.00  0.00    +0.023 A 
ATOM     36  C   LIG    1        8.005  -0.025   0.198  0.00  0.00    +0.002 A 
ATOM     37  C   LIG    1        8.068  -0.420   1.523  0.00  0.00    +0.000 A 
ATOM     38  C   LIG    1        7.034  -0.058   2.366  0.00  0.00    +0.002 A 
ATOM     39  C   LIG    1        5.918   0.653   1.873  0.00  0.00    +0.023 A 
ENDBRANCH  33  34
BRANCH  33  40
ATOM     40  C   LIG    1        3.726   2.389   0.886  0.00  0.00    +0.140 C 
BRANCH  40  41
ATOM     41  C   LIG    1        2.522   3.123   0.258  0.00  0.00    -0.030 A 
ATOM     42  C   LIG    1        2.440   3.656  -1.048  0.00  0.00    +0.005 A 
ATOM     43  C   LIG    1        1.241   4.130  -1.590  0.00  0.00    +0.000 A 
ATOM     44  C   LIG    1        0.098   4.149  -0.812  0.00  0.00    +0.000 A 
ATOM     45  C   LIG    1        0.157   3.679   0.497  0.00  0.00    +0.000 A 
ATOM     46  C   LIG    1        1.364   3.228   1.045  0.00  0.00    +0.005 A 
ENDBRANCH  40  41
ENDBRANCH  33  40
ENDBRANCH  32  33
ENDBRANCH  31  32
ENDBRANCH  30  31
ENDBRANCH  28  30
ENDBRANCH   9  28
TORSDOF 11
