REMARK  Name = *****
REMARK                            x       y       z     vdW  Elec       q    Type
REMARK                         _______ _______ _______ _____ _____    ______ ____
ROOT
ATOM      1  O   LIG    1        1.331  -2.101   2.456  0.00  0.00    -0.486 OA
ENDROOT
BRANCH   1   3
ATOM      2  C   LIG    1       -0.094  -0.272   3.054  0.00  0.00    +0.162 A 
ATOM      3  C   LIG    1        0.169  -1.654   3.027  0.00  0.00    +0.162 A 
ATOM      4  C   LIG    1       -0.756  -2.534   3.609  0.00  0.00    +0.049 A 
ATOM      5  C   LIG    1       -1.950  -2.063   4.159  0.00  0.00    +0.004 A 
ATOM      6  C   LIG    1       -2.224  -0.701   4.154  0.00  0.00    +0.004 A 
ATOM      7  C   LIG    1       -1.302   0.186   3.601  0.00  0.00    +0.049 A 
BRANCH   2   8
ATOM      8  O   LIG    1        0.668   0.738   2.522  0.00  0.00    -0.484 OA
BRANCH   8   9
ATOM      9  C   LIG    1        2.084   0.598   2.598  0.00  0.00    +0.256 C 
BRANCH   9  11
ATOM     10  C   LIG    1        3.116   2.427   3.981  0.00  0.00    +0.007 C 
ATOM     11  C   LIG    1        2.674   1.974   2.810  0.00  0.00    +0.006 C 
ENDBRANCH   9  11
ENDBRANCH   8   9
ENDBRANCH   2   8
ENDBRANCH   1   3
BRANCH   1  12
ATOM     12  C   LIG    1        1.273  -3.298   1.663  0.00  0.00    +0.261 C 
BRANCH  12  13
ATOM     13  C   LIG    1        1.035  -2.989   0.178  0.00  0.00    +0.166 C 
BRANCH  13  14
ATOM     14  O   LIG    1        2.091  -2.153  -0.328  0.00  0.00    -0.387 OA
ATOM     15  H   LIG    1        2.937  -2.590  -0.137  0.00  0.00    +0.210 HD
ENDBRANCH  13  14
BRANCH  13  16
ATOM     16  C   LIG    1       -0.297  -2.273  -0.108  0.00  0.00    +0.115 C 
BRANCH  16  17
ATOM     17  N   LIG    1       -1.517  -3.049   0.191  0.00  0.00    -0.311 NA
ATOM     18  H   LIG    1       -1.524  -3.291   1.181  0.00  0.00    +0.122 HD
BRANCH  17  19
ATOM     19  C   LIG    1       -2.731  -2.247  -0.070  0.00  0.00    +0.048 C 
ATOM     20  C   LIG    1       -3.976  -3.052   0.312  0.00  0.00    +0.024 C 
ATOM     21  C   LIG    1       -2.836  -1.826  -1.538  0.00  0.00    +0.024 C 
ENDBRANCH  17  19
ENDBRANCH  16  17
ENDBRANCH  13  16
ENDBRANCH  12  13
ENDBRANCH   1  12
TORSDOF 10
