REMARK  Name = *****
REMARK                            x       y       z     vdW  Elec       q    Type
REMARK                         _______ _______ _______ _____ _____    ______ ____
ROOT
ATOM      1  C   LIG    1        6.474  -0.387  -0.640  0.00  0.00    +0.063 C 
ATOM      2  C   LIG    1        7.178  -1.699  -0.272  0.00  0.00    -0.030 A 
ATOM      3  C   LIG    1        6.979  -2.910  -0.990  0.00  0.00    -0.020 A 
ATOM      4  C   LIG    1        7.697  -4.060  -0.587  0.00  0.00    +0.089 A 
ATOM      5  C   LIG    1        8.570  -4.005   0.505  0.00  0.00    +0.177 A 
ATOM      6  C   LIG    1        8.741  -2.822   1.205  0.00  0.00    +0.160 A 
ATOM      7 CL   LIG    1        7.556  -5.580  -1.410  0.00  0.00    -0.079 Cl
ATOM      8  C   LIG    1        5.997  -2.948  -2.145  0.00  0.00    +0.052 C 
ATOM      9  C   LIG    1        6.415  -2.072  -3.328  0.00  0.00    +0.085 C 
ATOM     10  N   LIG    1        6.062  -0.660  -3.180  0.00  0.00    -0.315 NA
ATOM     11  H   LIG    1        6.257  -0.184  -4.061  0.00  0.00    +0.122 HD
ATOM     12  C   LIG    1        8.059  -1.678   0.830  0.00  0.00    +0.053 A 
ATOM     13  C   LIG    1        6.812   0.010  -2.111  0.00  0.00    +0.093 C 
ENDROOT
BRANCH   1  17
ATOM     14  C   LIG    1        2.332   0.048   0.623  0.00  0.00    +0.117 A 
ATOM     15  C   LIG    1        2.893   0.964  -0.254  0.00  0.00    +0.045 A 
ATOM     16  C   LIG    1        4.218   0.807  -0.669  0.00  0.00    +0.008 A 
ATOM     17  C   LIG    1        5.002  -0.272  -0.221  0.00  0.00    -0.038 A 
ATOM     18  C   LIG    1        4.409  -1.169   0.690  0.00  0.00    +0.008 A 
ATOM     19  C   LIG    1        3.080  -1.018   1.100  0.00  0.00    +0.045 A 
BRANCH  14  20
ATOM     20  O   LIG    1        1.037   0.238   1.001  0.00  0.00    -0.507 OA
ATOM     21  H   LIG    1        0.784  -0.483   1.600  0.00  0.00    +0.292 HD
ENDBRANCH  14  20
ENDBRANCH   1  17
BRANCH   6  22
ATOM     22  O   LIG    1        9.589  -2.771   2.273  0.00  0.00    -0.503 OA
ATOM     23  H   LIG    1        9.951  -3.676   2.349  0.00  0.00    +0.292 HD
ENDBRANCH   6  22
BRANCH   5  24
ATOM     24  O   LIG    1        9.289  -5.093   0.936  0.00  0.00    -0.502 OA
ATOM     25  H   LIG    1        9.055  -5.833   0.343  0.00  0.00    +0.292 HD
ENDBRANCH   5  24
TORSDOF 4
