REMARK  Name = *****
REMARK                            x       y       z     vdW  Elec       q    Type
REMARK                         _______ _______ _______ _____ _____    ______ ____
ROOT
ATOM      1  N   LIG    1        2.877   0.833   0.610  0.00  0.00    -0.140 N 
ATOM      2  C   LIG    1        4.258   0.909   0.829  0.00  0.00    +0.324 C 
ATOM      3  N   LIG    1        4.666   1.774   1.825  0.00  0.00    -0.297 N 
ATOM      4  H   LIG    1        4.017   2.494   2.115  0.00  0.00    +0.150 HD
ATOM      5  O   LIG    1        5.076   0.268   0.179  0.00  0.00    -0.251 OA
ENDROOT
BRANCH   1   7
ATOM      6  O   LIG    1        0.804   1.380   1.189  0.00  0.00    -0.126 OA
ATOM      7  N   LIG    1        2.000   1.531   1.452  0.00  0.00    +0.053 NA
ENDBRANCH   1   7
BRANCH   3   8
ATOM      8  C   LIG    1        6.074   2.064   2.041  0.00  0.00    +0.121 C 
BRANCH   8   9
ATOM      9  C   LIG    1        6.575   3.228   1.189  0.00  0.00    +0.127 C 
ATOM     10 CL   LIG    1        5.659   4.719   1.549  0.00  0.00    -0.124 Cl
ENDBRANCH   8   9
ENDBRANCH   3   8
BRANCH   1  11
ATOM     11  C   LIG    1        2.377  -0.015  -0.478  0.00  0.00    +0.155 C 
BRANCH  11  12
ATOM     12  C   LIG    1        2.919   0.429  -1.836  0.00  0.00    +0.130 C 
ATOM     13 CL   LIG    1        2.249  -0.566  -3.150  0.00  0.00    -0.124 Cl
ENDBRANCH  11  12
ENDBRANCH   1  11
TORSDOF 5
