REMARK  Name = *****
REMARK                            x       y       z     vdW  Elec       q    Type
REMARK                         _______ _______ _______ _____ _____    ______ ____
ROOT
ATOM      1  C   LIG    1       16.538   1.385   9.778  0.00  0.00    +0.140 C 
ENDROOT
BRANCH   1   3
ATOM      2  C   LIG    1       16.930   3.174   8.023  0.00  0.00    +0.238 C 
ATOM      3  N   LIG    1       17.198   1.930   8.581  0.00  0.00    -0.184 N 
ATOM      4  O   LIG    1       16.480   4.103   8.660  0.00  0.00    -0.274 OA
BRANCH   3   5
ATOM      5  O   LIG    1       18.028   1.034   7.888  0.00  0.00    -0.292 OA
ATOM      6  H   LIG    1       18.914   1.409   8.068  0.00  0.00    +0.242 HD
ENDBRANCH   3   5
BRANCH   2   7
ATOM      7  C   LIG    1       17.065   3.211   6.494  0.00  0.00    +0.107 C 
BRANCH   7   8
ATOM      8  C   LIG    1       17.398   4.582   5.957  0.00  0.00    +0.105 C 
BRANCH   8  11
ATOM      9  N   LIG    1       17.096   3.917   3.490  0.00  0.00    -0.315 N 
ATOM     10  H   LIG    1       17.137   4.386   2.591  0.00  0.00    +0.149 HD
ATOM     11  C   LIG    1       17.354   4.828   4.456  0.00  0.00    +0.213 C 
ATOM     12  O   LIG    1       17.592   5.969   4.050  0.00  0.00    -0.276 OA
BRANCH   9  13
ATOM     13  C   LIG    1       16.806   2.491   3.443  0.00  0.00    +0.104 C 
BRANCH  13  14
ATOM     14  C   LIG    1       16.627   1.997   1.992  0.00  0.00    +0.019 C 
BRANCH  14  15
ATOM     15  C   LIG    1       17.867   2.127   1.081  0.00  0.00    +0.003 C 
BRANCH  15  16
ATOM     16  C   LIG    1       19.077   1.304   1.534  0.00  0.00    +0.021 C 
BRANCH  16  17
ATOM     17  C   LIG    1       20.366   1.568   0.735  0.00  0.00    +0.140 C 
BRANCH  17  20
ATOM     18  C   LIG    1       21.043   3.199   3.139  0.00  0.00    +0.111 C 
ATOM     19  C   LIG    1       21.107   3.809   1.760  0.00  0.00    +0.235 C 
ATOM     20  N   LIG    1       20.830   2.949   0.715  0.00  0.00    -0.184 N 
ATOM     21  O   LIG    1       21.399   4.986   1.611  0.00  0.00    -0.274 OA
BRANCH  20  22
ATOM     22  O   LIG    1       20.705   3.538  -0.563  0.00  0.00    -0.292 OA
ATOM     23  H   LIG    1       21.621   3.502  -0.901  0.00  0.00    +0.242 HD
ENDBRANCH  20  22
ENDBRANCH  17  20
ENDBRANCH  16  17
ENDBRANCH  15  16
ENDBRANCH  14  15
ENDBRANCH  13  14
ENDBRANCH   9  13
ENDBRANCH   8  11
ENDBRANCH   7   8
ENDBRANCH   2   7
ENDBRANCH   1   3
BRANCH   1  24
ATOM     24  C   LIG    1       16.414  -0.162   9.806  0.00  0.00    +0.021 C 
BRANCH  24  25
ATOM     25  C   LIG    1       15.490  -0.649  10.941  0.00  0.00    +0.003 C 
BRANCH  25  26
ATOM     26  C   LIG    1       15.400  -2.176  11.151  0.00  0.00    +0.019 C 
BRANCH  26  27
ATOM     27  C   LIG    1       14.889  -3.228  10.188  0.00  0.00    +0.104 C 
BRANCH  27  28
ATOM     28  N   LIG    1       14.604  -4.651  10.518  0.00  0.00    -0.315 N 
ATOM     29  H   LIG    1       14.166  -5.131   9.819  0.00  0.00    +0.149 HD
ATOM     30  C   LIG    1       15.051  -5.701  11.284  0.00  0.00    +0.213 C 
ATOM     31  O   LIG    1       14.709  -6.783  11.005  0.00  0.00    -0.276 OA
BRANCH  30  32
ATOM     32  C   LIG    1       15.908  -5.522  12.535  0.00  0.00    +0.105 C 
BRANCH  32  33
ATOM     33  C   LIG    1       16.709  -4.261  12.502  0.00  0.00    +0.107 C 
BRANCH  33  34
ATOM     34  C   LIG    1       17.037  -2.753  13.021  0.00  0.00    +0.238 C 
ATOM     35  N   LIG    1       16.406  -2.438  14.240  0.00  0.00    -0.184 N 
ATOM     36  O   LIG    1       17.919  -1.997  12.533  0.00  0.00    -0.274 OA
BRANCH  35  37
ATOM     37  O   LIG    1       15.590  -3.433  14.888  0.00  0.00    -0.292 OA
ATOM     38  H   LIG    1       14.982  -3.675  14.177  0.00  0.00    +0.242 HD
ENDBRANCH  35  37
BRANCH  35  39
ATOM     39  C   LIG    1       17.175  -1.684  15.242  0.00  0.00    +0.140 C 
BRANCH  39  40
ATOM     40  C   LIG    1       17.835  -2.522  16.340  0.00  0.00    +0.021 C 
BRANCH  40  41
ATOM     41  C   LIG    1       19.111  -3.379  16.075  0.00  0.00    +0.003 C 
BRANCH  41  42
ATOM     42  C   LIG    1       19.066  -4.707  15.306  0.00  0.00    +0.015 C 
BRANCH  42  43
ATOM     43  C   LIG    1       19.154  -4.465  13.839  0.00  0.00    +0.077 C 
BRANCH  43  44
ATOM     44  N   LIG    1       19.097  -5.711  13.095  0.00  0.00    -0.330 NA
ATOM     45  H   LIG    1       18.340  -6.304  13.444  0.00  0.00    +0.118 HD
ATOM     46  H   LIG    1       18.917  -5.572  12.100  0.00  0.00    +0.118 HD
ENDBRANCH  43  44
ENDBRANCH  42  43
ENDBRANCH  41  42
ENDBRANCH  40  41
ENDBRANCH  39  40
ENDBRANCH  35  39
ENDBRANCH  33  34
ENDBRANCH  32  33
ENDBRANCH  30  32
ENDBRANCH  27  28
ENDBRANCH  26  27
ENDBRANCH  25  26
ENDBRANCH  24  25
ENDBRANCH   1  24
TORSDOF 27
