REMARK  Name = *****
REMARK                            x       y       z     vdW  Elec       q    Type
REMARK                         _______ _______ _______ _____ _____    ______ ____
ROOT
ATOM      1  C   LIG    1        5.492  -3.866  -2.248  0.00  0.00    +0.173 C 
ENDROOT
BRANCH   1   2
ATOM      2  O   LIG    1        6.000  -5.010  -2.959  0.00  0.00    -0.387 OA
ATOM      3  H   LIG    1        6.960  -4.894  -3.098  0.00  0.00    +0.210 HD
ENDBRANCH   1   2
BRANCH   1   4
ATOM      4  CA  LIG    1        4.230  -4.325  -1.456  0.00  0.00    +0.167 C 
BRANCH   4   7
ATOM      5  C   LIG    1        4.344  -7.587   0.510  0.00  0.00    +0.109 C 
ATOM      6  C   LIG    1        3.926  -6.639  -0.590  0.00  0.00    +0.210 C 
ATOM      7  N   LIG    1        4.482  -5.384  -0.479  0.00  0.00    -0.304 N 
ATOM      8  H   LIG    1        4.897  -5.094   0.401  0.00  0.00    +0.149 HD
ATOM      9  O   LIG    1        3.193  -6.985  -1.495  0.00  0.00    -0.276 OA
ENDBRANCH   4   7
BRANCH   4  10
ATOM     10  C   LIG    1        3.552  -3.174  -0.728  0.00  0.00    +0.248 C 
ATOM     11  O   LIG    1        3.785  -2.864   0.439  0.00  0.00    -0.299 OA
ENDBRANCH   4  10
ENDBRANCH   1   4
BRANCH   1  12
ATOM     12  C   LIG    1        6.608  -3.168  -1.405  0.00  0.00    +0.176 C 
BRANCH  12  13
ATOM     13  O   LIG    1        7.180  -4.095  -0.473  0.00  0.00    -0.387 OA
ATOM     14  H   LIG    1        7.661  -4.761  -1.002  0.00  0.00    +0.210 HD
ENDBRANCH  12  13
BRANCH  12  15
ATOM     15  C   LIG    1        7.748  -2.533  -2.251  0.00  0.00    +0.171 C 
BRANCH  15  16
ATOM     16  O   LIG    1        8.450  -3.554  -2.983  0.00  0.00    -0.387 OA
ATOM     17  H   LIG    1        9.263  -3.102  -3.305  0.00  0.00    +0.210 HD
ENDBRANCH  15  16
BRANCH  15  18
ATOM     18  C   LIG    1        8.782  -1.773  -1.392  0.00  0.00    +0.190 C 
BRANCH  18  19
ATOM     19  O   LIG    1        9.736  -1.147  -2.261  0.00  0.00    -0.392 OA
ATOM     20  H   LIG    1       10.329  -0.620  -1.692  0.00  0.00    +0.209 HD
ENDBRANCH  18  19
ENDBRANCH  15  18
ENDBRANCH  12  15
ENDBRANCH   1  12
TORSDOF 10
