REMARK  Name = *****
REMARK                            x       y       z     vdW  Elec       q    Type
REMARK                         _______ _______ _______ _____ _____    ______ ____
ROOT
ATOM      1  C   LIG    1        4.084   0.147   0.301  0.00  0.00    +0.053 C 
ENDROOT
BRANCH   1   2
ATOM      2  C   LIG    1        5.563  -0.144   0.173  0.00  0.00    -0.046 A 
ATOM      3  C   LIG    1        6.474   0.417   1.081  0.00  0.00    +0.003 A 
ATOM      4  C   LIG    1        7.843   0.167   0.960  0.00  0.00    +0.000 A 
ATOM      5  C   LIG    1        8.317  -0.646  -0.064  0.00  0.00    +0.000 A 
ATOM      6  C   LIG    1        7.423  -1.202  -0.979  0.00  0.00    +0.000 A 
ATOM      7  C   LIG    1        6.054  -0.948  -0.863  0.00  0.00    +0.003 A 
ENDBRANCH   1   2
BRANCH   1   9
ATOM      8  C   LIG    1        3.526  -1.691   2.001  0.00  0.00    +0.024 C 
ATOM      9  C   LIG    1        3.202  -1.076   0.639  0.00  0.00    +0.052 C 
BRANCH   9  10
ATOM     10  N   LIG    1        1.785  -0.674   0.624  0.00  0.00    -0.327 NA
ATOM     11  H   LIG    1        1.205  -1.464   0.905  0.00  0.00    +0.118 HD
ATOM     12  H   LIG    1        1.626   0.050   1.324  0.00  0.00    +0.118 HD
ENDBRANCH   9  10
ENDBRANCH   1   9
TORSDOF 3
