REMARK  Name = *****
REMARK                            x       y       z     vdW  Elec       q    Type
REMARK                         _______ _______ _______ _____ _____    ______ ____
ROOT
ATOM      1  C   LIG    1        8.678   2.296   3.281  0.00  0.00    +0.016 C 
ENDROOT
BRANCH   1   2
ATOM      2  C   LIG    1        8.330   1.583   1.968  0.00  0.00    +0.081 C 
BRANCH   2   3
ATOM      3  N   LIG    1        8.209   0.114   2.062  0.00  0.00    -0.316 NA
ATOM      4  H   LIG    1        7.761  -0.209   1.206  0.00  0.00    +0.122 HD
BRANCH   3   5
ATOM      5  C   LIG    1        9.468  -0.639   2.212  0.00  0.00    +0.082 C 
BRANCH   5   6
ATOM      6  C   LIG    1       10.134  -0.496   3.575  0.00  0.00    +0.030 C 
BRANCH   6   7
ATOM      7  C   LIG    1       11.407  -1.298   3.748  0.00  0.00    +0.079 C 
BRANCH   7   8
ATOM      8  N   LIG    1       11.984  -0.993   5.059  0.00  0.00    -0.330 NA
ATOM      9  H   LIG    1       12.107   0.016   5.175  0.00  0.00    +0.118 HD
ATOM     10  H   LIG    1       12.914  -1.399   5.120  0.00  0.00    +0.118 HD
ENDBRANCH   7   8
ENDBRANCH   6   7
ENDBRANCH   5   6
ENDBRANCH   3   5
ENDBRANCH   2   3
ENDBRANCH   1   2
BRANCH   1  11
ATOM     11  C   LIG    1        8.672   3.826   3.260  0.00  0.00    +0.016 C 
BRANCH  11  12
ATOM     12  C   LIG    1        9.686   4.419   2.270  0.00  0.00    +0.081 C 
BRANCH  12  13
ATOM     13  N   LIG    1        9.673   5.884   2.346  0.00  0.00    -0.316 NA
ATOM     14  H   LIG    1        9.948   6.173   3.286  0.00  0.00    +0.122 HD
BRANCH  13  15
ATOM     15  C   LIG    1       10.598   6.477   1.366  0.00  0.00    +0.082 C 
BRANCH  15  16
ATOM     16  C   LIG    1       10.570   8.007   1.470  0.00  0.00    +0.030 C 
BRANCH  16  17
ATOM     17  C   LIG    1       11.508   8.714   0.484  0.00  0.00    +0.079 C 
BRANCH  17  18
ATOM     18  N   LIG    1       12.909   8.357   0.675  0.00  0.00    -0.330 NA
ATOM     19  H   LIG    1       13.157   8.431   1.662  0.00  0.00    +0.118 HD
ATOM     20  H   LIG    1       13.498   9.034   0.189  0.00  0.00    +0.118 HD
ENDBRANCH  17  18
ENDBRANCH  16  17
ENDBRANCH  15  16
ENDBRANCH  13  15
ENDBRANCH  12  13
ENDBRANCH  11  12
ENDBRANCH   1  11
TORSDOF 13
