REMARK  Name = *****
REMARK                            x       y       z     vdW  Elec       q    Type
REMARK                         _______ _______ _______ _____ _____    ______ ____
ROOT
ATOM      1  C   LIG    1        2.832  -0.114  -5.075  0.00  0.00    +0.058 C 
ATOM      2  C   LIG    1        1.450  -0.600  -4.608  0.00  0.00    +0.081 C 
ATOM      3  C   LIG    1        0.359   0.321  -5.199  0.00  0.00    +0.100 C 
ATOM      4  C   LIG    1       -1.141  -0.016  -4.908  0.00  0.00    +0.094 C 
ATOM      5  N   LIG    1       -1.412  -1.418  -5.298  0.00  0.00    -0.296 NA
ATOM      6  C   LIG    1       -1.345  -1.572  -6.757  0.00  0.00    +0.086 C 
ATOM      7  C   LIG    1       -0.014  -1.060  -7.327  0.00  0.00    +0.034 C 
ATOM      8  C   LIG    1       -2.102   1.068  -5.595  0.00  0.00    +0.057 C 
ATOM      9  C   LIG    1       -1.483   1.874  -6.726  0.00  0.00    -0.038 A 
ATOM     10  C   LIG    1       -1.969   3.112  -7.156  0.00  0.00    +0.008 A 
ATOM     11  C   LIG    1       -1.176   3.945  -7.976  0.00  0.00    +0.049 A 
ATOM     12  C   LIG    1        0.123   3.564  -8.325  0.00  0.00    +0.159 A 
ATOM     13  C   LIG    1        0.577   2.328  -7.917  0.00  0.00    +0.167 A 
ATOM     14  O   LIG    1        1.882   1.903  -7.956  0.00  0.00    -0.476 OA
ATOM     15  C   LIG    1        1.881   0.606  -7.292  0.00  0.00    +0.252 C 
ATOM     16  C   LIG    1       -0.252   1.474  -7.219  0.00  0.00    +0.014 A 
ATOM     17  C   LIG    1        0.487   0.286  -6.737  0.00  0.00    +0.075 C 
ATOM     18  C   LIG    1        2.978   0.545  -6.250  0.00  0.00    +0.143 C 
ENDROOT
BRANCH   1  21
ATOM     19  N   LIG    1        5.214  -0.223  -4.624  0.00  0.00    -0.298 N 
ATOM     20  H   LIG    1        5.295   0.090  -5.593  0.00  0.00    +0.150 HD
ATOM     21  C   LIG    1        3.955  -0.317  -4.105  0.00  0.00    +0.244 C 
ATOM     22  O   LIG    1        3.721  -0.627  -2.933  0.00  0.00    -0.270 OA
BRANCH  19  24
ATOM     23  C   LIG    1        6.570   0.454  -2.656  0.00  0.00    +0.041 C 
ATOM     24  C   LIG    1        6.473  -0.449  -3.898  0.00  0.00    +0.108 C 
ATOM     25  C   LIG    1        6.580  -1.919  -3.450  0.00  0.00    +0.041 C 
BRANCH  24  26
ATOM     26  C   LIG    1        7.610  -0.125  -4.857  0.00  0.00    +0.251 A 
ATOM     27  O   LIG    1        8.880  -0.302  -4.387  0.00  0.00    -0.335 OA
ATOM     28  N   LIG    1        9.743  -0.011  -5.438  0.00  0.00    -0.056 NA
ATOM     29  C   LIG    1        8.926   0.320  -6.452  0.00  0.00    +0.202 A 
ATOM     30  N   LIG    1        7.584   0.282  -6.115  0.00  0.00    -0.190 NA
BRANCH  29  31
ATOM     31  C   LIG    1        9.414   0.648  -7.793  0.00  0.00    +0.022 A 
ATOM     32  C   LIG    1       10.649   0.144  -8.240  0.00  0.00    +0.012 A 
ATOM     33  C   LIG    1       11.137   0.455  -9.514  0.00  0.00    +0.001 A 
ATOM     34  C   LIG    1       10.399   1.278 -10.360  0.00  0.00    +0.000 A 
ATOM     35  C   LIG    1        9.169   1.781  -9.935  0.00  0.00    +0.001 A 
ATOM     36  C   LIG    1        8.676   1.465  -8.661  0.00  0.00    +0.012 A 
ENDBRANCH  29  31
ENDBRANCH  24  26
ENDBRANCH  19  24
ENDBRANCH   1  21
BRANCH  12  37
ATOM     37  O   LIG    1        0.959   4.407  -8.993  0.00  0.00    -0.503 OA
ATOM     38  H   LIG    1        0.523   5.269  -9.085  0.00  0.00    +0.292 HD
ENDBRANCH  12  37
BRANCH   3  39
ATOM     39  O   LIG    1        0.568   1.626  -4.596  0.00  0.00    -0.386 OA
ATOM     40  H   LIG    1        1.399   2.013  -4.918  0.00  0.00    +0.210 HD
ENDBRANCH   3  39
BRANCH  18  41
ATOM     41  O   LIG    1        4.125   1.249  -6.572  0.00  0.00    -0.507 OA
ATOM     42  H   LIG    1        3.857   1.927  -7.233  0.00  0.00    +0.292 HD
ENDBRANCH  18  41
BRANCH   5  43
ATOM     43  C   LIG    1       -2.671  -1.958  -4.762  0.00  0.00    +0.088 C 
BRANCH  43  44
ATOM     44  C   LIG    1       -2.730  -1.952  -3.257  0.00  0.00    +0.003 C 
ATOM     45  C   LIG    1       -3.263  -3.162  -2.522  0.00  0.00    +0.005 C 
ATOM     46  C   LIG    1       -1.816  -2.783  -2.387  0.00  0.00    +0.005 C 
ENDBRANCH  43  44
ENDBRANCH   5  43
TORSDOF 9
