REMARK  Name = *****
REMARK                            x       y       z     vdW  Elec       q    Type
REMARK                         _______ _______ _______ _____ _____    ______ ____
ROOT
ATOM      1  C   LIG    1        2.417  -0.059  -0.068  0.00  0.00    +0.028 A 
ATOM      2  C   LIG    1        3.102  -1.277  -0.090  0.00  0.00    +0.069 A 
ATOM      3  C   LIG    1        4.480  -1.312  -0.304  0.00  0.00    +0.133 A 
ATOM      4  C   LIG    1        5.210  -0.124  -0.422  0.00  0.00    +0.100 A 
ATOM      5  C   LIG    1        4.535   1.102  -0.369  0.00  0.00    +0.020 A 
ATOM      6  C   LIG    1        3.151   1.127  -0.166  0.00  0.00    +0.024 A 
ENDROOT
BRANCH   1   7
ATOM      7  N   LIG    1        1.060  -0.019   0.270  0.00  0.00    -0.358 N 
ATOM      8  H   LIG    1        0.554  -0.869   0.037  0.00  0.00    +0.142 HD
ATOM      9  H   LIG    1        0.575   0.813  -0.051  0.00  0.00    +0.142 HD
ENDBRANCH   1   7
BRANCH   3  10
ATOM     10  O   LIG    1        5.055  -2.554  -0.378  0.00  0.00    -0.506 OA
ATOM     11  H   LIG    1        5.970  -2.458  -0.724  0.00  0.00    +0.292 HD
ENDBRANCH   3  10
BRANCH   4  12
ATOM     12  C   LIG    1        6.675  -0.194  -0.611  0.00  0.00    +0.340 C 
ATOM     13  O   LIG    1        7.204  -1.148  -1.161  0.00  0.00    -0.245 OA
BRANCH  12  14
ATOM     14  O   LIG    1        7.367   0.825  -0.062  0.00  0.00    -0.477 OA
ATOM     15  H   LIG    1        6.856   1.389   0.548  0.00  0.00    +0.295 HD
ENDBRANCH  12  14
ENDBRANCH   4  12
TORSDOF 4
