REMARK  Name = *****
REMARK                            x       y       z     vdW  Elec       q    Type
REMARK                         _______ _______ _______ _____ _____    ______ ____
ROOT
ATOM      1  C   LIG    1        3.870  -0.858  -0.537  0.00  0.00    +0.121 A 
ATOM      2  C   LIG    1        2.896  -1.735  -0.047  0.00  0.00    +0.056 A 
ATOM      3  C   LIG    1        3.266  -3.008   0.450  0.00  0.00    +0.008 A 
ATOM      4  C   LIG    1        2.525  -4.146   0.888  0.00  0.00    -0.008 C 
ATOM      5  C   LIG    1        3.450  -5.135   1.211  0.00  0.00    +0.028 C 
ATOM      6  N   LIG    1        4.739  -4.585   1.137  0.00  0.00    -0.280 N 
ATOM      7  C   LIG    1        5.947  -5.184   1.604  0.00  0.00    +0.263 C 
ATOM      8  O   LIG    1        5.970  -6.413   1.683  0.00  0.00    -0.267 OA
ATOM      9  C   LIG    1        3.176  -6.533   1.676  0.00  0.00    +0.064 C 
ATOM     10  C   LIG    1        4.619  -3.354   0.486  0.00  0.00    +0.057 A 
ATOM     11  C   LIG    1        5.585  -2.530  -0.112  0.00  0.00    +0.030 A 
ATOM     12  C   LIG    1        5.197  -1.271  -0.585  0.00  0.00    +0.048 A 
ENDROOT
BRANCH   7  13
ATOM     13  C   LIG    1        7.189  -4.483   2.062  0.00  0.00    +0.040 A 
ATOM     14  C   LIG    1        7.155  -3.278   2.776  0.00  0.00    +0.015 A 
ATOM     15  C   LIG    1        8.341  -2.732   3.297  0.00  0.00    +0.021 A 
ATOM     16  C   LIG    1        9.556  -3.399   3.134  0.00  0.00    +0.041 A 
ATOM     17 CL   LIG    1       11.000  -2.737   3.796  0.00  0.00    -0.084 Cl
ATOM     18  C   LIG    1        9.601  -4.608   2.447  0.00  0.00    +0.021 A 
ATOM     19  C   LIG    1        8.422  -5.145   1.913  0.00  0.00    +0.015 A 
ENDBRANCH   7  13
BRANCH   1  21
ATOM     20  C   LIG    1        4.365   1.240  -1.533  0.00  0.00    +0.277 C 
ATOM     21  O   LIG    1        3.401   0.354  -0.973  0.00  0.00    -0.495 OA
ENDBRANCH   1  21
BRANCH   4  22
ATOM     22  C   LIG    1        1.026  -4.258   0.872  0.00  0.00    +0.158 C 
BRANCH  22  23
ATOM     23  C   LIG    1        0.450  -5.108   1.984  0.00  0.00    +0.312 C 
ATOM     24  O   LIG    1        0.797  -5.105   3.156  0.00  0.00    -0.251 OA
BRANCH  23  25
ATOM     25  O   LIG    1       -0.582  -5.863   1.508  0.00  0.00    -0.453 OA
BRANCH  25  26
ATOM     26  C   LIG    1       -1.264  -6.600   2.517  0.00  0.00    +0.352 C 
BRANCH  26  27
ATOM     27  C   LIG    1       -0.494  -7.754   3.127  0.00  0.00    +0.343 C 
ATOM     28  O   LIG    1       -0.555  -8.918   2.697  0.00  0.00    -0.247 OA
BRANCH  27  29
ATOM     29  O   LIG    1        0.277  -7.428   4.187  0.00  0.00    -0.478 OA
ATOM     30  H   LIG    1        0.391  -6.448   4.267  0.00  0.00    +0.295 HD
ENDBRANCH  27  29
ENDBRANCH  26  27
ENDBRANCH  25  26
ENDBRANCH  23  25
ENDBRANCH  22  23
ENDBRANCH   4  22
TORSDOF 8
