REMARK  Name = *****
REMARK                            x       y       z     vdW  Elec       q    Type
REMARK                         _______ _______ _______ _____ _____    ______ ____
ROOT
ATOM      1  C   LIG    1        2.644   2.086  -1.427  0.00  0.00    +0.247 A 
ATOM      2  C   LIG    1        2.214   3.191  -0.685  0.00  0.00    +0.169 A 
ATOM      3  N   LIG    1        0.977   3.760  -0.459  0.00  0.00    -0.229 NA
ATOM      4  C   LIG    1        1.210   4.764   0.356  0.00  0.00    +0.204 A 
ATOM      5  N   LIG    1        2.539   4.884   0.655  0.00  0.00    -0.285 N 
ATOM      6  C   LIG    1        3.200   3.877   0.006  0.00  0.00    +0.171 A 
ATOM      7  N   LIG    1        4.512   3.593   0.043  0.00  0.00    -0.195 NA
ATOM      8  C   LIG    1        4.818   2.530  -0.717  0.00  0.00    +0.218 A 
ATOM      9  N   LIG    1        3.966   1.766  -1.421  0.00  0.00    -0.178 NA
ENDROOT
BRANCH   5  10
ATOM     10  C1* LIG    1        3.136   5.853   1.542  0.00  0.00    +0.253 C 
ATOM     11  C2* LIG    1        3.641   7.144   0.886  0.00  0.00    +0.195 C 
ATOM     12  C3* LIG    1        3.463   8.148   2.019  0.00  0.00    +0.178 C 
ATOM     13  C4* LIG    1        2.228   7.645   2.772  0.00  0.00    +0.177 C 
ATOM     14  O4* LIG    1        2.181   6.215   2.573  0.00  0.00    -0.346 OA
BRANCH  11  15
ATOM     15  O2* LIG    1        2.906   7.551  -0.271  0.00  0.00    -0.385 OA
ATOM     16  H2* LIG    1        1.979   7.736  -0.004  0.00  0.00    +0.210 HD
ENDBRANCH  11  15
BRANCH  12  17
ATOM     17  O3* LIG    1        4.606   8.109   2.887  0.00  0.00    -0.386 OA
ATOM     18  H3* LIG    1        4.555   7.322   3.459  0.00  0.00    +0.210 HD
ENDBRANCH  12  17
BRANCH  13  19
ATOM     19  C5* LIG    1        0.896   8.258   2.318  0.00  0.00    +0.190 C 
BRANCH  19  20
ATOM     20  O5* LIG    1        0.655   8.028   0.931  0.00  0.00    -0.392 OA
ATOM     21  H5* LIG    1       -0.290   8.221   0.774  0.00  0.00    +0.209 HD
ENDBRANCH  19  20
ENDBRANCH  13  19
ENDBRANCH   5  10
BRANCH   8  22
ATOM     22  N   LIG    1        6.143   2.132  -0.733  0.00  0.00    -0.327 N 
ATOM     23  H   LIG    1        6.605   2.422   0.116  0.00  0.00    +0.145 HD
ATOM     24  H   LIG    1        6.194   1.153  -0.978  0.00  0.00    +0.145 HD
ENDBRANCH   8  22
BRANCH   1  26
ATOM     25  C   LIG    1        0.471   1.577  -2.190  0.00  0.00    +0.279 C 
ATOM     26  O   LIG    1        1.851   1.230  -2.173  0.00  0.00    -0.478 OA
ENDBRANCH   1  26
TORSDOF 7
