REMARK  Name = *****
REMARK                            x       y       z     vdW  Elec       q    Type
REMARK                         _______ _______ _______ _____ _____    ______ ____
ROOT
ATOM      1  C   LIG    1        1.409   2.936  -4.611  0.00  0.00    +0.015 C 
ATOM      2  C   LIG    1        1.683   4.410  -4.938  0.00  0.00    +0.009 C 
ATOM      3  C   LIG    1        2.864   4.546  -5.963  0.00  0.00    +0.130 C 
ATOM      4  C   LIG    1        3.266   6.027  -5.837  0.00  0.00    +0.043 C 
ATOM      5  C   LIG    1        2.885   6.440  -4.402  0.00  0.00    +0.007 C 
ATOM      6  C   LIG    1        2.273   5.186  -3.738  0.00  0.00    +0.002 C 
ATOM      7  C   LIG    1        1.306   5.496  -2.575  0.00  0.00    -0.001 C 
ATOM      8  C   LIG    1        1.226   4.311  -1.577  0.00  0.00    +0.008 C 
ATOM      9  C   LIG    1       -0.152   3.786  -1.163  0.00  0.00    +0.032 C 
ATOM     10  C   LIG    1       -1.334   4.706  -1.335  0.00  0.00    -0.060 C 
ATOM     11  C   LIG    1       -1.065   6.138  -1.770  0.00  0.00    -0.005 C 
ATOM     12  C   LIG    1       -0.414   6.902  -0.576  0.00  0.00    +0.016 C 
ATOM     13  C   LIG    1       -2.375   6.941  -2.069  0.00  0.00    +0.019 C 
ATOM     14  C   LIG    1       -3.602   6.128  -2.458  0.00  0.00    +0.080 C 
ATOM     15  C   LIG    1       -3.776   4.945  -1.552  0.00  0.00    +0.156 C 
ATOM     16  O   LIG    1       -4.884   4.525  -1.207  0.00  0.00    -0.293 OA
ATOM     17  C   LIG    1       -2.566   4.184  -1.189  0.00  0.00    +0.046 C 
ATOM     18  C   LIG    1       -0.065   6.087  -3.001  0.00  0.00    +0.031 C 
ATOM     19  C   LIG    1       -0.635   5.375  -4.256  0.00  0.00    +0.119 C 
ATOM     20  C   LIG    1        0.377   5.111  -5.383  0.00  0.00    +0.042 C 
ENDROOT
BRANCH   3  21
ATOM     21  C   LIG    1        2.517   4.144  -7.421  0.00  0.00    +0.175 C 
ATOM     22  O   LIG    1        1.667   4.748  -8.082  0.00  0.00    -0.293 OA
BRANCH  21  23
ATOM     23  C   LIG    1        3.329   3.029  -8.065  0.00  0.00    +0.142 C 
BRANCH  23  24
ATOM     24  S   LIG    1        4.840   3.731  -8.789  0.00  0.00    -0.171 S 
ATOM     25  H   LIG    1        4.232   4.679  -9.522  0.00  0.00    +0.102 HD
ENDBRANCH  23  24
ENDBRANCH  21  23
ENDBRANCH   3  21
BRANCH   3  26
ATOM     26  O   LIG    1        3.971   3.766  -5.486  0.00  0.00    -0.381 OA
ATOM     27  H   LIG    1        4.752   3.966  -6.036  0.00  0.00    +0.211 HD
ENDBRANCH   3  26
BRANCH  19  28
ATOM     28  O   LIG    1       -1.669   6.178  -4.830  0.00  0.00    -0.392 OA
ATOM     29  H   LIG    1       -1.281   7.027  -5.108  0.00  0.00    +0.210 HD
ENDBRANCH  19  28
TORSDOF 5
