REMARK  Name = *****
REMARK                            x       y       z     vdW  Elec       q    Type
REMARK                         _______ _______ _______ _____ _____    ______ ____
ROOT
ATOM      1  C   LIG    1        0.272  -0.136   3.669  0.00  0.00    +0.114 C 
ENDROOT
BRANCH   1   2
ATOM      2  C   LIG    1       -1.250   0.144   3.461  0.00  0.00    +0.061 A 
ATOM      3  N   LIG    1       -1.585   1.260   2.744  0.00  0.00    -0.259 NA
ATOM      4  C   LIG    1       -2.880   1.512   2.445  0.00  0.00    +0.111 A 
ATOM      5  C   LIG    1       -3.915   0.705   2.852  0.00  0.00    +0.020 A 
ATOM      6  C   LIG    1       -3.598  -0.385   3.654  0.00  0.00    +0.003 A 
ATOM      7  C   LIG    1       -2.261  -0.668   3.975  0.00  0.00    +0.025 A 
ENDBRANCH   1   2
BRANCH   1   8
ATOM      8  C   LIG    1        0.704   0.523   5.047  0.00  0.00    -0.027 A 
ATOM      9  C   LIG    1        0.607  -0.177   6.269  0.00  0.00    +0.005 A 
ATOM     10  C   LIG    1        1.020   0.388   7.484  0.00  0.00    +0.000 A 
ATOM     11  C   LIG    1        1.507   1.688   7.521  0.00  0.00    +0.000 A 
ATOM     12  C   LIG    1        1.577   2.421   6.341  0.00  0.00    +0.000 A 
ATOM     13  C   LIG    1        1.175   1.850   5.121  0.00  0.00    +0.005 A 
ENDBRANCH   1   8
BRANCH   1  14
ATOM     14  C   LIG    1        1.120   0.471   2.486  0.00  0.00    +0.227 C 
ATOM     15  O   LIG    1        2.370   0.497   2.520  0.00  0.00    -0.275 OA
ATOM     16  N   LIG    1        0.526   0.921   1.356  0.00  0.00    -0.328 N 
ATOM     17  H   LIG    1       -0.484   1.123   1.392  0.00  0.00    +0.145 HD
ATOM     18  H   LIG    1        1.062   1.448   0.677  0.00  0.00    +0.145 HD
ENDBRANCH   1  14
BRANCH   1  19
ATOM     19  C   LIG    1        0.697  -1.681   3.694  0.00  0.00    +0.042 C 
BRANCH  19  20
ATOM     20  C   LIG    1        0.410  -2.582   2.466  0.00  0.00    +0.086 C 
BRANCH  20  21
ATOM     21  N   LIG    1        0.855  -4.015   2.545  0.00  0.00    -0.297 NA
BRANCH  21  23
ATOM     22  C   LIG    1        2.797  -5.707   2.650  0.00  0.00    +0.024 C 
ATOM     23  C   LIG    1        2.325  -4.244   2.556  0.00  0.00    +0.051 C 
ATOM     24  C   LIG    1        2.990  -3.688   1.277  0.00  0.00    +0.024 C 
ENDBRANCH  21  23
BRANCH  21  25
ATOM     25  C   LIG    1       -0.044  -4.903   3.320  0.00  0.00    +0.051 C 
ATOM     26  C   LIG    1        0.148  -4.944   4.842  0.00  0.00    +0.024 C 
ATOM     27  C   LIG    1       -0.147  -6.341   2.763  0.00  0.00    +0.024 C 
ENDBRANCH  21  25
ENDBRANCH  20  21
ENDBRANCH  19  20
ENDBRANCH   1  19
TORSDOF 8
