REMARK  Name = *****
REMARK                            x       y       z     vdW  Elec       q    Type
REMARK                         _______ _______ _______ _____ _____    ______ ____
ROOT
ATOM      1  O   LIG    1        8.265  -0.062   0.888  0.00  0.00    -0.284 OA
ENDROOT
BRANCH   1   3
ATOM      2  O   LIG    1        9.143   2.289   0.048  0.00  0.00    -0.228 OA
ATOM      3  P   LIG    1        9.247   1.188   1.052  0.00  0.00    +0.472 P 
BRANCH   3   4
ATOM      4  O   LIG    1        9.118   1.647   2.572  0.00  0.00    -0.303 OA
ATOM      5  H   LIG    1        9.815   2.290   2.801  0.00  0.00    +0.222 HD
ENDBRANCH   3   4
BRANCH   3   6
ATOM      6  O   LIG    1       10.689   0.508   1.070  0.00  0.00    -0.303 OA
ATOM      7  H   LIG    1       11.091   0.515   0.182  0.00  0.00    +0.222 HD
ENDBRANCH   3   6
ENDBRANCH   1   3
BRANCH   1   8
ATOM      8  C   LIG    1        6.864   0.185   0.980  0.00  0.00    +0.205 C 
BRANCH   8   9
ATOM      9  C   LIG    1        6.092  -1.124   0.784  0.00  0.00    +0.166 C 
BRANCH   9  10
ATOM     10  O   LIG    1        6.446  -2.068   1.811  0.00  0.00    -0.387 OA
ATOM     11  H   LIG    1        7.396  -1.937   1.996  0.00  0.00    +0.210 HD
ENDBRANCH   9  10
BRANCH   9  12
ATOM     12  C   LIG    1        6.361  -1.782  -0.574  0.00  0.00    +0.189 C 
BRANCH  12  13
ATOM     13  O   LIG    1        5.590  -2.980  -0.687  0.00  0.00    -0.392 OA
ATOM     14  H   LIG    1        5.696  -3.440   0.170  0.00  0.00    +0.209 HD
ENDBRANCH  12  13
ENDBRANCH   9  12
ENDBRANCH   8   9
ENDBRANCH   1   8
TORSDOF 8
