REMARK  Name = *****
REMARK                            x       y       z     vdW  Elec       q    Type
REMARK                         _______ _______ _______ _____ _____    ______ ____
ROOT
ATOM      1  C   LIG    1        3.551  -2.362  -0.120  0.00  0.00    +0.049 C 
ATOM      2  C   LIG    1        4.363  -3.585   0.223  0.00  0.00    +0.264 C 
ATOM      3  O   LIG    1        5.490  -3.396   0.682  0.00  0.00    -0.267 OA
ATOM      4  N   LIG    1        3.741  -4.840  -0.004  0.00  0.00    -0.283 N 
ATOM      5  C   LIG    1        2.379  -4.876  -0.331  0.00  0.00    +0.104 C 
ATOM      6  C   LIG    1        1.610  -3.785  -0.512  0.00  0.00    +0.018 C 
ATOM      7  C   LIG    1        2.258  -2.490  -0.452  0.00  0.00    +0.025 C 
ENDROOT
BRANCH   1   9
ATOM      8  C   LIG    1        4.171  -0.169   0.995  0.00  0.00    +0.060 A 
ATOM      9  C   LIG    1        4.174  -1.020  -0.125  0.00  0.00    +0.005 A 
ATOM     10  C   LIG    1        4.779  -0.573  -1.314  0.00  0.00    +0.010 A 
ATOM     11  C   LIG    1        5.361   0.695  -1.388  0.00  0.00    +0.001 A 
ATOM     12  C   LIG    1        5.339   1.539  -0.282  0.00  0.00    +0.001 A 
ATOM     13  C   LIG    1        4.746   1.110   0.905  0.00  0.00    +0.019 A 
BRANCH   8  15
ATOM     14  N   LIG    1        3.096  -0.835   3.260  0.00  0.00    -0.191 NA
ATOM     15  C   LIG    1        3.584  -0.561   2.245  0.00  0.00    +0.100 C 
ENDBRANCH   8  15
ENDBRANCH   1   9
BRANCH   4  16
ATOM     16  C   LIG    1        4.509  -6.075   0.137  0.00  0.00    +0.050 A 
ATOM     17  C   LIG    1        3.880  -7.324   0.315  0.00  0.00    +0.026 A 
ATOM     18  C   LIG    1        4.612  -8.517   0.417  0.00  0.00    +0.002 A 
ATOM     19  C   LIG    1        5.998  -8.495   0.349  0.00  0.00    +0.000 A 
ATOM     20  C   LIG    1        6.649  -7.281   0.172  0.00  0.00    +0.002 A 
ATOM     21  C   LIG    1        5.913  -6.093   0.061  0.00  0.00    +0.026 A 
ENDBRANCH   4  16
BRANCH   6  22
ATOM     22  C   LIG    1        0.162  -3.976  -0.817  0.00  0.00    +0.072 A 
ATOM     23  N   LIG    1       -0.188  -5.125  -1.450  0.00  0.00    -0.255 NA
ATOM     24  C   LIG    1       -1.499  -5.328  -1.713  0.00  0.00    +0.111 A 
ATOM     25  C   LIG    1       -2.500  -4.436  -1.373  0.00  0.00    +0.020 A 
ATOM     26  C   LIG    1       -2.135  -3.265  -0.724  0.00  0.00    +0.004 A 
ATOM     27  C   LIG    1       -0.790  -3.030  -0.439  0.00  0.00    +0.028 A 
ENDBRANCH   6  22
TORSDOF 4
