REMARK  Name = *****
REMARK                            x       y       z     vdW  Elec       q    Type
REMARK                         _______ _______ _______ _____ _____    ______ ____
ROOT
ATOM      1  C   LIG    1        5.932   1.967  -1.076  0.00  0.00    +0.059 C 
ENDROOT
BRANCH   1   5
ATOM      2  C   LIG    1        4.201   2.948  -5.044  0.00  0.00    +0.121 C 
ATOM      3  O   LIG    1        5.622   2.867  -4.820  0.00  0.00    -0.457 OA
ATOM      4  C   LIG    1        6.097   2.477  -3.597  0.00  0.00    +0.287 C 
ATOM      5  C   LIG    1        5.384   2.337  -2.463  0.00  0.00    +0.082 C 
ATOM      6  C   LIG    1        3.938   2.682  -2.565  0.00  0.00    +0.170 C 
ATOM      7  O   LIG    1        3.155   2.448  -1.647  0.00  0.00    -0.292 OA
ATOM      8  C   LIG    1        3.497   3.452  -3.781  0.00  0.00    +0.127 C 
BRANCH   4   9
ATOM      9  O   LIG    1        7.444   2.211  -3.596  0.00  0.00    -0.480 OA
ATOM     10  H   LIG    1        7.726   2.385  -4.510  0.00  0.00    +0.295 HD
ENDBRANCH   4   9
BRANCH   2  11
ATOM     11  C   LIG    1        3.720   1.544  -5.514  0.00  0.00    +0.048 C 
BRANCH  11  13
ATOM     12  C   LIG    1        1.889   0.011  -6.346  0.00  0.00    +0.004 C 
ATOM     13  C   LIG    1        2.242   1.427  -5.904  0.00  0.00    +0.001 C 
ENDBRANCH  11  13
ENDBRANCH   2  11
BRANCH   2  14
ATOM     14  C   LIG    1        4.014   4.039  -6.144  0.00  0.00    +0.053 C 
BRANCH  14  15
ATOM     15  C   LIG    1        4.684   3.740  -7.493  0.00  0.00    +0.039 C 
BRANCH  15  16
ATOM     16  C   LIG    1        4.493   4.857  -8.496  0.00  0.00    -0.047 A 
ATOM     17  C   LIG    1        5.442   5.885  -8.590  0.00  0.00    +0.003 A 
ATOM     18  C   LIG    1        5.318   6.880  -9.560  0.00  0.00    +0.000 A 
ATOM     19  C   LIG    1        4.229   6.876 -10.429  0.00  0.00    +0.000 A 
ATOM     20  C   LIG    1        3.256   5.885 -10.317  0.00  0.00    +0.000 A 
ATOM     21  C   LIG    1        3.386   4.877  -9.357  0.00  0.00    +0.003 A 
ENDBRANCH  15  16
ENDBRANCH  14  15
ENDBRANCH   2  14
ENDBRANCH   1   5
BRANCH   1  22
ATOM     22  C   LIG    1        5.878   0.455  -0.827  0.00  0.00    -0.038 A 
ATOM     23  C   LIG    1        6.694  -0.446  -1.541  0.00  0.00    +0.028 A 
ATOM     24  C   LIG    1        6.653  -1.820  -1.268  0.00  0.00    +0.048 A 
ATOM     25  C   LIG    1        5.763  -2.320  -0.324  0.00  0.00    +0.024 A 
ATOM     26  C   LIG    1        4.946  -1.445   0.388  0.00  0.00    +0.002 A 
ATOM     27  C   LIG    1        5.004  -0.069   0.143  0.00  0.00    +0.004 A 
BRANCH  24  28
ATOM     28  N   LIG    1        7.513  -2.744  -1.952  0.00  0.00    -0.215 N 
ATOM     29  H   LIG    1        8.408  -2.305  -2.174  0.00  0.00    +0.174 HD
BRANCH  28  30
ATOM     30  S   LIG    1        6.893  -3.391  -3.409  0.00  0.00    +0.090 S 
ATOM     31  O   LIG    1        7.544  -2.663  -4.472  0.00  0.00    -0.148 OA
ATOM     32  O   LIG    1        5.440  -3.494  -3.349  0.00  0.00    -0.148 OA
BRANCH  30  33
ATOM     33  C   LIG    1        7.584  -5.057  -3.403  0.00  0.00    +0.197 A 
ATOM     34  N   LIG    1        6.798  -6.013  -2.838  0.00  0.00    -0.235 NA
ATOM     35  C   LIG    1        7.254  -7.284  -2.900  0.00  0.00    +0.125 A 
ATOM     36  C   LIG    1        8.463  -7.651  -3.482  0.00  0.00    +0.073 A 
ATOM     37  C   LIG    1        9.251  -6.635  -4.040  0.00  0.00    +0.017 A 
ATOM     38  C   LIG    1        8.803  -5.312  -4.014  0.00  0.00    +0.050 A 
BRANCH  36  39
ATOM     39  C   LIG    1        8.867  -9.095  -3.501  0.00  0.00    +0.419 C 
ATOM     40  F   LIG    1        7.971  -9.880  -4.160  0.00  0.00    -0.166 F 
ATOM     41  F   LIG    1        8.978  -9.622  -2.251  0.00  0.00    -0.166 F 
ATOM     42  F   LIG    1       10.068  -9.314  -4.106  0.00  0.00    -0.166 F 
ENDBRANCH  36  39
ENDBRANCH  30  33
ENDBRANCH  28  30
ENDBRANCH  24  28
ENDBRANCH   1  22
BRANCH   1  43
ATOM     43  C   LIG    1        7.345   2.572  -0.799  0.00  0.00    +0.010 C 
ATOM     44  C   LIG    1        7.846   2.435   0.633  0.00  0.00    +0.005 C 
ENDBRANCH   1  43
TORSDOF 13
