REMARK  Name = *****
REMARK                            x       y       z     vdW  Elec       q    Type
REMARK                         _______ _______ _______ _____ _____    ______ ____
ROOT
ATOM      1  O   LIG    1        1.855  -0.371   0.851  0.00  0.00    -0.270 OA
ATOM      2  C   LIG    1        3.008  -0.248   0.482  0.00  0.00    +0.255 C 
ATOM      3  N   LIG    1        3.913  -1.217   0.144  0.00  0.00    -0.222 N 
ATOM      4  C   LIG    1        5.086  -0.672  -0.305  0.00  0.00    +0.255 C 
ATOM      5  O   LIG    1        6.082  -1.236  -0.717  0.00  0.00    -0.270 OA
ATOM      6  C   LIG    1        4.947   0.778  -0.190  0.00  0.00    +0.049 A 
ATOM      7  C   LIG    1        5.839   1.790  -0.482  0.00  0.00    +0.014 A 
ATOM      8  C   LIG    1        5.408   3.103  -0.266  0.00  0.00    +0.001 A 
ATOM      9  C   LIG    1        4.113   3.367   0.227  0.00  0.00    +0.001 A 
ATOM     10  C   LIG    1        3.227   2.323   0.513  0.00  0.00    +0.014 A 
ATOM     11  C   LIG    1        3.678   1.037   0.295  0.00  0.00    +0.049 A 
ENDROOT
BRANCH   3  12
ATOM     12  C   LIG    1        3.623  -2.640   0.065  0.00  0.00    +0.171 C 
ATOM     13  C   LIG    1        2.750  -2.909  -1.165  0.00  0.00    +0.240 C 
ATOM     14  O   LIG    1        2.733  -2.191  -2.163  0.00  0.00    -0.273 OA
ATOM     15  N   LIG    1        2.025  -4.080  -1.138  0.00  0.00    -0.255 N 
ATOM     16  H   LIG    1        1.474  -4.279  -1.962  0.00  0.00    +0.158 HD
ATOM     17  C   LIG    1        1.930  -4.992  -0.115  0.00  0.00    +0.219 C 
ATOM     18  O   LIG    1        1.264  -6.015  -0.240  0.00  0.00    -0.275 OA
ATOM     19  C   LIG    1        2.748  -4.709   1.124  0.00  0.00    +0.098 C 
ATOM     20  C   LIG    1        2.966  -3.215   1.316  0.00  0.00    +0.042 C 
ENDBRANCH   3  12
TORSDOF 1
