REMARK  Name = *****
REMARK                            x       y       z     vdW  Elec       q    Type
REMARK                         _______ _______ _______ _____ _____    ______ ____
ROOT
ATOM      1  C   LIG    1        7.228  -2.898   3.227  0.00  0.00    +0.339 C 
ATOM      2  O   LIG    1        6.774  -2.215   4.117  0.00  0.00    -0.245 OA
ENDROOT
BRANCH   1   3
ATOM      3  C   LIG    1        8.407  -3.798   3.354  0.00  0.00    +0.059 A 
ATOM      4  C   LIG    1        8.847  -4.564   2.274  0.00  0.00    +0.017 A 
ATOM      5  C   LIG    1        9.953  -5.403   2.402  0.00  0.00    +0.024 A 
ATOM      6  C   LIG    1       10.650  -5.512   3.611  0.00  0.00    +0.029 A 
ATOM      7  C   LIG    1       10.196  -4.739   4.694  0.00  0.00    +0.024 A 
ATOM      8  C   LIG    1        9.091  -3.881   4.572  0.00  0.00    +0.017 A 
BRANCH   6   9
ATOM      9  N   LIG    1       11.769  -6.348   3.770  0.00  0.00    -0.336 N 
ATOM     10  C   LIG    1       11.493  -7.529   4.591  0.00  0.00    +0.129 C 
ATOM     11  C   LIG    1       12.577  -6.598   2.576  0.00  0.00    +0.129 C 
ENDBRANCH   6   9
ENDBRANCH   1   3
BRANCH   1  12
ATOM     12  O   LIG    1        6.764  -2.987   1.951  0.00  0.00    -0.461 OA
BRANCH  12  13
ATOM     13  C   LIG    1        5.638  -2.174   1.614  0.00  0.00    +0.236 C 
BRANCH  13  14
ATOM     14  C   LIG    1        4.312  -2.831   2.044  0.00  0.00    +0.026 C 
BRANCH  14  15
ATOM     15  C   LIG    1        4.203  -4.301   1.566  0.00  0.00    +0.003 C 
ATOM     16  C   LIG    1        4.162  -4.523   0.060  0.00  0.00    +0.004 C 
ENDBRANCH  14  15
BRANCH  14  17
ATOM     17  C   LIG    1        3.152  -1.902   1.616  0.00  0.00    +0.007 C 
BRANCH  17  18
ATOM     18  C   LIG    1        1.770  -2.315   2.135  0.00  0.00    +0.000 C 
BRANCH  18  20
ATOM     19  C   LIG    1       -0.683  -1.732   2.278  0.00  0.00    +0.004 C 
ATOM     20  C   LIG    1        0.679  -1.306   1.747  0.00  0.00    -0.003 C 
ENDBRANCH  18  20
ENDBRANCH  17  18
ENDBRANCH  14  17
ENDBRANCH  13  14
ENDBRANCH  12  13
ENDBRANCH   1  12
TORSDOF 9
