REMARK  Name = *****
REMARK                            x       y       z     vdW  Elec       q    Type
REMARK                         _______ _______ _______ _____ _____    ______ ____
ROOT
ATOM      1  S   LIG    1       31.716   5.491   1.389  0.00  0.00    -0.091 S 
ENDROOT
BRANCH   1   2
ATOM      2  S   LIG    1       32.497   5.346   3.302  0.00  0.00    -0.091 S 
BRANCH   2   3
ATOM      3  C   LIG    1       31.100   5.494   4.465  0.00  0.00    +0.100 C 
BRANCH   3   4
ATOM      4  C   LIG    1       31.437   6.359   5.704  0.00  0.00    +0.115 C 
BRANCH   4   5
ATOM      5  N   LIG    1       31.855   7.754   5.490  0.00  0.00    -0.315 N 
ATOM      6  H   LIG    1       32.760   7.998   5.869  0.00  0.00    +0.149 HD
ATOM      7  C   LIG    1       31.017   8.797   5.141  0.00  0.00    +0.214 C 
ATOM      8  O   LIG    1       29.826   8.644   4.894  0.00  0.00    -0.276 OA
BRANCH   7   9
ATOM      9  C   LIG    1       31.684  10.183   5.117  0.00  0.00    +0.114 C 
BRANCH   9  10
ATOM     10  C   LIG    1       32.232  10.614   3.735  0.00  0.00    +0.113 C 
BRANCH  10  11
ATOM     11  N   LIG    1       33.137  11.769   3.854  0.00  0.00    -0.313 N 
ATOM     12  H   LIG    1       33.260  12.071   4.788  0.00  0.00    +0.149 HD
ATOM     13  C   LIG    1       33.783  12.502   2.881  0.00  0.00    +0.242 C 
ATOM     14  O   LIG    1       33.733  12.202   1.689  0.00  0.00    -0.273 OA
BRANCH  13  15
ATOM     15  C   LIG    1       34.658  13.766   3.365  0.00  0.00    +0.208 C 
BRANCH  15  16
ATOM     16  C   LIG    1       34.096  14.614   4.565  0.00  0.00    +0.023 C 
ATOM     17  C   LIG    1       34.069  13.936   5.963  0.00  0.00    +0.016 C 
ATOM     18  C   LIG    1       32.648  14.925   4.175  0.00  0.00    +0.016 C 
BRANCH  16  19
ATOM     19  C   LIG    1       34.841  15.978   4.774  0.00  0.00    +0.165 C 
BRANCH  19  20
ATOM     20  O   LIG    1       34.615  16.911   3.721  0.00  0.00    -0.394 OA
ATOM     21  H   LIG    1       35.179  16.665   2.971  0.00  0.00    +0.209 HD
ENDBRANCH  19  20
ENDBRANCH  16  19
ENDBRANCH  15  16
BRANCH  15  22
ATOM     22  O   LIG    1       36.028  13.435   3.543  0.00  0.00    -0.382 OA
ATOM     23  H   LIG    1       36.311  13.043   2.690  0.00  0.00    +0.210 HD
ENDBRANCH  15  22
ENDBRANCH  13  15
ENDBRANCH  10  11
ENDBRANCH   9  10
ENDBRANCH   7   9
ENDBRANCH   4   5
ENDBRANCH   3   4
ENDBRANCH   2   3
ENDBRANCH   1   2
BRANCH   1  24
ATOM     24  C   LIG    1       33.156   4.925   0.442  0.00  0.00    +0.100 C 
BRANCH  24  25
ATOM     25  C   LIG    1       34.410   5.769   0.634  0.00  0.00    +0.115 C 
BRANCH  25  27
ATOM     26  C   LIG    1       36.519   5.669  -0.681  0.00  0.00    +0.214 C 
ATOM     27  N   LIG    1       35.447   5.069  -0.083  0.00  0.00    -0.315 N 
ATOM     28  H   LIG    1       35.295   4.094  -0.297  0.00  0.00    +0.149 HD
ATOM     29  O   LIG    1       36.629   6.874  -0.860  0.00  0.00    -0.276 OA
BRANCH  26  30
ATOM     30  C   LIG    1       37.481   4.599  -1.150  0.00  0.00    +0.114 C 
BRANCH  30  31
ATOM     31  C   LIG    1       38.895   5.059  -1.430  0.00  0.00    +0.113 C 
BRANCH  31  33
ATOM     32  C   LIG    1       39.240   6.175   0.839  0.00  0.00    +0.242 C 
ATOM     33  N   LIG    1       39.701   5.507  -0.293  0.00  0.00    -0.313 N 
ATOM     34  H   LIG    1       40.653   5.167  -0.232  0.00  0.00    +0.149 HD
ATOM     35  O   LIG    1       38.098   6.373   1.104  0.00  0.00    -0.273 OA
BRANCH  32  36
ATOM     36  C   LIG    1       40.334   6.653   1.806  0.00  0.00    +0.208 C 
BRANCH  36  38
ATOM     37  C   LIG    1       38.646   7.879   3.386  0.00  0.00    +0.016 C 
ATOM     38  C   LIG    1       39.816   6.859   3.276  0.00  0.00    +0.023 C 
ATOM     39  C   LIG    1       40.980   7.423   4.137  0.00  0.00    +0.016 C 
BRANCH  38  40
ATOM     40  C   LIG    1       39.336   5.503   3.856  0.00  0.00    +0.165 C 
BRANCH  40  41
ATOM     41  O   LIG    1       38.915   5.656   5.212  0.00  0.00    -0.394 OA
ATOM     42  H   LIG    1       38.738   4.765   5.557  0.00  0.00    +0.209 HD
ENDBRANCH  40  41
ENDBRANCH  38  40
ENDBRANCH  36  38
BRANCH  36  43
ATOM     43  O   LIG    1       41.399   5.693   1.751  0.00  0.00    -0.382 OA
ATOM     44  H   LIG    1       42.184   6.121   2.131  0.00  0.00    +0.210 HD
ENDBRANCH  36  43
ENDBRANCH  32  36
ENDBRANCH  31  33
ENDBRANCH  30  31
ENDBRANCH  26  30
ENDBRANCH  25  27
ENDBRANCH  24  25
ENDBRANCH   1  24
TORSDOF 23
