REMARK  Name = *****
REMARK                            x       y       z     vdW  Elec       q    Type
REMARK                         _______ _______ _______ _____ _____    ______ ____
ROOT
ATOM      1  C   LIG    1        6.625  -1.720   2.439  0.00  0.00    +0.216 A 
ATOM      2  N   LIG    1        7.610  -0.821   2.291  0.00  0.00    -0.213 NA
ATOM      3  C   LIG    1        8.860  -1.250   2.125  0.00  0.00    +0.075 A 
ATOM      4  C   LIG    1        9.230  -2.617   2.110  0.00  0.00    +0.013 A 
ATOM      5  C   LIG    1       10.602  -2.913   1.874  0.00  0.00    +0.011 A 
ATOM      6  C   LIG    1       11.558  -1.907   1.715  0.00  0.00    +0.001 A 
ATOM      7  C   LIG    1       11.167  -0.579   1.743  0.00  0.00    +0.002 A 
ATOM      8  C   LIG    1        8.169  -3.550   2.300  0.00  0.00    +0.051 A 
ATOM      9  C   LIG    1        9.824  -0.269   1.940  0.00  0.00    +0.028 A 
ATOM     10  C   LIG    1        6.854  -3.081   2.469  0.00  0.00    +0.081 A 
ENDROOT
BRANCH   8  11
ATOM     11  C   LIG    1        8.307  -5.045   2.261  0.00  0.00    +0.245 C 
ATOM     12  N   LIG    1        9.450  -5.626   2.773  0.00  0.00    -0.310 N 
ATOM     13  H   LIG    1       10.127  -5.062   3.262  0.00  0.00    +0.149 HD
ATOM     14  O   LIG    1        7.373  -5.718   1.828  0.00  0.00    -0.270 OA
BRANCH  12  15
ATOM     15  C   LIG    1        9.635  -7.073   2.809  0.00  0.00    +0.120 C 
BRANCH  15  16
ATOM     16  C   LIG    1       10.204  -7.708   1.513  0.00  0.00    +0.103 C 
BRANCH  16  17
ATOM     17  N   LIG    1       11.548  -7.260   1.061  0.00  0.00    -0.301 NA
BRANCH  17  18
ATOM     18  C   LIG    1       11.827  -7.769  -0.302  0.00  0.00    +0.081 C 
ATOM     19  C   LIG    1       11.885  -9.287  -0.485  0.00  0.00    +0.020 C 
ENDBRANCH  17  18
BRANCH  17  20
ATOM     20  C   LIG    1       12.602  -7.593   2.035  0.00  0.00    +0.081 C 
ATOM     21  C   LIG    1       14.016  -7.178   1.623  0.00  0.00    +0.020 C 
ENDBRANCH  17  20
ENDBRANCH  16  17
ENDBRANCH  15  16
ENDBRANCH  12  15
ENDBRANCH   8  11
BRANCH   1  22
ATOM     22  O   LIG    1        5.315  -1.288   2.552  0.00  0.00    -0.476 OA
BRANCH  22  23
ATOM     23  C   LIG    1        5.185   0.137   2.421  0.00  0.00    +0.231 C 
BRANCH  23  24
ATOM     24  C   LIG    1        3.701   0.514   2.470  0.00  0.00    +0.041 C 
BRANCH  24  26
ATOM     25  C   LIG    1        3.976   2.864   3.440  0.00  0.00    +0.004 C 
ATOM     26  C   LIG    1        3.449   2.015   2.291  0.00  0.00    +0.000 C 
ENDBRANCH  24  26
ENDBRANCH  23  24
ENDBRANCH  22  23
ENDBRANCH   1  22
TORSDOF 10
