REMARK  Name = *****
REMARK                            x       y       z     vdW  Elec       q    Type
REMARK                         _______ _______ _______ _____ _____    ______ ____
ROOT
ATOM      1  O   LIG    1        6.684  -4.323   1.800  0.00  0.00    -0.489 OA
ENDROOT
BRANCH   1   2
ATOM      2  C   LIG    1        8.015  -4.478   2.082  0.00  0.00    +0.124 A 
ATOM      3  C   LIG    1        8.372  -5.532   2.948  0.00  0.00    +0.005 A 
ATOM      4  C   LIG    1        7.319  -6.416   3.571  0.00  0.00    +0.040 C 
ATOM      5  C   LIG    1        7.887  -7.759   4.026  0.00  0.00    +0.013 C 
ATOM      6  C   LIG    1        9.084  -7.556   4.937  0.00  0.00    +0.080 C 
ATOM      7  C   LIG    1       10.160  -6.751   4.246  0.00  0.00    +0.164 C 
ATOM      8  O   LIG    1       11.341  -6.890   4.526  0.00  0.00    -0.292 OA
ATOM      9  C   LIG    1        9.729  -5.714   3.265  0.00  0.00    +0.024 A 
ATOM     10  C   LIG    1       10.714  -4.912   2.677  0.00  0.00    +0.012 A 
ATOM     11  C   LIG    1       10.353  -3.909   1.784  0.00  0.00    +0.004 A 
ATOM     12  C   LIG    1        9.009  -3.689   1.494  0.00  0.00    +0.046 A 
ENDBRANCH   1   2
BRANCH   1  13
ATOM     13  C   LIG    1        6.247  -2.996   1.470  0.00  0.00    +0.261 C 
BRANCH  13  14
ATOM     14  C   LIG    1        4.734  -2.998   1.217  0.00  0.00    +0.166 C 
BRANCH  14  15
ATOM     15  O   LIG    1        4.415  -3.900   0.149  0.00  0.00    -0.387 OA
ATOM     16  H   LIG    1        4.833  -4.746   0.397  0.00  0.00    +0.210 HD
ENDBRANCH  14  15
BRANCH  14  17
ATOM     17  C   LIG    1        3.880  -3.344   2.450  0.00  0.00    +0.116 C 
BRANCH  17  18
ATOM     18  N   LIG    1        4.118  -4.684   3.013  0.00  0.00    -0.309 NA
ATOM     19  H   LIG    1        3.966  -5.381   2.283  0.00  0.00    +0.122 HD
BRANCH  18  21
ATOM     20  C   LIG    1        3.685  -6.442   4.654  0.00  0.00    +0.027 C 
ATOM     21  C   LIG    1        3.300  -5.021   4.192  0.00  0.00    +0.011 C 
ATOM     22  C   LIG    1        3.576  -4.050   5.352  0.00  0.00    +0.027 C 
ATOM     23  C   LIG    1        1.805  -5.025   3.841  0.00  0.00    +0.027 C 
ENDBRANCH  18  21
ENDBRANCH  17  18
ENDBRANCH  14  17
ENDBRANCH  13  14
ENDBRANCH   1  13
TORSDOF 7
