REMARK  Name = *****
REMARK                            x       y       z     vdW  Elec       q    Type
REMARK                         _______ _______ _______ _____ _____    ______ ____
ROOT
ATOM      1  N   LIG    1        6.033   2.869  -0.783  0.00  0.00    -0.309 N 
ATOM      2  C   LIG    1        6.594   1.623  -0.509  0.00  0.00    +0.199 A 
ATOM      3  N   LIG    1        7.895   1.751  -0.376  0.00  0.00    -0.214 NA
ATOM      4  C   LIG    1        8.187   3.089  -0.524  0.00  0.00    +0.091 A 
ATOM      5  C   LIG    1        9.412   3.774  -0.490  0.00  0.00    +0.030 A 
ATOM      6  C   LIG    1        9.421   5.172  -0.624  0.00  0.00    +0.002 A 
ATOM      7  C   LIG    1        8.232   5.881  -0.785  0.00  0.00    +0.002 A 
ATOM      8  C   LIG    1        7.006   5.218  -0.845  0.00  0.00    +0.028 A 
ATOM      9  C   LIG    1        7.024   3.820  -0.726  0.00  0.00    +0.070 A 
ENDROOT
BRANCH   2  10
ATOM     10  N   LIG    1        5.825   0.501  -0.308  0.00  0.00    -0.300 N 
ATOM     11  C   LIG    1        5.231  -0.131  -1.504  0.00  0.00    +0.123 C 
ATOM     12  C   LIG    1        4.130  -1.181  -1.229  0.00  0.00    +0.103 C 
ATOM     13  N   LIG    1        4.647  -2.430  -0.654  0.00  0.00    -0.304 NA
ATOM     14  C   LIG    1        3.879  -3.586  -1.119  0.00  0.00    +0.105 C 
ATOM     15  C   LIG    1        4.681  -2.387   0.813  0.00  0.00    +0.086 C 
ATOM     16  C   LIG    1        5.250  -1.107   1.437  0.00  0.00    +0.034 C 
ATOM     17  C   LIG    1        6.396  -0.474   0.645  0.00  0.00    +0.109 C 
ENDBRANCH   2  10
BRANCH   1  18
ATOM     18  C   LIG    1        4.658   3.178  -1.106  0.00  0.00    +0.153 C 
BRANCH  18  19
ATOM     19  C   LIG    1        4.439   3.178  -2.616  0.00  0.00    +0.181 C 
BRANCH  19  20
ATOM     20  O   LIG    1        3.080   3.496  -2.911  0.00  0.00    -0.378 OA
BRANCH  20  22
ATOM     21  C   LIG    1        1.406   3.820  -4.585  0.00  0.00    +0.034 C 
ATOM     22  C   LIG    1        2.841   3.422  -4.317  0.00  0.00    +0.156 C 
ENDBRANCH  20  22
ENDBRANCH  19  20
ENDBRANCH  18  19
ENDBRANCH   1  18
TORSDOF 5
