REMARK  Name = *****
REMARK                            x       y       z     vdW  Elec       q    Type
REMARK                         _______ _______ _______ _____ _____    ______ ____
ROOT
ATOM      1  C   LIG    1        6.168  -2.704  -1.102  0.00  0.00    +0.234 C 
ATOM      2  N   LIG    1        6.321  -2.334   0.236  0.00  0.00    -0.284 N 
ATOM      3  H   LIG    1        5.711  -1.561   0.476  0.00  0.00    +0.155 HD
ATOM      4  O   LIG    1        7.067  -3.140  -1.808  0.00  0.00    -0.274 OA
ENDROOT
BRANCH   2   5
ATOM      5  C   LIG    1        7.583  -2.433   0.881  0.00  0.00    +0.039 A 
ATOM      6  C   LIG    1        8.293  -3.657   0.924  0.00  0.00    -0.029 A 
ATOM      7  C   LIG    1        7.696  -4.970   0.485  0.00  0.00    +0.045 C 
ATOM      8  C   LIG    1        9.604  -3.680   1.431  0.00  0.00    +0.005 A 
ATOM      9  C   LIG    1       10.195  -2.525   1.926  0.00  0.00    +0.001 A 
ATOM     10  C   LIG    1        9.462  -1.343   1.973  0.00  0.00    +0.005 A 
ATOM     11  C   LIG    1        8.138  -1.290   1.498  0.00  0.00    -0.029 A 
ATOM     12  C   LIG    1        7.415   0.024   1.595  0.00  0.00    +0.045 C 
ENDBRANCH   2   5
BRANCH   1  14
ATOM     13  N   LIG    1        4.218  -1.133  -1.343  0.00  0.00    -0.291 NA
ATOM     14  C   LIG    1        4.714  -2.517  -1.634  0.00  0.00    +0.143 C 
ATOM     15  C   LIG    1        4.633  -2.910  -3.124  0.00  0.00    +0.028 C 
ATOM     16  C   LIG    1        5.286  -1.877  -4.039  0.00  0.00    +0.003 C 
ATOM     17  C   LIG    1        4.786  -0.474  -3.729  0.00  0.00    +0.015 C 
ATOM     18  C   LIG    1        4.879  -0.158  -2.234  0.00  0.00    +0.085 C 
BRANCH  13  19
ATOM     19  C   LIG    1        2.738  -1.062  -1.413  0.00  0.00    +0.085 C 
BRANCH  19  21
ATOM     20  C   LIG    1        0.656   0.323  -0.894  0.00  0.00    +0.005 C 
ATOM     21  C   LIG    1        2.178   0.259  -0.852  0.00  0.00    +0.012 C 
ENDBRANCH  19  21
ENDBRANCH  13  19
ENDBRANCH   1  14
TORSDOF 4
