REMARK  Name = *****
REMARK                            x       y       z     vdW  Elec       q    Type
REMARK                         _______ _______ _______ _____ _____    ______ ____
ROOT
ATOM      1  C   LIG    1       -5.506   0.459  -1.965  0.00  0.00    +0.062 C 
ATOM      2  C   LIG    1       -4.810   0.935  -0.669  0.00  0.00    +0.010 C 
ATOM      3  C   LIG    1       -5.773   1.018   0.549  0.00  0.00    +0.003 C 
ATOM      4  C   LIG    1       -5.009   1.398   1.843  0.00  0.00    +0.005 C 
ATOM      5  C   LIG    1       -3.501   1.593   1.661  0.00  0.00    +0.011 C 
ATOM      6  C   LIG    1       -2.813   0.396   0.961  0.00  0.00    +0.011 C 
ATOM      7  C   LIG    1       -2.978  -0.875   1.820  0.00  0.00    +0.015 C 
ATOM      8  C   LIG    1       -1.305   0.681   0.623  0.00  0.00    +0.120 C 
ATOM      9  O   LIG    1       -0.586  -0.547   0.386  0.00  0.00    -0.458 OA
ATOM     10  C   LIG    1        0.257  -0.816   1.426  0.00  0.00    +0.308 C 
ATOM     11  O   LIG    1        0.922  -1.827   1.527  0.00  0.00    -0.251 OA
ATOM     12  C   LIG    1        0.188   0.289   2.436  0.00  0.00    +0.124 C 
ATOM     13  C   LIG    1       -0.443   1.406   1.642  0.00  0.00    +0.060 C 
ATOM     14  C   LIG    1       -1.384   1.414  -0.710  0.00  0.00    +0.049 C 
ATOM     15  C   LIG    1       -2.414   0.600  -1.478  0.00  0.00    +0.008 C 
ATOM     16  C   LIG    1       -6.911  -0.095   0.645  0.00  0.00    -0.007 C 
ATOM     17  C   LIG    1       -8.292   0.574   0.376  0.00  0.00    +0.016 C 
ATOM     18  C   LIG    1       -6.729  -1.219  -0.378  0.00  0.00    -0.059 C 
ATOM     19  C   LIG    1       -7.070  -2.498  -0.116  0.00  0.00    +0.046 C 
ATOM     20  C   LIG    1       -7.715  -2.918   1.152  0.00  0.00    +0.156 C 
ATOM     21  O   LIG    1       -8.046  -4.091   1.301  0.00  0.00    -0.293 OA
ATOM     22  C   LIG    1       -8.011  -1.866   2.186  0.00  0.00    +0.080 C 
ATOM     23  C   LIG    1       -7.016  -0.719   2.071  0.00  0.00    +0.019 C 
ATOM     24  C   LIG    1       -3.478   0.160  -0.437  0.00  0.00    +0.003 C 
ATOM     25  C   LIG    1       -6.162  -0.919  -1.753  0.00  0.00    +0.046 C 
ENDROOT
BRANCH   1  26
ATOM     26  S   LIG    1       -6.724   1.646  -2.664  0.00  0.00    -0.084 S 
BRANCH  26  28
ATOM     27  C   LIG    1       -6.508   4.256  -3.467  0.00  0.00    +0.099 C 
ATOM     28  C   LIG    1       -5.746   3.082  -2.930  0.00  0.00    +0.187 C 
ATOM     29  O   LIG    1       -4.536   3.116  -2.750  0.00  0.00    -0.285 OA
ENDBRANCH  26  28
ENDBRANCH   1  26
TORSDOF 2
