REMARK  Name = *****
REMARK                            x       y       z     vdW  Elec       q    Type
REMARK                         _______ _______ _______ _____ _____    ______ ____
ROOT
ATOM      1  C   LIG    1        3.140   1.440  -7.119  0.00  0.00    +0.044 C 
ATOM      2  C   LIG    1        3.284   1.689  -5.644  0.00  0.00    -0.045 A 
ATOM      3  C   LIG    1        3.436   2.983  -5.123  0.00  0.00    -0.045 A 
ATOM      4  C   LIG    1        3.519   4.185  -6.024  0.00  0.00    +0.044 C 
ATOM      5  C   LIG    1        3.498   3.165  -3.728  0.00  0.00    +0.031 A 
ATOM      6  C   LIG    1        3.362   2.095  -2.830  0.00  0.00    +0.069 A 
ATOM      7  C   LIG    1        3.329   0.790  -3.377  0.00  0.00    +0.089 A 
ATOM      8  N   LIG    1        3.383  -0.371  -2.584  0.00  0.00    -0.237 NA
ATOM      9  C   LIG    1        3.286  -0.224  -1.300  0.00  0.00    +0.171 A 
ATOM     10  C   LIG    1        2.988   1.115  -0.666  0.00  0.00    +0.171 A 
ATOM     11  N   LIG    1        2.487   1.120   0.533  0.00  0.00    -0.173 NA
ATOM     12  C   LIG    1        2.206  -0.052   1.191  0.00  0.00    +0.350 C 
ATOM     13  O   LIG    1        1.363  -0.126   2.070  0.00  0.00    -0.245 OA
ATOM     14  N   LIG    1        2.911  -1.178   0.855  0.00  0.00    -0.272 N 
ATOM     15  H   LIG    1        2.737  -1.992   1.423  0.00  0.00    +0.173 HD
ATOM     16  C   LIG    1        3.409  -1.409  -0.386  0.00  0.00    +0.282 C 
ATOM     17  O   LIG    1        3.876  -2.481  -0.748  0.00  0.00    -0.265 OA
ATOM     18  N   LIG    1        3.232   2.261  -1.425  0.00  0.00    -0.320 N 
ATOM     19  C   LIG    1        3.271   0.604  -4.761  0.00  0.00    +0.033 A 
ENDROOT
BRANCH  18  20
ATOM     20  C   LIG    1        2.799   3.580  -0.901  0.00  0.00    +0.158 C 
BRANCH  20  21
ATOM     21  C   LIG    1        3.898   4.279  -0.070  0.00  0.00    +0.165 C 
BRANCH  21  22
ATOM     22  O   LIG    1        5.075   4.474  -0.886  0.00  0.00    -0.387 OA
ATOM     23  H   LIG    1        4.964   5.335  -1.335  0.00  0.00    +0.210 HD
ENDBRANCH  21  22
BRANCH  21  24
ATOM     24  C   LIG    1        3.505   5.674   0.504  0.00  0.00    +0.175 C 
BRANCH  24  25
ATOM     25  O   LIG    1        3.286   6.583  -0.592  0.00  0.00    -0.387 OA
ATOM     26  H   LIG    1        2.389   6.410  -0.938  0.00  0.00    +0.210 HD
ENDBRANCH  24  25
BRANCH  24  27
ATOM     27  C   LIG    1        2.324   5.668   1.493  0.00  0.00    +0.171 C 
BRANCH  27  28
ATOM     28  O   LIG    1        1.114   5.315   0.807  0.00  0.00    -0.387 OA
ATOM     29  H   LIG    1        0.394   5.527   1.440  0.00  0.00    +0.210 HD
ENDBRANCH  27  28
BRANCH  27  30
ATOM     30  C   LIG    1        2.066   7.020   2.180  0.00  0.00    +0.189 C 
BRANCH  30  31
ATOM     31  O   LIG    1        1.053   6.809   3.177  0.00  0.00    -0.392 OA
ATOM     32  H   LIG    1        1.424   7.074   4.038  0.00  0.00    +0.209 HD
ENDBRANCH  30  31
ENDBRANCH  27  30
ENDBRANCH  24  27
ENDBRANCH  21  24
ENDBRANCH  20  21
ENDBRANCH  18  20
TORSDOF 9
