REMARK  Name = *****
REMARK                            x       y       z     vdW  Elec       q    Type
REMARK                         _______ _______ _______ _____ _____    ______ ____
ROOT
ATOM      1  C   LIG    1        3.273  -2.138   4.845  0.00  0.00    +0.044 C 
ATOM      2  C   LIG    1        2.480  -1.121   4.054  0.00  0.00    -0.050 C 
ATOM      3  C   LIG    1        1.360  -0.609   4.617  0.00  0.00    +0.003 C 
ENDROOT
BRANCH   3   4
ATOM      4  C   LIG    1        0.443   0.394   4.105  0.00  0.00    +0.001 C 
ATOM      5  C   LIG    1       -0.746   0.761   4.622  0.00  0.00    +0.003 C 
BRANCH   5   6
ATOM      6  C   LIG    1       -1.478   0.259   5.781  0.00  0.00    -0.044 C 
ATOM      7  C   LIG    1       -1.952  -0.978   5.981  0.00  0.00    +0.094 C 
ATOM      8  C   LIG    1       -1.847   1.308   6.816  0.00  0.00    +0.044 C 
BRANCH   7   9
ATOM      9  C   LIG    1       -1.894  -2.233   5.205  0.00  0.00    +0.330 C 
ATOM     10  O   LIG    1       -2.368  -3.269   5.600  0.00  0.00    -0.246 OA
BRANCH   9  11
ATOM     11  O   LIG    1       -1.288  -2.154   4.019  0.00  0.00    -0.477 OA
ATOM     12  H   LIG    1       -1.303  -3.076   3.694  0.00  0.00    +0.295 HD
ENDBRANCH   9  11
ENDBRANCH   7   9
ENDBRANCH   5   6
ENDBRANCH   3   4
BRANCH   2  13
ATOM     13  C   LIG    1        3.006  -0.736   2.737  0.00  0.00    +0.003 C 
ATOM     14  C   LIG    1        3.825  -1.446   1.931  0.00  0.00    +0.004 C 
BRANCH  14  15
ATOM     15  C   LIG    1        4.313  -1.058   0.585  0.00  0.00    -0.043 C 
ATOM     16  C   LIG    1        4.653  -2.238  -0.400  0.00  0.00    -0.010 C 
ATOM     17  C   LIG    1        5.495  -3.359   0.261  0.00  0.00    +0.016 C 
ATOM     18  C   LIG    1        3.369  -2.881  -0.976  0.00  0.00    +0.016 C 
ATOM     19  C   LIG    1        5.514  -1.737  -1.599  0.00  0.00    +0.011 C 
ATOM     20  C   LIG    1        4.929  -0.487  -2.225  0.00  0.00    +0.005 C 
ATOM     21  C   LIG    1        4.932   0.631  -1.204  0.00  0.00    +0.031 C 
ATOM     22  C   LIG    1        4.525   0.234   0.202  0.00  0.00    -0.069 C 
ATOM     23  C   LIG    1        4.418   1.468   1.071  0.00  0.00    +0.039 C 
ENDBRANCH  14  15
ENDBRANCH   2  13
TORSDOF 6
