REMARK  Name = *****
REMARK                            x       y       z     vdW  Elec       q    Type
REMARK                         _______ _______ _______ _____ _____    ______ ____
ROOT
ATOM      1  C   LIG    1        0.808   5.721   4.379  0.00  0.00    +0.020 C 
ATOM      2  C   LIG    1        0.740   6.409   3.227  0.00  0.00    +0.036 C 
ATOM      3  C   LIG    1        0.848   5.987   1.798  0.00  0.00    +0.069 C 
ATOM      4  C   LIG    1        2.048   6.875   1.425  0.00  0.00    +0.216 C 
ATOM      5  C   LIG    1        3.436   6.512   1.918  0.00  0.00    +0.192 C 
ATOM      6  C   LIG    1        4.691   6.126   1.079  0.00  0.00    +0.097 C 
ATOM      7  C   LIG    1        4.751   6.028  -0.433  0.00  0.00    +0.041 C 
ATOM      8  C   LIG    1        4.529   4.598  -0.942  0.00  0.00    +0.030 C 
ATOM      9  C   LIG    1        3.066   4.326  -0.852  0.00  0.00    -0.028 C 
ATOM     10  C   LIG    1        2.437   3.703   0.157  0.00  0.00    -0.076 C 
ATOM     11  C   LIG    1        0.947   3.863   0.252  0.00  0.00    +0.031 C 
ATOM     12  C   LIG    1        3.102   2.934   1.272  0.00  0.00    +0.038 C 
ATOM     13  C   LIG    1        5.839   5.484   1.815  0.00  0.00    +0.044 C 
ATOM     14  O   LIG    1        4.438   7.467   1.513  0.00  0.00    -0.361 OA
ATOM     15  O   LIG    1        1.651   8.138   2.093  0.00  0.00    -0.455 OA
ATOM     16  C   LIG    1        0.562   4.498   1.578  0.00  0.00    +0.016 C 
ATOM     17  C   LIG    1        0.807   7.879   3.147  0.00  0.00    +0.335 C 
ATOM     18  O   LIG    1        0.167   8.667   3.794  0.00  0.00    -0.245 OA
ENDROOT
TORSDOF 0
