REMARK  Name = *****
REMARK                            x       y       z     vdW  Elec       q    Type
REMARK                         _______ _______ _______ _____ _____    ______ ____
ROOT
ATOM      1  C   LIG    1        5.189  -4.990  -6.207  0.00  0.00    +0.037 A 
ATOM      2  C   LIG    1        4.483  -6.014  -5.526  0.00  0.00    -0.026 A 
ATOM      3  C   LIG    1        4.222  -7.207  -6.233  0.00  0.00    +0.005 A 
ATOM      4  C   LIG    1        4.682  -7.401  -7.541  0.00  0.00    +0.000 A 
ATOM      5  C   LIG    1        5.411  -6.409  -8.177  0.00  0.00    +0.002 A 
ATOM      6  C   LIG    1        5.652  -5.210  -7.516  0.00  0.00    +0.023 A 
ENDROOT
BRANCH   1   8
ATOM      7  C   LIG    1        5.814  -2.570  -6.187  0.00  0.00    +0.248 C 
ATOM      8  N   LIG    1        5.442  -3.754  -5.577  0.00  0.00    -0.281 N 
ATOM      9  H   LIG    1        5.223  -3.719  -4.589  0.00  0.00    +0.155 HD
ATOM     10  O   LIG    1        5.929  -2.349  -7.394  0.00  0.00    -0.270 OA
BRANCH   7  14
ATOM     11  C   LIG    1        6.404   0.729  -3.514  0.00  0.00    +0.120 A 
ATOM     12  C   LIG    1        5.992   0.951  -4.829  0.00  0.00    +0.046 A 
ATOM     13  C   LIG    1        5.799  -0.129  -5.693  0.00  0.00    +0.016 A 
ATOM     14  C   LIG    1        6.032  -1.436  -5.251  0.00  0.00    +0.037 A 
ATOM     15  C   LIG    1        6.485  -1.650  -3.941  0.00  0.00    +0.016 A 
ATOM     16  C   LIG    1        6.662  -0.570  -3.077  0.00  0.00    +0.046 A 
BRANCH  11  18
ATOM     17  C   LIG    1        5.834   2.877  -2.743  0.00  0.00    +0.277 C 
ATOM     18  O   LIG    1        6.634   1.711  -2.590  0.00  0.00    -0.495 OA
ENDBRANCH  11  18
ENDBRANCH   7  14
ENDBRANCH   1   8
BRANCH   2  19
ATOM     19  C   LIG    1        3.923  -5.896  -4.106  0.00  0.00    +0.038 C 
BRANCH  19  20
ATOM     20  C   LIG    1        4.858  -6.387  -2.973  0.00  0.00    +0.023 C 
BRANCH  20  21
ATOM     21  C   LIG    1        4.247  -6.261  -1.535  0.00  0.00    +0.057 C 
ATOM     22  N   LIG    1        5.068  -6.827  -0.440  0.00  0.00    -0.302 NA
ATOM     23  C   LIG    1        5.187  -8.277  -0.442  0.00  0.00    +0.105 C 
ATOM     24  C   LIG    1        6.369  -6.173  -0.287  0.00  0.00    +0.084 C 
ATOM     25  C   LIG    1        6.177  -4.694   0.051  0.00  0.00    +0.015 C 
ATOM     26  C   LIG    1        5.227  -3.993  -0.916  0.00  0.00    +0.003 C 
ATOM     27  C   LIG    1        3.949  -4.804  -1.121  0.00  0.00    +0.019 C 
ENDBRANCH  20  21
ENDBRANCH  19  20
ENDBRANCH   2  19
TORSDOF 6
