REMARK  Name = *****
REMARK                            x       y       z     vdW  Elec       q    Type
REMARK                         _______ _______ _______ _____ _____    ______ ____
ROOT
ATOM      1  C   LIG    1        9.066   4.497   2.552  0.00  0.00    +0.403 C 
ATOM      2  N   LIG    1        9.186   5.081   1.345  0.00  0.00    -0.281 N 
ATOM      3  H   LIG    1        8.412   4.961   0.699  0.00  0.00    +0.152 HD
ATOM      4  O   LIG    1        9.958   4.579   3.409  0.00  0.00    -0.226 OA
ENDROOT
BRANCH   1   5
ATOM      5  O   LIG    1        7.976   3.742   2.677  0.00  0.00    -0.411 OA
BRANCH   5   6
ATOM      6  C   LIG    1        8.162   2.642   3.585  0.00  0.00    +0.368 C 
ATOM      7  C   LIG    1        8.199   3.047   5.058  0.00  0.00    +0.100 C 
BRANCH   6   8
ATOM      8  O   LIG    1        7.050   1.765   3.395  0.00  0.00    -0.425 OA
BRANCH   8   9
ATOM      9  C   LIG    1        7.199   0.926   2.333  0.00  0.00    +0.312 C 
ATOM     10  O   LIG    1        8.264   0.667   1.789  0.00  0.00    -0.251 OA
BRANCH   9  12
ATOM     11  C   LIG    1        5.988  -0.483   0.658  0.00  0.00    +0.019 C 
ATOM     12  C   LIG    1        5.840   0.473   1.839  0.00  0.00    +0.092 C 
ATOM     13  C   LIG    1        5.051  -0.171   2.971  0.00  0.00    +0.019 C 
ENDBRANCH   9  12
ENDBRANCH   8   9
ENDBRANCH   6   8
ENDBRANCH   5   6
ENDBRANCH   1   5
BRANCH   2  14
ATOM     14  C   LIG    1       10.405   5.769   0.945  0.00  0.00    +0.115 C 
BRANCH  14  15
ATOM     15  C   LIG    1       11.457   4.874   0.214  0.00  0.00    -0.004 C 
ATOM     16  C   LIG    1       10.798   4.230  -1.047  0.00  0.00    +0.009 C 
ATOM     17  C   LIG    1       10.548   5.196  -2.200  0.00  0.00    +0.001 C 
ATOM     18  C   LIG    1       11.831   5.915  -2.586  0.00  0.00    +0.000 C 
ATOM     19  C   LIG    1       12.391   6.684  -1.398  0.00  0.00    +0.001 C 
ATOM     20  C   LIG    1       12.665   5.759  -0.211  0.00  0.00    +0.009 C 
BRANCH  15  21
ATOM     21  C   LIG    1       11.985   3.685   1.078  0.00  0.00    +0.128 C 
BRANCH  21  22
ATOM     22  C   LIG    1       12.896   3.958   2.265  0.00  0.00    +0.305 C 
ATOM     23  O   LIG    1       14.115   3.942   2.201  0.00  0.00    -0.251 OA
BRANCH  22  24
ATOM     24  O   LIG    1       12.288   4.175   3.438  0.00  0.00    -0.481 OA
ATOM     25  H   LIG    1       11.349   4.457   3.348  0.00  0.00    +0.295 HD
ENDBRANCH  22  24
ENDBRANCH  21  22
ENDBRANCH  15  21
ENDBRANCH  14  15
ENDBRANCH   2  14
TORSDOF 10
