REMARK  Name = *****
REMARK                            x       y       z     vdW  Elec       q    Type
REMARK                         _______ _______ _______ _____ _____    ______ ____
ROOT
ATOM      1  C   LIG    1        3.269   1.313   0.764  0.00  0.00    +0.188 C 
ATOM      2  C   LIG    1        2.405   0.389  -0.082  0.00  0.00    +0.066 C 
ATOM      3  C   LIG    1        3.491   2.644   0.076  0.00  0.00    +0.268 C 
ATOM      4  O   LIG    1        3.953   2.806  -1.043  0.00  0.00    -0.271 OA
ATOM      5  N   LIG    1        3.067   3.612   0.924  0.00  0.00    -0.207 N 
ATOM      6  C   LIG    1        3.077   5.020   0.623  0.00  0.00    +0.144 C 
ATOM      7  C   LIG    1        2.428   3.066   1.978  0.00  0.00    +0.410 C 
ATOM      8  O   LIG    1        1.824   3.663   2.855  0.00  0.00    -0.226 OA
ATOM      9  O   LIG    1        2.509   1.706   1.927  0.00  0.00    -0.434 OA
ENDROOT
BRANCH   1  11
ATOM     10  C   LIG    1        5.470   0.112   0.167  0.00  0.00    +0.008 C 
ATOM     11  C   LIG    1        4.582   0.693   1.257  0.00  0.00    +0.054 C 
ENDBRANCH   1  11
TORSDOF 1
