REMARK  Name = *****
REMARK                            x       y       z     vdW  Elec       q    Type
REMARK                         _______ _______ _______ _____ _____    ______ ____
ROOT
ATOM      1  C   UNK A  0       15.798   9.730  -3.987  0.00  0.00    -0.047 A 
ATOM      2  C   UNK A  0       14.969   8.605  -3.851  0.00  0.00    +0.004 A 
ATOM      3  C   UNK A  0       14.433   8.261  -2.606  0.00  0.00    +0.013 A 
ATOM      4  C   UNK A  0       14.704   9.052  -1.484  0.00  0.00    +0.037 A 
ATOM      5  C   UNK A  0       15.550  10.160  -1.610  0.00  0.00    +0.013 A 
ATOM      6  C   UNK A  0       16.089  10.498  -2.854  0.00  0.00    +0.004 A 
ENDROOT
BRANCH   4   7
ATOM      7  C   UNK A  0       14.100   8.684  -0.172  0.00  0.00    +0.245 C 
ATOM      8  N   GLU A  1       13.831   9.734   0.696  0.00  0.00    -0.298 N 
ATOM      9  H   GLU A  1       13.870  10.677   0.326  0.00  0.00    +0.150 HD
ATOM     10  O   UNK A  0       13.833   7.518   0.090  0.00  0.00    -0.270 OA
BRANCH   8  11
ATOM     11  CA  GLU A  1       13.158   9.488   1.986  0.00  0.00    +0.182 C 
BRANCH  11  12
ATOM     12  C   GLU A  1       14.218   9.265   3.082  0.00  0.00    +0.325 C 
ATOM     13  O   GLU A  1       14.011   8.676   4.129  0.00  0.00    -0.249 OA
BRANCH  12  14
ATOM     14  OXT GLU A  1       15.363   9.966   2.862  0.00  0.00    -0.479 OA
ATOM     15  HXT GLU A  1       15.341  10.379   1.978  0.00  0.00    +0.295 HD
ENDBRANCH  12  14
ENDBRANCH  11  12
BRANCH  11  16
ATOM     16  CB  GLU A  1       12.274  10.690   2.360  0.00  0.00    +0.045 C 
BRANCH  16  17
ATOM     17  CG  GLU A  1       11.511  10.513   3.680  0.00  0.00    +0.123 C 
BRANCH  17  18
ATOM     18  CD  GLU A  1       10.669  11.725   4.006  0.00  0.00    +0.305 C 
ATOM     19  OE1 GLU A  1       10.608  12.736   3.327  0.00  0.00    -0.251 OA
BRANCH  18  20
ATOM     20  OE2 GLU A  1        9.975  11.582   5.158  0.00  0.00    -0.481 OA
ATOM     21  HE2 GLU A  1       10.119  10.729   5.612  0.00  0.00    +0.295 HD
ENDBRANCH  18  20
ENDBRANCH  17  18
ENDBRANCH  16  17
ENDBRANCH  11  16
ENDBRANCH   8  11
ENDBRANCH   4   7
BRANCH   1  22
ATOM     22  C   UNK A  0       16.437  10.059  -5.319  0.00  0.00    +0.040 C 
BRANCH  22  23
ATOM     23  C   UNK A  0       17.802   9.395  -5.543  0.00  0.00    +0.042 C 
BRANCH  23  34
ATOM     24  C   UNK A  0       18.122   4.820  -2.860  0.00  0.00    +0.195 C 
ATOM     25  N   UNK A  0       18.250   6.076  -2.302  0.00  0.00    -0.295 N 
ATOM     26  H   UNK A  0       18.381   6.174  -1.310  0.00  0.00    +0.172 HD
ATOM     27  C   UNK A  0       18.146   7.251  -3.009  0.00  0.00    +0.262 C 
ATOM     28  O   UNK A  0       18.277   8.351  -2.463  0.00  0.00    -0.267 OA
ATOM     29  C   UNK A  0       17.901   7.044  -4.417  0.00  0.00    +0.086 C 
ATOM     30  C   UNK A  0       17.773   5.744  -4.851  0.00  0.00    +0.147 C 
ATOM     31  N   UNK A  0       17.519   5.766  -6.190  0.00  0.00    -0.345 NA
ATOM     32  H   UNK A  0       17.379   4.941  -6.756  0.00  0.00    +0.167 HD
ATOM     33  C   UNK A  0       17.501   7.069  -6.628  0.00  0.00    +0.088 C 
ATOM     34  C   UNK A  0       17.743   7.900  -5.544  0.00  0.00    -0.015 C 
ATOM     35  N   UNK A  0       17.879   4.610  -4.124  0.00  0.00    -0.198 NA
BRANCH  24  36
ATOM     36  N   UNK A  0       18.296   3.774  -2.017  0.00  0.00    -0.329 NA
ATOM     37  H   UNK A  0       19.001   3.890  -1.301  0.00  0.00    +0.145 HD
ATOM     38  H   UNK A  0       18.398   2.901  -2.525  0.00  0.00    +0.145 HD
ENDBRANCH  24  36
ENDBRANCH  23  34
ENDBRANCH  22  23
ENDBRANCH   1  22
TORSDOF 12
