REMARK  Name = *****
REMARK                            x       y       z     vdW  Elec       q    Type
REMARK                         _______ _______ _______ _____ _____    ______ ____
ROOT
ATOM      1  C   LIG    1        6.396   0.436  -2.668  0.00  0.00    +0.073 A 
ATOM      2  C   LIG    1        6.821   1.790  -2.596  0.00  0.00    +0.175 A 
ATOM      3  C   LIG    1        8.124   2.140  -2.966  0.00  0.00    +0.150 A 
ATOM      4  C   LIG    1        9.036   1.147  -3.341  0.00  0.00    +0.047 A 
ATOM      5  C   LIG    1        8.660  -0.198  -3.322  0.00  0.00    +0.063 A 
ATOM      6  C   LIG    1        7.341  -0.548  -3.009  0.00  0.00    +0.041 A 
ENDROOT
BRANCH   3   7
ATOM      7  S   LIG    1        8.684   3.812  -3.098  0.00  0.00    +0.059 S 
ATOM      8  O   LIG    1        7.577   4.718  -3.250  0.00  0.00    -0.153 OA
ATOM      9  O   LIG    1        9.802   3.840  -4.007  0.00  0.00    -0.153 OA
BRANCH   7  10
ATOM     10  N   LIG    1        9.355   4.133  -1.589  0.00  0.00    -0.203 NA
ATOM     11  H   LIG    1        8.851   4.919  -1.168  0.00  0.00    +0.144 HD
ATOM     12  H   LIG    1       10.351   4.340  -1.701  0.00  0.00    +0.144 HD
ENDBRANCH   7  10
ENDBRANCH   3   7
BRANCH   1  13
ATOM     13  N   LIG    1        5.070   0.035  -2.421  0.00  0.00    -0.341 N 
ATOM     14  H   LIG    1        4.963  -0.968  -2.292  0.00  0.00    +0.146 HD
BRANCH  13  15
ATOM     15  C   LIG    1        4.034   0.592  -3.299  0.00  0.00    +0.101 C 
BRANCH  15  16
ATOM     16  C   LIG    1        3.765  -0.351  -4.477  0.00  0.00    +0.018 C 
BRANCH  16  18
ATOM     17  C   LIG    1        2.416  -0.721  -6.581  0.00  0.00    +0.004 C 
ATOM     18  C   LIG    1        2.695   0.213  -5.414  0.00  0.00    -0.002 C 
ENDBRANCH  16  18
ENDBRANCH  15  16
ENDBRANCH  13  15
ENDBRANCH   1  13
BRANCH   5  19
ATOM     19  C   LIG    1        9.639  -1.258  -3.673  0.00  0.00    +0.337 C 
ATOM     20  O   LIG    1        9.320  -2.320  -4.178  0.00  0.00    -0.245 OA
BRANCH  19  21
ATOM     21  O   LIG    1       10.912  -0.951  -3.343  0.00  0.00    -0.477 OA
ATOM     22  H   LIG    1       11.036  -0.156  -2.792  0.00  0.00    +0.295 HD
ENDBRANCH  19  21
ENDBRANCH   5  19
BRANCH   2  23
ATOM     23  O   LIG    1        5.965   2.770  -2.141  0.00  0.00    -0.452 OA
BRANCH  23  24
ATOM     24  C   LIG    1        5.542   2.671  -0.829  0.00  0.00    +0.129 A 
ATOM     25  C   LIG    1        6.320   2.139   0.205  0.00  0.00    +0.046 A 
ATOM     26  C   LIG    1        5.804   2.064   1.500  0.00  0.00    +0.004 A 
ATOM     27  C   LIG    1        4.521   2.539   1.770  0.00  0.00    +0.000 A 
ATOM     28  C   LIG    1        3.756   3.099   0.747  0.00  0.00    +0.004 A 
ATOM     29  C   LIG    1        4.269   3.171  -0.550  0.00  0.00    +0.046 A 
ENDBRANCH  23  24
ENDBRANCH   2  23
TORSDOF 10
