REMARK  Name = *****
REMARK                            x       y       z     vdW  Elec       q    Type
REMARK                         _______ _______ _______ _____ _____    ______ ____
ROOT
ATOM      1  C   LIG    1       -6.603  -0.578  -7.343  0.00  0.00    +0.221 C 
ATOM      2  C   LIG    1       -7.245   0.351  -8.514  0.00  0.00    +0.168 C 
ATOM      3  C   LIG    1       -8.015  -0.508  -9.477  0.00  0.00    +0.062 C 
ATOM      4  C   LIG    1       -8.140   1.676  -8.312  0.00  0.00    +0.136 C 
ATOM      5  N   LIG    1       -6.911   2.763  -8.283  0.00  0.00    -0.260 N 
ATOM      6  C   LIG    1       -5.689   2.198  -8.752  0.00  0.00    +0.404 C 
ATOM      7  O   LIG    1       -4.644   2.654  -8.783  0.00  0.00    -0.226 OA
ATOM      8  C   LIG    1       -9.617   1.527  -7.294  0.00  0.00    +0.077 C 
ATOM      9  C   LIG    1      -10.607   2.507  -7.865  0.00  0.00    +0.017 C 
ATOM     10  C   LIG    1      -10.268   0.115  -6.987  0.00  0.00    +0.141 C 
ATOM     11  O   LIG    1      -10.494  -0.631  -7.951  0.00  0.00    -0.297 OA
ATOM     12  C   LIG    1      -10.947  -0.300  -5.492  0.00  0.00    +0.055 C 
ATOM     13  C   LIG    1      -12.477  -0.152  -5.726  0.00  0.00    +0.015 C 
ATOM     14  C   LIG    1      -10.177   0.102  -4.034  0.00  0.00    +0.048 C 
ATOM     15  C   LIG    1      -10.358  -0.190  -2.383  0.00  0.00    +0.094 C 
ATOM     16  C   LIG    1      -11.217   0.747  -1.443  0.00  0.00    +0.044 C 
ATOM     17  C   LIG    1       -8.884   0.114  -1.677  0.00  0.00    +0.163 C 
ATOM     18  C   LIG    1       -7.969  -1.116  -1.482  0.00  0.00    +0.085 C 
ATOM     19  C   LIG    1       -8.364  -1.808  -0.066  0.00  0.00    +0.018 C 
ATOM     20  C   LIG    1       -7.894  -2.339  -2.522  0.00  0.00    +0.152 C 
ATOM     21  O   LIG    1       -7.851  -3.467  -1.964  0.00  0.00    -0.296 OA
ATOM     22  C   LIG    1       -7.731  -2.458  -4.125  0.00  0.00    +0.161 C 
ATOM     23  C   LIG    1       -8.766  -3.289  -4.809  0.00  0.00    +0.027 C 
ATOM     24  C   LIG    1       -6.890  -1.739  -5.216  0.00  0.00    +0.318 C 
ATOM     25  O   LIG    1       -5.668  -1.653  -5.155  0.00  0.00    -0.250 OA
ATOM     26  O   LIG    1       -6.059   0.928  -9.212  0.00  0.00    -0.438 OA
ATOM     27  O   LIG    1       -7.520  -1.215  -6.346  0.00  0.00    -0.457 OA
ENDROOT
BRANCH   1  29
ATOM     28  C   LIG    1       -6.003  -2.733  -8.461  0.00  0.00    +0.007 C 
ATOM     29  C   LIG    1       -5.460  -1.517  -7.794  0.00  0.00    +0.045 C 
ENDBRANCH   1  29
BRANCH  15  30
ATOM     30  O   LIG    1      -10.687  -1.557  -2.051  0.00  0.00    -0.374 OA
ATOM     31  C   LIG    1      -11.810  -2.163  -2.668  0.00  0.00    +0.195 C 
ENDBRANCH  15  30
BRANCH   5  32
ATOM     32  C   LIG    1       -6.770   4.190  -7.742  0.00  0.00    +0.112 C 
BRANCH  32  33
ATOM     33  C   LIG    1       -7.096   5.191  -8.822  0.00  0.00    +0.021 C 
BRANCH  33  34
ATOM     34  C   LIG    1       -8.530   5.064  -9.328  0.00  0.00    +0.023 C 
BRANCH  34  35
ATOM     35  C   LIG    1       -8.836   5.966 -10.526  0.00  0.00    +0.123 C 
BRANCH  35  36
ATOM     36  N   LIG    1       -7.999   5.770 -11.700  0.00  0.00    -0.336 N 
ATOM     37  C   LIG    1       -7.204   4.693 -11.972  0.00  0.00    +0.115 A 
ATOM     38  C   LIG    1       -6.540   4.960 -13.152  0.00  0.00    +0.090 A 
ATOM     39  N   LIG    1       -6.907   6.218 -13.591  0.00  0.00    -0.236 NA
ATOM     40  C   LIG    1       -7.761   6.684 -12.692  0.00  0.00    +0.200 A 
BRANCH  38  41
ATOM     41  C   LIG    1       -5.540   4.058 -13.740  0.00  0.00    +0.020 A 
ATOM     42  C   LIG    1       -5.443   2.724 -13.324  0.00  0.00    +0.120 A 
ATOM     43  N   LIG    1       -4.550   1.801 -13.777  0.00  0.00    -0.263 NA
ATOM     44  C   LIG    1       -3.588   2.260 -14.590  0.00  0.00    +0.111 A 
ATOM     45  C   LIG    1       -3.509   3.588 -14.975  0.00  0.00    +0.020 A 
ATOM     46  C   LIG    1       -4.551   4.470 -14.633  0.00  0.00    +0.013 A 
ENDBRANCH  38  41
ENDBRANCH  35  36
ENDBRANCH  34  35
ENDBRANCH  33  34
ENDBRANCH  32  33
ENDBRANCH   5  32
BRANCH  17  47
ATOM     47  O   LIG    1       -8.365   1.470  -1.736  0.00  0.00    -0.342 OA
BRANCH  47  48
ATOM     48  C   LIG    1       -7.495   2.151  -2.621  0.00  0.00    +0.281 C 
ATOM     49  C   LIG    1       -5.954   1.955  -2.478  0.00  0.00    +0.187 C 
ATOM     50  C   LIG    1       -5.353   0.760  -3.311  0.00  0.00    +0.092 C 
ATOM     51  C   LIG    1       -6.017   0.876  -4.625  0.00  0.00    +0.053 C 
ATOM     52  C   LIG    1       -6.770   2.162  -4.769  0.00  0.00    +0.120 C 
ATOM     53  C   LIG    1       -7.492   2.011  -5.968  0.00  0.00    +0.038 C 
ATOM     54  O   LIG    1       -7.907   2.112  -3.937  0.00  0.00    -0.346 OA
BRANCH  50  55
ATOM     55  N   LIG    1       -5.177  -0.444  -2.505  0.00  0.00    -0.303 NA
ATOM     56  C   LIG    1       -5.023  -1.863  -2.737  0.00  0.00    +0.105 C 
ATOM     57  C   LIG    1       -4.380  -0.067  -1.366  0.00  0.00    +0.105 C 
ENDBRANCH  50  55
BRANCH  49  58
ATOM     58  O   LIG    1       -5.237   3.141  -2.932  0.00  0.00    -0.385 OA
ATOM     59  H   LIG    1       -4.288   2.935  -2.859  0.00  0.00    +0.210 HD
ENDBRANCH  49  58
ENDBRANCH  47  48
ENDBRANCH  17  47
TORSDOF 12
