REMARK  Name = *****
REMARK                            x       y       z     vdW  Elec       q    Type
REMARK                         _______ _______ _______ _____ _____    ______ ____
ROOT
ATOM      1  C   LIG    1        4.458   1.081   0.193  0.00  0.00    +0.124 A 
ATOM      2  C   LIG    1        3.822   0.046  -0.521  0.00  0.00    -0.001 A 
ATOM      3  C   LIG    1        2.431   0.150  -0.722  0.00  0.00    +0.008 A 
ATOM      4  C   LIG    1        1.695   1.232  -0.237  0.00  0.00    +0.013 A 
ATOM      5  C   LIG    1        2.330   2.239   0.494  0.00  0.00    +0.041 A 
ATOM      6  C   LIG    1        3.694   2.122   0.745  0.00  0.00    +0.059 A 
ENDROOT
BRANCH   1   8
ATOM      7  C   LIG    1        6.477   2.287   0.509  0.00  0.00    +0.277 C 
ATOM      8  O   LIG    1        5.819   1.018   0.377  0.00  0.00    -0.495 OA
ENDBRANCH   1   8
BRANCH   5   9
ATOM      9  C   LIG    1        1.558   3.377   1.048  0.00  0.00    +0.239 C 
ATOM     10  N   LIG    1        1.815   4.624   1.210  0.00  0.00    -0.091 NA
BRANCH  10  11
ATOM     11  S   LIG    1        3.142   5.411   0.786  0.00  0.00    +0.102 S 
ATOM     12  O   LIG    1        3.569   5.070  -0.555  0.00  0.00    -0.146 OA
ATOM     13  O   LIG    1        4.101   5.329   1.885  0.00  0.00    -0.146 OA
BRANCH  11  14
ATOM     14  C   LIG    1        2.574   7.119   0.717  0.00  0.00    +0.116 A 
ATOM     15  C   LIG    1        1.520   7.518  -0.135  0.00  0.00    -0.024 A 
ATOM     16  C   LIG    1        0.814   6.594  -1.088  0.00  0.00    +0.046 C 
ATOM     17  C   LIG    1        1.115   8.865  -0.097  0.00  0.00    +0.005 A 
ATOM     18  C   LIG    1        1.728   9.781   0.760  0.00  0.00    +0.000 A 
ATOM     19  C   LIG    1        2.763   9.373   1.595  0.00  0.00    +0.002 A 
ATOM     20  C   LIG    1        3.187   8.046   1.575  0.00  0.00    +0.029 A 
ENDBRANCH  11  14
ENDBRANCH  10  11
BRANCH   9  21
ATOM     21  O   LIG    1        0.341   2.985   1.493  0.00  0.00    -0.491 OA
ATOM     22  H   LIG    1        0.210   2.026   1.526  0.00  0.00    +0.294 HD
ENDBRANCH   9  21
ENDBRANCH   5   9
BRANCH   2  23
ATOM     23  C   LIG    1        4.570  -1.140  -1.107  0.00  0.00    +0.076 C 
BRANCH  23  24
ATOM     24  C   LIG    1        4.019  -2.377  -0.457  0.00  0.00    -0.018 C 
ATOM     25  C   LIG    1        2.922  -3.202  -0.898  0.00  0.00    +0.005 C 
ATOM     26  C   LIG    1        2.774  -4.218   0.048  0.00  0.00    +0.049 C 
ATOM     27  C   LIG    1        1.771  -5.176  -0.036  0.00  0.00    +0.028 C 
ATOM     28  C   LIG    1        0.887  -5.088  -1.105  0.00  0.00    +0.025 C 
ATOM     29  C   LIG    1        0.971  -4.098  -2.082  0.00  0.00    +0.037 C 
ATOM     30  N   LIG    1        3.770  -4.067   0.981  0.00  0.00    -0.349 NA
ATOM     31  C   LIG    1        4.009  -4.975   2.081  0.00  0.00    +0.149 C 
ATOM     32  C   LIG    1        2.016  -3.165  -1.995  0.00  0.00    +0.033 C 
ATOM     33  C   LIG    1        4.505  -2.952   0.706  0.00  0.00    +0.090 C 
BRANCH  29  34
ATOM     34  N   LIG    1        0.040  -3.970  -3.149  0.00  0.00    -0.251 N 
ATOM     35  H   LIG    1        0.209  -3.257  -3.844  0.00  0.00    +0.158 HD
ATOM     36  C   LIG    1       -1.163  -4.606  -3.309  0.00  0.00    +0.405 C 
ATOM     37  O   LIG    1       -1.960  -4.284  -4.200  0.00  0.00    -0.226 OA
BRANCH  36  38
ATOM     38  O   LIG    1       -1.407  -5.556  -2.395  0.00  0.00    -0.447 OA
BRANCH  38  39
ATOM     39  C   LIG    1       -2.731  -5.979  -2.129  0.00  0.00    +0.178 C 
ATOM     40  C   LIG    1       -2.671  -7.234  -1.265  0.00  0.00    +0.045 C 
ATOM     41  C   LIG    1       -4.023  -7.267  -0.574  0.00  0.00    +0.004 C 
ATOM     42  C   LIG    1       -4.478  -5.810  -0.478  0.00  0.00    +0.004 C 
ATOM     43  C   LIG    1       -3.427  -4.985  -1.208  0.00  0.00    +0.045 C 
ENDBRANCH  38  39
ENDBRANCH  36  38
ENDBRANCH  29  34
ENDBRANCH  23  24
ENDBRANCH   2  23
TORSDOF 10
