REMARK  Name = *****
REMARK                            x       y       z     vdW  Elec       q    Type
REMARK                         _______ _______ _______ _____ _____    ______ ____
ROOT
ATOM      1  C   LIG    1       10.061  -6.678   5.546  0.00  0.00    -0.027 C 
ATOM      2  C   LIG    1       11.274  -7.244   5.861  0.00  0.00    -0.027 C 
ENDROOT
BRANCH   1   3
ATOM      3  C   LIG    1        9.534  -5.394   4.919  0.00  0.00    +0.054 C 
BRANCH   3   5
ATOM      4  C   LIG    1        8.863  -3.040   5.484  0.00  0.00    -0.027 C 
ATOM      5  C   LIG    1        9.672  -4.102   5.636  0.00  0.00    -0.027 C 
BRANCH   4   6
ATOM      6  C   LIG    1        7.573  -2.942   4.738  0.00  0.00    +0.054 C 
BRANCH   6   8
ATOM      7  C   LIG    1        8.304  -3.665   2.264  0.00  0.00    -0.027 C 
ATOM      8  C   LIG    1        7.482  -3.285   3.267  0.00  0.00    -0.027 C 
BRANCH   7   9
ATOM      9  C   LIG    1        9.783  -3.988   2.133  0.00  0.00    +0.054 C 
BRANCH   9  11
ATOM     10  C   LIG    1       11.891  -3.124   3.550  0.00  0.00    -0.031 C 
ATOM     11  C   LIG    1       10.745  -3.026   2.826  0.00  0.00    -0.027 C 
BRANCH  10  13
ATOM     12  C   LIG    1       12.252  -5.588   3.464  0.00  0.00    +0.008 C 
ATOM     13  C   LIG    1       12.745  -4.279   4.028  0.00  0.00    +0.023 C 
ENDBRANCH  10  13
ENDBRANCH   9  11
ENDBRANCH   7   9
ENDBRANCH   6   8
ENDBRANCH   4   6
ENDBRANCH   3   5
ENDBRANCH   1   3
BRANCH   2  14
ATOM     14  C   LIG    1       12.815  -6.838   5.919  0.00  0.00    +0.054 C 
BRANCH  14  15
ATOM     15  C   LIG    1       13.771  -7.935   6.203  0.00  0.00    -0.027 C 
ATOM     16  C   LIG    1       13.491  -8.819   7.254  0.00  0.00    -0.027 C 
BRANCH  16  17
ATOM     17  C   LIG    1       14.342  -9.928   7.533  0.00  0.00    +0.054 C 
BRANCH  17  18
ATOM     18  C   LIG    1       13.555 -11.197   7.518  0.00  0.00    -0.027 C 
ATOM     19  C   LIG    1       13.390 -12.139   6.573  0.00  0.00    -0.030 C 
BRANCH  19  20
ATOM     20  C   LIG    1       13.893 -12.248   5.157  0.00  0.00    +0.038 C 
BRANCH  20  21
ATOM     21  C   LIG    1       14.761 -13.506   4.992  0.00  0.00    +0.124 C 
BRANCH  21  22
ATOM     22  C   LIG    1       15.220 -13.790   3.646  0.00  0.00    +0.305 C 
ATOM     23  O   LIG    1       15.903 -12.886   2.904  0.00  0.00    -0.251 OA
BRANCH  22  24
ATOM     24  O   LIG    1       15.000 -15.014   3.163  0.00  0.00    -0.481 OA
ATOM     25  H   LIG    1       14.553 -15.594   3.812  0.00  0.00    +0.295 HD
ENDBRANCH  22  24
ENDBRANCH  21  22
ENDBRANCH  20  21
ENDBRANCH  19  20
ENDBRANCH  17  18
ENDBRANCH  16  17
ENDBRANCH  14  15
ENDBRANCH   2  14
TORSDOF 15
