REMARK  Name = *****
REMARK                            x       y       z     vdW  Elec       q    Type
REMARK                         _______ _______ _______ _____ _____    ______ ____
ROOT
ATOM      1  CA  VAL A  1        3.225  -0.873   1.126  0.00  0.00    +0.163 C 
ENDROOT
BRANCH   1   3
ATOM      2  CG1 VAL A  1        3.105  -3.253   2.081  0.00  0.00    +0.009 C 
ATOM      3  CB  VAL A  1        2.322  -2.085   1.469  0.00  0.00    +0.011 C 
ATOM      4  CG2 VAL A  1        1.552  -2.592   0.240  0.00  0.00    +0.009 C 
ENDBRANCH   1   3
BRANCH   1   5
ATOM      5  N   VAL A  1        4.215  -1.219   0.085  0.00  0.00    -0.318 NA
ATOM      6  H1  VAL A  1        4.721  -0.416  -0.278  0.00  0.00    +0.119 HD
ATOM      7  H2  VAL A  1        4.803  -2.009   0.334  0.00  0.00    +0.119 HD
ENDBRANCH   1   5
BRANCH   1   8
ATOM      8  C   VAL A  1        3.910  -0.295   2.386  0.00  0.00    +0.322 C 
ATOM      9  O   VAL A  1        3.312   0.108   3.375  0.00  0.00    -0.249 OA
BRANCH   8  10
ATOM     10  OXT VAL A  1        5.259  -0.263   2.308  0.00  0.00    -0.479 OA
ATOM     11  HXT VAL A  1        5.560  -0.621   1.455  0.00  0.00    +0.295 HD
ENDBRANCH   8  10
ENDBRANCH   1   8
TORSDOF 4
