REMARK  Name = *****
REMARK                            x       y       z     vdW  Elec       q    Type
REMARK                         _______ _______ _______ _____ _____    ______ ____
ROOT
ATOM      1  CA  PRO A  1        2.860  -0.547   1.121  0.00  0.00    +0.163 C 
ATOM      2  N   PRO A  1        2.144  -0.313   2.388  0.00  0.00    -0.304 NA
ATOM      3  H   PRO A  1        2.314   0.631   2.731  0.00  0.00    +0.123 HD
ATOM      4  CD  PRO A  1        2.619  -1.342   3.298  0.00  0.00    +0.082 C 
ATOM      5  CG  PRO A  1        2.652  -2.583   2.423  0.00  0.00    +0.017 C 
ATOM      6  CB  PRO A  1        2.775  -2.063   0.992  0.00  0.00    +0.031 C 
ENDROOT
BRANCH   1   8
ATOM      7  O   PRO A  1        1.657   1.327   0.107  0.00  0.00    -0.249 OA
ATOM      8  C   PRO A  1        2.236   0.256  -0.029  0.00  0.00    +0.322 C 
BRANCH   8   9
ATOM      9  OXT PRO A  1        2.483  -0.254  -1.261  0.00  0.00    -0.479 OA
ATOM     10  HXT PRO A  1        2.987  -1.087  -1.267  0.00  0.00    +0.295 HD
ENDBRANCH   8   9
ENDBRANCH   1   8
TORSDOF 2
