REMARK  Name = *****
REMARK                            x       y       z     vdW  Elec       q    Type
REMARK                         _______ _______ _______ _____ _____    ______ ____
ROOT
ATOM      1  C   LIG    1        1.692   0.140  -0.692  0.00  0.00    +0.118 A 
ATOM      2  N   LIG    1        2.417  -0.962  -0.430  0.00  0.00    -0.216 NA
ATOM      3  C   LIG    1        3.683  -0.791   0.009  0.00  0.00    +0.146 A 
ATOM      4  C   LIG    1        4.269   0.470   0.204  0.00  0.00    +0.126 A 
ATOM      5  C   LIG    1        3.491   1.592  -0.079  0.00  0.00    +0.036 A 
ATOM      6  C   LIG    1        2.189   1.427  -0.541  0.00  0.00    +0.045 A 
ENDROOT
BRANCH   1   7
ATOM      7  N   LIG    1        0.397  -0.062  -1.163  0.00  0.00    -0.343 N 
ATOM      8  H   LIG    1        0.232  -1.066  -1.148  0.00  0.00    +0.144 HD
ATOM      9  H   LIG    1       -0.284   0.435  -0.601  0.00  0.00    +0.144 HD
ENDBRANCH   1   7
BRANCH   3  10
ATOM     10  N   LIG    1        4.376  -1.972   0.313  0.00  0.00    -0.341 N 
ATOM     11  H   LIG    1        3.801  -2.748  -0.001  0.00  0.00    +0.144 HD
ATOM     12  H   LIG    1        5.296  -1.959  -0.116  0.00  0.00    +0.144 HD
ENDBRANCH   3  10
BRANCH   4  13
ATOM     13  N   LIG    1        5.577   0.625   0.702  0.00  0.00    -0.146 NA
ATOM     14  N   LIG    1        6.389   0.708  -0.245  0.00  0.00    -0.149 NA
BRANCH  14  15
ATOM     15  C   LIG    1        7.707   0.894   0.220  0.00  0.00    +0.086 A 
ATOM     16  C   LIG    1        8.259   0.140   1.267  0.00  0.00    +0.029 A 
ATOM     17  C   LIG    1        9.580   0.342   1.674  0.00  0.00    +0.002 A 
ATOM     18  C   LIG    1       10.369   1.295   1.031  0.00  0.00    +0.000 A 
ATOM     19  C   LIG    1        9.839   2.042  -0.019  0.00  0.00    +0.002 A 
ATOM     20  C   LIG    1        8.517   1.837  -0.423  0.00  0.00    +0.029 A 
ENDBRANCH  14  15
ENDBRANCH   4  13
TORSDOF 4
