REMARK  Name = *****
REMARK                            x       y       z     vdW  Elec       q    Type
REMARK                         _______ _______ _______ _____ _____    ______ ____
ROOT
ATOM      1  C   LIG    1        2.479  -0.054  -0.029  0.00  0.00    +0.017 C 
ATOM      2  C   LIG    1        3.298  -0.046   1.280  0.00  0.00    +0.025 C 
ATOM      3  C   LIG    1        4.804  -0.046   0.961  0.00  0.00    -0.009 C 
ATOM      4  C   LIG    1        5.147   1.204   0.133  0.00  0.00    +0.007 C 
ATOM      5  C   LIG    1        4.346   1.204  -1.180  0.00  0.00    -0.009 C 
ATOM      6  C   LIG    1        4.691  -0.060  -1.985  0.00  0.00    +0.007 C 
ATOM      7  C   LIG    1        4.349  -1.317  -1.168  0.00  0.00    -0.009 C 
ATOM      8  C   LIG    1        5.150  -1.303   0.145  0.00  0.00    +0.007 C 
ATOM      9  C   LIG    1        2.841   1.201  -0.855  0.00  0.00    +0.025 C 
ATOM     10  C   LIG    1        2.844  -1.315  -0.843  0.00  0.00    +0.025 C 
ENDROOT
BRANCH   1  11
ATOM     11  N   LIG    1        1.050  -0.065   0.281  0.00  0.00    -0.325 NA
ATOM     12  H   LIG    1        0.793   0.796   0.761  0.00  0.00    +0.119 HD
ATOM     13  H   LIG    1        0.509  -0.080  -0.582  0.00  0.00    +0.119 HD
ENDBRANCH   1  11
TORSDOF 1
