REMARK  Name = *****
REMARK                            x       y       z     vdW  Elec       q    Type
REMARK                         _______ _______ _______ _____ _____    ______ ____
ROOT
ATOM      1  C   LIG    1        4.098   1.599  -2.454  0.00  0.00    +0.006 C 
ATOM      2  C   LIG    1        3.738   0.714  -3.635  0.00  0.00    +0.107 C 
ATOM      3  S   LIG    1        5.096   0.516  -4.822  0.00  0.00    -0.131 S 
ATOM      4  C   LIG    1        5.347   2.304  -4.979  0.00  0.00    +0.169 C 
ATOM      5  N   LIG    1        5.691   2.858  -3.682  0.00  0.00    -0.249 N 
ATOM      6  C   LIG    1        6.985   3.127  -3.983  0.00  0.00    +0.244 C 
ATOM      7  O   LIG    1        7.898   3.452  -3.245  0.00  0.00    -0.273 OA
ATOM      8  CA  LIG    1        6.756   2.759  -5.480  0.00  0.00    +0.191 C 
ATOM      9  CA  LIG    1        5.036   2.586  -2.501  0.00  0.00    +0.125 C 
ENDROOT
BRANCH   8  10
ATOM     10  N   LIG    1        7.643   1.712  -6.076  0.00  0.00    -0.301 N 
ATOM     11  H   LIG    1        7.322   0.749  -6.115  0.00  0.00    +0.150 HD
ATOM     12  C   LIG    1        8.848   2.035  -6.671  0.00  0.00    +0.224 C 
ATOM     13  O   LIG    1        9.238   3.196  -6.761  0.00  0.00    -0.275 OA
BRANCH  12  14
ATOM     14  C   LIG    1        9.661   0.852  -7.186  0.00  0.00    +0.170 C 
BRANCH  14  15
ATOM     15  S   LIG    1        9.182   0.436  -8.902  0.00  0.00    -0.116 S 
BRANCH  15  16
ATOM     16  C   LIG    1       10.341  -0.883  -9.267  0.00  0.00    +0.011 A 
ATOM     17  C   LIG    1        9.878  -2.141  -9.661  0.00  0.00    +0.034 A 
ATOM     18  C   LIG    1       10.808  -3.135  -9.930  0.00  0.00    +0.112 A 
ATOM     19  N   LIG    1       12.143  -2.955  -9.853  0.00  0.00    -0.263 NA
ATOM     20  C   LIG    1       12.567  -1.723  -9.505  0.00  0.00    +0.112 A 
ATOM     21  C   LIG    1       11.717  -0.668  -9.210  0.00  0.00    +0.034 A 
ENDBRANCH  15  16
ENDBRANCH  14  15
ENDBRANCH  12  14
ENDBRANCH   8  10
BRANCH   9  22
ATOM     22  C   LIG    1        5.311   3.450  -1.278  0.00  0.00    +0.351 C 
ATOM     23  O   LIG    1        4.489   3.636  -0.391  0.00  0.00    -0.244 OA
BRANCH  22  24
ATOM     24  OXT LIG    1        6.471   4.131  -1.255  0.00  0.00    -0.476 OA
ATOM     25  HXT LIG    1        7.146   3.888  -1.926  0.00  0.00    +0.295 HD
ENDBRANCH  22  24
ENDBRANCH   9  22
BRANCH   1  26
ATOM     26  C   LIG    1        3.320   1.208  -1.207  0.00  0.00    +0.266 C 
BRANCH  26  27
ATOM     27  O   LIG    1        3.499  -0.174  -0.854  0.00  0.00    -0.460 OA
BRANCH  27  29
ATOM     28  C   LIG    1        4.496  -1.639   0.666  0.00  0.00    +0.136 C 
ATOM     29  C   LIG    1        4.679  -0.458  -0.234  0.00  0.00    +0.304 C 
ATOM     30  O   LIG    1        5.703   0.205  -0.311  0.00  0.00    -0.251 OA
ENDBRANCH  27  29
ENDBRANCH  26  27
ENDBRANCH   1  26
TORSDOF 9
