REMARK  Name = *****
REMARK                            x       y       z     vdW  Elec       q    Type
REMARK                         _______ _______ _______ _____ _____    ______ ____
ROOT
ATOM      1  S   LIG    1        5.972   3.297   0.275  0.00  0.00    +0.074 S 
ATOM      2  O   LIG    1        5.428   2.889   1.561  0.00  0.00    -0.150 OA
ATOM      3  O   LIG    1        5.298   4.292  -0.527  0.00  0.00    -0.150 OA
ENDROOT
BRANCH   1   4
ATOM      4  C   LIG    1        7.643   3.818   0.525  0.00  0.00    +0.109 A 
ATOM      5  C   LIG    1        8.477   4.020  -0.575  0.00  0.00    +0.030 A 
ATOM      6  C   LIG    1        9.804   4.406  -0.372  0.00  0.00    +0.024 A 
ATOM      7  C   LIG    1       10.291   4.647   0.917  0.00  0.00    +0.025 A 
ATOM      8  C   LIG    1        9.454   4.399   2.010  0.00  0.00    +0.024 A 
ATOM      9  C   LIG    1        8.127   4.005   1.822  0.00  0.00    +0.030 A 
BRANCH   7  10
ATOM     10  N   LIG    1       11.652   4.899   1.119  0.00  0.00    -0.358 N 
ATOM     11  H   LIG    1       12.105   5.358   0.334  0.00  0.00    +0.142 HD
ATOM     12  H   LIG    1       11.859   5.357   2.001  0.00  0.00    +0.142 HD
ENDBRANCH   7  10
ENDBRANCH   1   4
BRANCH   1  13
ATOM     13  N   LIG    1        6.147   1.840  -0.578  0.00  0.00    -0.197 N 
ATOM     14  H   LIG    1        5.731   1.121   0.014  0.00  0.00    +0.175 HD
BRANCH  13  19
ATOM     15  C   LIG    1        3.472   1.582  -4.779  0.00  0.00    +0.089 C 
ATOM     16  C   LIG    1        4.460   1.684  -3.692  0.00  0.00    +0.136 A 
ATOM     17  O   LIG    1        5.705   2.103  -4.045  0.00  0.00    -0.358 OA
ATOM     18  N   LIG    1        6.494   2.198  -2.912  0.00  0.00    -0.062 NA
ATOM     19  C   LIG    1        5.705   1.843  -1.895  0.00  0.00    +0.181 A 
ATOM     20  C   LIG    1        4.423   1.464  -2.337  0.00  0.00    +0.092 A 
ENDBRANCH  13  19
ENDBRANCH   1  13
TORSDOF 4
