REMARK  Name = *****
REMARK                            x       y       z     vdW  Elec       q    Type
REMARK                         _______ _______ _______ _____ _____    ______ ____
ROOT
ATOM      1  C   LIG    1        6.171  -1.232   2.640  0.00  0.00    +0.234 C 
ATOM      2  N   LIG    1        5.677  -2.425   3.183  0.00  0.00    -0.284 N 
ATOM      3  H   LIG    1        4.862  -2.330   3.768  0.00  0.00    +0.155 HD
ATOM      4  O   LIG    1        7.358  -1.039   2.409  0.00  0.00    -0.274 OA
ENDROOT
BRANCH   2   5
ATOM      5  C   LIG    1        6.574  -3.460   3.560  0.00  0.00    +0.039 A 
ATOM      6  C   LIG    1        6.563  -3.938   4.890  0.00  0.00    -0.029 A 
ATOM      7  C   LIG    1        5.544  -3.507   5.910  0.00  0.00    +0.045 C 
ATOM      8  C   LIG    1        7.550  -4.858   5.288  0.00  0.00    +0.005 A 
ATOM      9  C   LIG    1        8.514  -5.308   4.390  0.00  0.00    +0.001 A 
ATOM     10  C   LIG    1        8.463  -4.902   3.062  0.00  0.00    +0.005 A 
ATOM     11  C   LIG    1        7.472  -4.012   2.624  0.00  0.00    -0.029 A 
ATOM     12  C   LIG    1        7.369  -3.783   1.140  0.00  0.00    +0.045 C 
ENDBRANCH   2   5
BRANCH   1  13
ATOM     13  C   LIG    1        5.116  -0.106   2.372  0.00  0.00    +0.143 C 
BRANCH  13  14
ATOM     14  C   LIG    1        4.107  -0.023   3.551  0.00  0.00    +0.025 C 
ATOM     15  C   LIG    1        3.177   1.179   3.557  0.00  0.00    +0.006 C 
ENDBRANCH  13  14
BRANCH  13  16
ATOM     16  N   LIG    1        4.542  -0.126   0.991  0.00  0.00    -0.292 NA
BRANCH  16  17
ATOM     17  C   LIG    1        3.440  -1.085   0.796  0.00  0.00    +0.082 C 
ATOM     18  C   LIG    1        2.631  -0.834  -0.481  0.00  0.00    +0.020 C 
ENDBRANCH  16  17
BRANCH  16  19
ATOM     19  C   LIG    1        5.534  -0.235  -0.107  0.00  0.00    +0.085 C 
BRANCH  19  21
ATOM     20  C   LIG    1        7.589   0.468  -1.375  0.00  0.00    +0.005 C 
ATOM     21  C   LIG    1        6.730   0.730  -0.136  0.00  0.00    +0.012 C 
ENDBRANCH  19  21
ENDBRANCH  16  19
ENDBRANCH  13  16
ENDBRANCH   1  13
TORSDOF 7
