REMARK  Name = *****
REMARK                            x       y       z     vdW  Elec       q    Type
REMARK                         _______ _______ _______ _____ _____    ______ ____
ROOT
ATOM      1  CA  HIS A  1        2.500   0.171  -0.154  0.00  0.00    +0.167 C 
ENDROOT
BRANCH   1   2
ATOM      2  N   HIS A  1        3.162   0.868  -1.308  0.00  0.00    -0.318 NA
ATOM      3  H1  HIS A  1        2.844   1.855  -1.249  0.00  0.00    +0.119 HD
ATOM      4  H2  HIS A  1        4.151   0.968  -1.056  0.00  0.00    +0.119 HD
ENDBRANCH   1   2
BRANCH   1   5
ATOM      5  C   HIS A  1        1.017  -0.069  -0.473  0.00  0.00    +0.322 C 
ATOM      6  O   HIS A  1        0.226  -0.628   0.284  0.00  0.00    -0.249 OA
BRANCH   5   7
ATOM      7  OXT HIS A  1        0.665   0.356  -1.712  0.00  0.00    -0.479 OA
ATOM      8  HXT HIS A  1        1.486   0.714  -2.129  0.00  0.00    +0.295 HD
ENDBRANCH   5   7
ENDBRANCH   1   5
BRANCH   1   9
ATOM      9  CB  HIS A  1        2.659   0.924   1.179  0.00  0.00    +0.086 C 
BRANCH   9  10
ATOM     10  CG  HIS A  1        2.103   2.310   1.173  0.00  0.00    +0.061 A 
ATOM     11  ND1 HIS A  1        2.034   3.045   0.009  0.00  0.00    -0.241 NA
ATOM     12  CE1 HIS A  1        1.475   4.184   0.344  0.00  0.00    +0.196 A 
ATOM     13  NE2 HIS A  1        1.208   4.235   1.682  0.00  0.00    -0.351 N 
ATOM     14  HE2 HIS A  1        0.783   5.009   2.173  0.00  0.00    +0.166 HD
ATOM     15  CD2 HIS A  1        1.611   3.048   2.228  0.00  0.00    +0.107 A 
ENDBRANCH   9  10
ENDBRANCH   1   9
TORSDOF 5
