REMARK  Name = *****
REMARK                            x       y       z     vdW  Elec       q    Type
REMARK                         _______ _______ _______ _____ _____    ______ ____
ROOT
ATOM      1  C   LIG    1        3.737   0.919   0.011  0.00  0.00    +0.105 C 
ATOM      2  N   LIG    1        3.457   0.480   1.397  0.00  0.00    -0.304 NA
ATOM      3  C   LIG    1        2.253  -0.351   1.252  0.00  0.00    +0.093 C 
ATOM      4  C   LIG    1        2.934  -1.700   0.905  0.00  0.00    +0.045 C 
ATOM      5  C   LIG    1        3.731  -1.927   2.175  0.00  0.00    +0.045 C 
ATOM      6  C   LIG    1        2.727  -2.166   3.312  0.00  0.00    -0.000 A 
ATOM      7  C   LIG    1        1.507  -2.857   3.087  0.00  0.00    +0.132 A 
ATOM      8  O   LIG    1        1.310  -3.856   2.155  0.00  0.00    -0.456 OA
ATOM      9  C   LIG    1        1.249  -3.566   0.818  0.00  0.00    +0.132 A 
ATOM     10  C   LIG    1        0.397  -4.309   0.008  0.00  0.00    +0.048 A 
ATOM     11  C   LIG    1        0.387  -4.186  -1.397  0.00  0.00    +0.023 A 
ATOM     12  C   LIG    1        1.297  -3.319  -2.002  0.00  0.00    +0.042 A 
ATOM     13 CL   LIG    1        1.396  -3.179  -3.714  0.00  0.00    -0.084 Cl
ATOM     14  C   LIG    1        2.116  -2.571  -1.217  0.00  0.00    +0.027 A 
ATOM     15  C   LIG    1        0.390  -2.579   3.882  0.00  0.00    +0.046 A 
ATOM     16  C   LIG    1        0.474  -1.653   4.918  0.00  0.00    +0.004 A 
ATOM     17  C   LIG    1        1.707  -1.099   5.249  0.00  0.00    +0.001 A 
ATOM     18  C   LIG    1        2.837  -1.380   4.477  0.00  0.00    +0.007 A 
ATOM     19  C   LIG    1        2.085  -2.647   0.201  0.00  0.00    +0.001 A 
ATOM     20  C   LIG    1        4.443  -0.496   2.037  0.00  0.00    +0.093 C 
ENDROOT
TORSDOF 0
