REMARK  Name = *****
REMARK                            x       y       z     vdW  Elec       q    Type
REMARK                         _______ _______ _______ _____ _____    ______ ____
ROOT
ATOM      1  C   LIG    1       10.926   1.328  -2.387  0.00  0.00    -0.004 C 
ATOM      2  C   LIG    1       12.091   0.550  -2.346  0.00  0.00    -0.016 C 
ATOM      3  C   LIG    1       12.372  -0.527  -1.381  0.00  0.00    +0.015 C 
ATOM      4  C   LIG    1       12.500  -1.805  -1.848  0.00  0.00    +0.078 C 
ATOM      5  C   LIG    1       12.512  -1.895  -3.335  0.00  0.00    +0.203 C 
ATOM      6  N   LIG    1       11.899  -2.847  -4.039  0.00  0.00    -0.229 N 
ATOM      7  C   LIG    1       13.312  -0.769  -3.937  0.00  0.00    +0.078 C 
ATOM      8  C   LIG    1       13.103   0.454  -3.373  0.00  0.00    +0.015 C 
ENDROOT
BRANCH   1  12
ATOM      9  C   LIG    1        7.716   0.643   0.767  0.00  0.00    +0.030 A 
ATOM     10  C   LIG    1        7.645   1.462  -0.333  0.00  0.00    +0.024 A 
ATOM     11  C   LIG    1        8.613   1.645  -1.333  0.00  0.00    +0.010 A 
ATOM     12  C   LIG    1        9.855   1.042  -1.329  0.00  0.00    -0.017 A 
ATOM     13  C   LIG    1        9.905   0.161  -0.233  0.00  0.00    +0.010 A 
ATOM     14  C   LIG    1        8.945   0.030   0.793  0.00  0.00    +0.024 A 
BRANCH   9  15
ATOM     15  N   LIG    1        6.698   0.419   1.682  0.00  0.00    -0.330 N 
BRANCH  15  17
ATOM     16  C   LIG    1        5.249   2.412   0.814  0.00  0.00    +0.024 C 
ATOM     17  C   LIG    1        5.431   1.241   1.762  0.00  0.00    +0.102 C 
ENDBRANCH  15  17
BRANCH  15  18
ATOM     18  C   LIG    1        6.729  -0.634   2.763  0.00  0.00    +0.102 C 
ATOM     19  C   LIG    1        7.525  -1.923   2.544  0.00  0.00    +0.024 C 
ENDBRANCH  15  18
ENDBRANCH   9  15
ENDBRANCH   1  12
BRANCH   1  20
ATOM     20  C   LIG    1       10.741   2.448  -3.521  0.00  0.00    -0.017 A 
ATOM     21  C   LIG    1       11.536   2.553  -4.676  0.00  0.00    +0.008 A 
ATOM     22  C   LIG    1       11.417   3.573  -5.645  0.00  0.00    +0.001 A 
ATOM     23  C   LIG    1       10.391   4.493  -5.577  0.00  0.00    +0.000 A 
ATOM     24  C   LIG    1        9.533   4.419  -4.504  0.00  0.00    +0.001 A 
ATOM     25  C   LIG    1        9.763   3.476  -3.475  0.00  0.00    +0.008 A 
ENDBRANCH   1  20
BRANCH   6  26
ATOM     26  C   LIG    1       12.015  -2.896  -5.535  0.00  0.00    +0.347 C 
ATOM     27  C   LIG    1       11.348  -1.702  -6.194  0.00  0.00    +0.082 C 
ENDBRANCH   6  26
BRANCH   6  28
ATOM     28  C   LIG    1       11.068  -3.932  -3.405  0.00  0.00    +0.347 C 
ATOM     29  C   LIG    1        9.848  -3.359  -2.682  0.00  0.00    +0.082 C 
ENDBRANCH   6  28
TORSDOF 7
