REMARK  Name = *****
REMARK                            x       y       z     vdW  Elec       q    Type
REMARK                         _______ _______ _______ _____ _____    ______ ____
ROOT
ATOM      1  C   LIG    1        3.108   0.642   0.608  0.00  0.00    +0.125 A 
ATOM      2  C   LIG    1        4.208   0.814  -0.234  0.00  0.00    +0.071 A 
ATOM      3 CL   LIG    1        5.358  -0.428  -0.569  0.00  0.00    -0.081 Cl
ATOM      4  C   LIG    1        4.419   2.057  -0.854  0.00  0.00    +0.073 A 
ATOM      5  C   LIG    1        3.539   3.127  -0.655  0.00  0.00    +0.149 A 
ATOM      6  N   LIG    1        3.790   4.369  -1.226  0.00  0.00    -0.200 N 
ATOM      7  H   LIG    1        4.490   4.425  -1.964  0.00  0.00    +0.298 HD
ATOM      8  C   LIG    1        3.010   5.485  -1.034  0.00  0.00    +0.328 C 
ATOM      9  N   LIG    1        1.958   5.579  -0.289  0.00  0.00    +0.091 NA
ATOM     10  S   LIG    1        1.368   4.284   0.480  0.00  0.00    +0.182 S 
ATOM     11  O   LIG    1        0.120   3.900  -0.151  0.00  0.00    -0.125 OA
ATOM     12  O   LIG    1        1.425   4.523   1.910  0.00  0.00    -0.125 OA
ATOM     13  C   LIG    1        2.462   2.930   0.194  0.00  0.00    +0.181 A 
ATOM     14  C   LIG    1        2.224   1.705   0.824  0.00  0.00    +0.065 A 
ENDROOT
BRANCH   1  15
ATOM     15  S   LIG    1        2.844  -0.898   1.424  0.00  0.00    +0.057 S 
ATOM     16  O   LIG    1        2.467  -1.884   0.445  0.00  0.00    -0.153 OA
ATOM     17  O   LIG    1        3.902  -1.091   2.395  0.00  0.00    -0.153 OA
BRANCH  15  18
ATOM     18  N   LIG    1        1.460  -0.641   2.345  0.00  0.00    -0.203 NA
ATOM     19  H   LIG    1        0.710  -1.255   2.025  0.00  0.00    +0.144 HD
ATOM     20  H   LIG    1        1.680  -0.738   3.337  0.00  0.00    +0.144 HD
ENDBRANCH  15  18
ENDBRANCH   1  15
BRANCH   8  21
ATOM     21  C   LIG    1        3.462   6.784  -1.729  0.00  0.00    +0.200 C 
BRANCH  21  22
ATOM     22  S   LIG    1        4.389   6.421  -3.271  0.00  0.00    -0.144 S 
BRANCH  22  23
ATOM     23  C   LIG    1        4.888   8.107  -3.789  0.00  0.00    +0.104 C 
BRANCH  23  24
ATOM     24  C   LIG    1        5.812   8.782  -2.807  0.00  0.00    -0.037 A 
ATOM     25  C   LIG    1        7.193   8.532  -2.818  0.00  0.00    +0.004 A 
ATOM     26  C   LIG    1        8.019   9.068  -1.826  0.00  0.00    +0.000 A 
ATOM     27  C   LIG    1        7.481   9.877  -0.827  0.00  0.00    +0.000 A 
ATOM     28  C   LIG    1        6.121  10.178  -0.838  0.00  0.00    +0.000 A 
ATOM     29  C   LIG    1        5.293   9.640  -1.824  0.00  0.00    +0.004 A 
ENDBRANCH  23  24
ENDBRANCH  22  23
ENDBRANCH  21  22
ENDBRANCH   8  21
TORSDOF 6
