REMARK  Name = *****
REMARK                            x       y       z     vdW  Elec       q    Type
REMARK                         _______ _______ _______ _____ _____    ______ ____
ROOT
ATOM      1  O   LIG    1        6.340   3.412   3.488  0.00  0.00    -0.471 OA
ENDROOT
BRANCH   1   2
ATOM      2  C   LIG    1        7.656   3.769   3.652  0.00  0.00    +0.265 A 
ATOM      3  C   LIG    1        8.314   4.024   4.938  0.00  0.00    +0.194 A 
ATOM      4  N   LIG    1        9.613   4.356   4.808  0.00  0.00    -0.172 NA
ATOM      5  S   LIG    1        9.925   4.340   3.176  0.00  0.00    +0.121 S 
ATOM      6  N   LIG    1        8.431   3.889   2.578  0.00  0.00    -0.153 NA
BRANCH   3   7
ATOM      7  N   LIG    1        7.680   3.904   6.147  0.00  0.00    -0.306 N 
ATOM      8  C   LIG    1        6.660   4.928   6.465  0.00  0.00    +0.135 C 
ATOM      9  C   LIG    1        5.811   4.460   7.656  0.00  0.00    +0.178 C 
ATOM     10  O   LIG    1        6.623   4.166   8.805  0.00  0.00    -0.377 OA
ATOM     11  C   LIG    1        7.584   3.145   8.486  0.00  0.00    +0.178 C 
ATOM     12  C   LIG    1        8.507   3.592   7.340  0.00  0.00    +0.135 C 
ENDBRANCH   3   7
ENDBRANCH   1   2
BRANCH   1  13
ATOM     13  C   LIG    1        5.988   3.114   2.123  0.00  0.00    +0.263 C 
BRANCH  13  14
ATOM     14  C   LIG    1        4.491   2.758   2.018  0.00  0.00    +0.166 C 
BRANCH  14  15
ATOM     15  O   LIG    1        4.217   1.585   2.799  0.00  0.00    -0.387 OA
ATOM     16  H   LIG    1        4.478   1.808   3.711  0.00  0.00    +0.210 HD
ENDBRANCH  14  15
BRANCH  14  17
ATOM     17  C   LIG    1        4.114   2.479   0.544  0.00  0.00    +0.116 C 
BRANCH  17  18
ATOM     18  N   LIG    1        2.682   2.162   0.395  0.00  0.00    -0.309 NA
ATOM     19  H   LIG    1        2.481   1.368   1.010  0.00  0.00    +0.122 HD
BRANCH  18  21
ATOM     20  C   LIG    1        2.437   3.087  -1.897  0.00  0.00    +0.027 C 
ATOM     21  C   LIG    1        2.232   1.867  -0.982  0.00  0.00    +0.011 C 
ATOM     22  C   LIG    1        2.933   0.632  -1.574  0.00  0.00    +0.027 C 
ATOM     23  C   LIG    1        0.718   1.572  -0.925  0.00  0.00    +0.027 C 
ENDBRANCH  18  21
ENDBRANCH  17  18
ENDBRANCH  14  17
ENDBRANCH  13  14
ENDBRANCH   1  13
TORSDOF 8
