REMARK  Name = *****
REMARK                            x       y       z     vdW  Elec       q    Type
REMARK                         _______ _______ _______ _____ _____    ______ ____
ROOT
ATOM      1  CA  SER A  1        2.465  -0.032  -0.128  0.00  0.00    +0.186 C 
ENDROOT
BRANCH   1   2
ATOM      2  N   SER A  1        2.942   0.383   1.220  0.00  0.00    -0.317 NA
ATOM      3  H1  SER A  1        2.493  -0.231   1.910  0.00  0.00    +0.119 HD
ATOM      4  H2  SER A  1        3.932   0.134   1.297  0.00  0.00    +0.119 HD
ENDBRANCH   1   2
BRANCH   1   5
ATOM      5  C   SER A  1        2.748  -1.513  -0.376  0.00  0.00    +0.324 C 
ATOM      6  O   SER A  1        2.777  -2.358   0.506  0.00  0.00    -0.249 OA
BRANCH   5   7
ATOM      7  OXT SER A  1        2.958  -1.819  -1.677  0.00  0.00    -0.479 OA
ATOM      8  HXT SER A  1        2.934  -1.058  -2.290  0.00  0.00    +0.295 HD
ENDBRANCH   5   7
ENDBRANCH   1   5
BRANCH   1   9
ATOM      9  CB  SER A  1        0.957   0.204  -0.241  0.00  0.00    +0.185 C 
BRANCH   9  10
ATOM     10  OG  SER A  1        0.660   1.581  -0.018  0.00  0.00    -0.393 OA
ATOM     11  H   SER A  1        1.213   1.846   0.746  0.00  0.00    +0.209 HD
ENDBRANCH   9  10
ENDBRANCH   1   9
TORSDOF 5
