REMARK  Name = *****
REMARK                            x       y       z     vdW  Elec       q    Type
REMARK                         _______ _______ _______ _____ _____    ______ ____
ROOT
ATOM      1  C   LIG    1       -3.284  -2.895  -0.340  0.00  0.00    +0.264 C 
ENDROOT
BRANCH   1   2
ATOM      2  O   LIG    1       -3.659  -3.531  -1.565  0.00  0.00    -0.486 OA
BRANCH   2   4
ATOM      3  C   LIG    1       -1.570  -3.068  -2.846  0.00  0.00    +0.162 A 
ATOM      4  C   LIG    1       -2.653  -3.872  -2.435  0.00  0.00    +0.162 A 
ATOM      5  C   LIG    1       -2.823  -5.141  -3.013  0.00  0.00    +0.049 A 
ATOM      6  C   LIG    1       -1.905  -5.639  -3.938  0.00  0.00    +0.004 A 
ATOM      7  C   LIG    1       -0.825  -4.858  -4.323  0.00  0.00    +0.004 A 
ATOM      8  C   LIG    1       -0.676  -3.574  -3.802  0.00  0.00    +0.049 A 
BRANCH   3  10
ATOM      9  C   LIG    1       -0.121  -1.235  -2.373  0.00  0.00    +0.277 C 
ATOM     10  O   LIG    1       -1.444  -1.784  -2.374  0.00  0.00    -0.491 OA
ENDBRANCH   3  10
ENDBRANCH   2   4
ENDBRANCH   1   2
BRANCH   1  11
ATOM     11  C   LIG    1       -4.204  -1.704  -0.052  0.00  0.00    +0.189 C 
BRANCH  11  12
ATOM     12  O   LIG    1       -5.554  -2.132   0.198  0.00  0.00    -0.385 OA
ATOM     13  H   LIG    1       -6.078  -1.994  -0.617  0.00  0.00    +0.210 HD
ENDBRANCH  11  12
BRANCH  11  14
ATOM     14  C   LIG    1       -4.163  -0.655  -1.167  0.00  0.00    +0.268 C 
BRANCH  14  15
ATOM     15  O   LIG    1       -4.676   0.570  -0.620  0.00  0.00    -0.448 OA
BRANCH  15  16
ATOM     16  C   LIG    1       -6.016   0.727  -0.748  0.00  0.00    +0.398 C 
ATOM     17  O   LIG    1       -6.755   0.094  -1.458  0.00  0.00    -0.227 OA
ATOM     18  N   LIG    1       -6.412   1.713   0.092  0.00  0.00    -0.295 N 
ATOM     19  H   LIG    1       -7.360   2.040   0.023  0.00  0.00    +0.148 HD
ATOM     20  H   LIG    1       -5.721   2.195   0.637  0.00  0.00    +0.148 HD
ENDBRANCH  15  16
ENDBRANCH  14  15
ENDBRANCH  11  14
ENDBRANCH   1  11
TORSDOF 8
