REMARK  Name = *****
REMARK                            x       y       z     vdW  Elec       q    Type
REMARK                         _______ _______ _______ _____ _____    ______ ____
ROOT
ATOM      1  C   LIG    1        1.565  -0.707   0.977  0.00  0.00    +0.157 C 
ATOM      2  N   LIG    1        2.943  -0.303   0.769  0.00  0.00    -0.264 N 
ATOM      3  C   LIG    1        3.167   0.878   0.079  0.00  0.00    +0.333 C 
ATOM      4  O   LIG    1        2.235   1.609  -0.265  0.00  0.00    -0.246 OA
ATOM      5  N   LIG    1        4.494   1.179  -0.228  0.00  0.00    -0.277 N 
ATOM      6  C   LIG    1        5.572   0.452   0.277  0.00  0.00    +0.111 C 
ATOM      7  C   LIG    1        5.319  -0.652   0.998  0.00  0.00    +0.112 C 
ATOM      8  C   LIG    1        3.947  -1.112   1.246  0.00  0.00    +0.258 C 
ATOM      9  O   LIG    1        3.776  -2.167   1.852  0.00  0.00    -0.268 OA
ENDROOT
BRANCH   6  10
ATOM     10  N   LIG    1        6.897   0.855   0.035  0.00  0.00    -0.315 N 
ATOM     11  C   LIG    1        7.853  -0.074  -0.619  0.00  0.00    +0.124 C 
ATOM     12  C   LIG    1        8.954   0.735  -1.344  0.00  0.00    +0.068 C 
ATOM     13  C   LIG    1        9.679   1.639  -0.340  0.00  0.00    +0.021 C 
ATOM     14  C   LIG    1        8.683   2.521   0.412  0.00  0.00    +0.020 C 
ATOM     15  C   LIG    1        7.558   1.706   1.050  0.00  0.00    +0.106 C 
BRANCH  12  16
ATOM     16  N   LIG    1        9.921  -0.134  -2.026  0.00  0.00    -0.326 NA
ATOM     17  H   LIG    1       10.591   0.444  -2.536  0.00  0.00    +0.118 HD
ATOM     18  H   LIG    1       10.468  -0.654  -1.341  0.00  0.00    +0.118 HD
ENDBRANCH  12  16
ENDBRANCH   6  10
BRANCH   5  19
ATOM     19  C   LIG    1        4.700   2.254  -1.232  0.00  0.00    +0.164 C 
BRANCH  19  20
ATOM     20  C   LIG    1        4.582   1.776  -2.685  0.00  0.00    -0.010 A 
ATOM     21  C   LIG    1        4.165   2.588  -3.765  0.00  0.00    +0.057 A 
ATOM     22  C   LIG    1        4.113   2.059  -5.071  0.00  0.00    +0.019 A 
ATOM     23  C   LIG    1        4.489   0.744  -5.333  0.00  0.00    +0.001 A 
ATOM     24  C   LIG    1        4.921  -0.057  -4.291  0.00  0.00    +0.000 A 
ATOM     25  C   LIG    1        4.965   0.455  -2.995  0.00  0.00    +0.007 A 
BRANCH  21  26
ATOM     26  C   LIG    1        3.791   3.978  -3.648  0.00  0.00    +0.100 C 
ATOM     27  N   LIG    1        3.494   5.094  -3.675  0.00  0.00    -0.191 NA
ENDBRANCH  21  26
ENDBRANCH  19  20
ENDBRANCH   5  19
TORSDOF 5
