REMARK  Name = *****
REMARK                            x       y       z     vdW  Elec       q    Type
REMARK                         _______ _______ _______ _____ _____    ______ ____
ROOT
ATOM      1  C   LIG    1        0.077   0.864  -0.675  0.00  0.00    +0.005 A 
ATOM      2  C   LIG    1        1.383   1.010  -0.180  0.00  0.00    -0.033 A 
ATOM      3  C   LIG    1        1.963  -0.085   0.471  0.00  0.00    +0.005 A 
ATOM      4  C   LIG    1        1.265  -1.288   0.624  0.00  0.00    +0.005 A 
ATOM      5  C   LIG    1       -0.038  -1.427   0.130  0.00  0.00    -0.033 A 
ATOM      6  C   LIG    1       -0.627  -0.336  -0.516  0.00  0.00    +0.005 A 
ENDROOT
BRANCH   2   7
ATOM      7  C   LIG    1        2.159   2.300  -0.390  0.00  0.00    +0.119 C 
BRANCH   7   8
ATOM      8  N   LIG    1        2.062   3.337   0.654  0.00  0.00    -0.297 NA
ATOM      9  C   LIG    1        2.671   2.951   1.950  0.00  0.00    +0.100 C 
ATOM     10  C   LIG    1        4.190   2.626   1.926  0.00  0.00    +0.096 C 
ATOM     11  N   LIG    1        4.993   3.742   1.421  0.00  0.00    -0.315 NA
ATOM     12  H   LIG    1        4.464   4.233   0.687  0.00  0.00    +0.122 HD
ATOM     13  C   LIG    1        6.274   3.304   0.869  0.00  0.00    +0.082 C 
ATOM     14  C   LIG    1        6.971   4.392   0.030  0.00  0.00    +0.030 C 
ATOM     15  C   LIG    1        6.182   4.807  -1.221  0.00  0.00    +0.082 C 
ATOM     16  N   LIG    1        5.053   5.635  -0.825  0.00  0.00    -0.315 NA
ATOM     17  H   LIG    1        5.341   6.598  -0.669  0.00  0.00    +0.122 HD
ATOM     18  C   LIG    1        3.903   5.556  -1.717  0.00  0.00    +0.096 C 
ATOM     19  C   LIG    1        2.695   6.186  -1.001  0.00  0.00    +0.096 C 
ATOM     20  N   LIG    1        1.447   5.895  -1.712  0.00  0.00    -0.315 NA
ATOM     21  H   LIG    1        1.306   6.621  -2.413  0.00  0.00    +0.122 HD
ATOM     22  C   LIG    1        0.309   5.875  -0.792  0.00  0.00    +0.082 C 
ATOM     23  C   LIG    1       -0.072   4.464  -0.325  0.00  0.00    +0.030 C 
ATOM     24  C   LIG    1        0.703   3.864   0.867  0.00  0.00    +0.086 C 
ENDBRANCH   7   8
ENDBRANCH   2   7
BRANCH   5  25
ATOM     25  C   LIG    1       -0.781  -2.744   0.271  0.00  0.00    +0.119 C 
BRANCH  25  26
ATOM     26  N   LIG    1       -1.002  -3.182   1.663  0.00  0.00    -0.297 NA
ATOM     27  C   LIG    1       -1.701  -2.164   2.490  0.00  0.00    +0.100 C 
ATOM     28  C   LIG    1       -3.138  -1.742   2.070  0.00  0.00    +0.096 C 
ATOM     29  N   LIG    1       -4.158  -2.332   2.947  0.00  0.00    -0.315 NA
ATOM     30  H   LIG    1       -3.970  -3.325   3.066  0.00  0.00    +0.122 HD
ATOM     31  C   LIG    1       -5.526  -2.102   2.468  0.00  0.00    +0.082 C 
ATOM     32  C   LIG    1       -6.336  -3.409   2.447  0.00  0.00    +0.030 C 
ATOM     33  C   LIG    1       -5.882  -4.329   1.308  0.00  0.00    +0.082 C 
ATOM     34  N   LIG    1       -6.292  -5.724   1.516  0.00  0.00    -0.315 NA
ATOM     35  H   LIG    1       -6.327  -5.940   2.512  0.00  0.00    +0.122 HD
ATOM     36  C   LIG    1       -5.338  -6.637   0.857  0.00  0.00    +0.096 C 
ATOM     37  C   LIG    1       -4.058  -6.873   1.698  0.00  0.00    +0.096 C 
ATOM     38  N   LIG    1       -2.899  -7.173   0.846  0.00  0.00    -0.315 NA
ATOM     39  H   LIG    1       -2.993  -8.132   0.507  0.00  0.00    +0.122 HD
ATOM     40  C   LIG    1       -1.626  -7.034   1.562  0.00  0.00    +0.082 C 
ATOM     41  C   LIG    1       -0.909  -5.696   1.284  0.00  0.00    +0.030 C 
ATOM     42  C   LIG    1       -1.723  -4.469   1.714  0.00  0.00    +0.086 C 
ENDBRANCH  25  26
ENDBRANCH   5  25
TORSDOF 4
