REMARK  Name = *****
REMARK                            x       y       z     vdW  Elec       q    Type
REMARK                         _______ _______ _______ _____ _____    ______ ____
ROOT
ATOM      1  C   LIG    1       13.415   7.359  -2.860  0.00  0.00    +0.000 C 
ENDROOT
BRANCH   1   2
ATOM      2  C   LIG    1       13.807   6.379  -1.755  0.00  0.00    +0.005 C 
BRANCH   2   3
ATOM      3  C   LIG    1       14.829   6.911  -0.732  0.00  0.00    +0.051 C 
BRANCH   3   4
ATOM      4  C   LIG    1       15.079   6.085   0.566  0.00  0.00    +0.133 C 
BRANCH   4   5
ATOM      5  N   LIG    1       15.768   4.692   0.387  0.00  0.00    +0.242 N 
ATOM      6  C   LIG    1       17.099   4.846  -0.337  0.00  0.00    +0.192 C 
ATOM      7  C   LIG    1       14.804   3.825  -0.375  0.00  0.00    +0.192 C 
BRANCH   5   8
ATOM      8  C   LIG    1       16.060   4.090   1.828  0.00  0.00    +0.169 C 
BRANCH   8   9
ATOM      9  C   LIG    1       16.702   2.701   1.991  0.00  0.00    -0.003 A 
ATOM     10  C   LIG    1       17.357   2.374   3.188  0.00  0.00    +0.009 A 
ATOM     11  C   LIG    1       17.927   1.105   3.354  0.00  0.00    +0.001 A 
ATOM     12  C   LIG    1       17.805   0.119   2.362  0.00  0.00    +0.000 A 
ATOM     13  C   LIG    1       17.136   0.403   1.209  0.00  0.00    +0.001 A 
ATOM     14  C   LIG    1       16.619   1.665   1.045  0.00  0.00    +0.009 A 
ENDBRANCH   8   9
ENDBRANCH   5   8
ENDBRANCH   4   5
ENDBRANCH   3   4
ENDBRANCH   2   3
ENDBRANCH   1   2
BRANCH   1  15
ATOM     15  C   LIG    1       12.352   6.771  -3.806  0.00  0.00    -0.000 C 
BRANCH  15  16
ATOM     16  C   LIG    1       11.004   6.381  -3.173  0.00  0.00    -0.000 C 
BRANCH  16  17
ATOM     17  C   LIG    1       10.186   7.525  -2.543  0.00  0.00    -0.000 C 
BRANCH  17  18
ATOM     18  C   LIG    1        8.859   6.990  -1.958  0.00  0.00    -0.000 C 
BRANCH  18  19
ATOM     19  C   LIG    1        7.885   8.032  -1.381  0.00  0.00    -0.000 C 
BRANCH  19  20
ATOM     20  C   LIG    1        7.443   9.169  -2.320  0.00  0.00    -0.000 C 
BRANCH  20  21
ATOM     21  C   LIG    1        6.625   8.781  -3.564  0.00  0.00    -0.000 C 
BRANCH  21  22
ATOM     22  C   LIG    1        6.216  10.007  -4.436  0.00  0.00    -0.000 C 
BRANCH  22  23
ATOM     23  C   LIG    1        5.182  10.963  -3.794  0.00  0.00    -0.000 C 
BRANCH  23  24
ATOM     24  C   LIG    1        4.705  12.120  -4.699  0.00  0.00    -0.000 C 
BRANCH  24  26
ATOM     25  C   LIG    1        2.426  12.685  -3.491  0.00  0.00    +0.004 C 
ATOM     26  C   LIG    1        3.800  13.139  -3.972  0.00  0.00    -0.003 C 
ENDBRANCH  24  26
ENDBRANCH  23  24
ENDBRANCH  22  23
ENDBRANCH  21  22
ENDBRANCH  20  21
ENDBRANCH  19  20
ENDBRANCH  18  19
ENDBRANCH  17  18
ENDBRANCH  16  17
ENDBRANCH  15  16
ENDBRANCH   1  15
TORSDOF 17
