REMARK  Name = *****
REMARK                            x       y       z     vdW  Elec       q    Type
REMARK                         _______ _______ _______ _____ _____    ______ ____
ROOT
ATOM      1  C   LIG    1        8.954   1.819  -3.501  0.00  0.00    +0.098 C 
ENDROOT
BRANCH   1   2
ATOM      2  N   LIG    1        9.998   2.503  -2.439  0.00  0.00    -0.276 NA
BRANCH   2   3
ATOM      3  C   LIG    1        9.486   3.625  -1.619  0.00  0.00    +0.206 C 
BRANCH   3   4
ATOM      4  C   LIG    1        9.417   4.699  -2.543  0.00  0.00    +0.319 C 
ATOM      5  O   LIG    1        9.337   5.886  -2.331  0.00  0.00    -0.250 OA
BRANCH   4   6
ATOM      6  O   LIG    1        8.688   4.012  -3.421  0.00  0.00    -0.480 OA
ATOM      7  H   LIG    1        7.681   3.873  -3.161  0.00  0.00    +0.295 HD
ENDBRANCH   4   6
ENDBRANCH   3   4
ENDBRANCH   2   3
BRANCH   2   8
ATOM      8  C   LIG    1       10.653   1.823  -1.346  0.00  0.00    +0.206 C 
BRANCH   8   9
ATOM      9  C   LIG    1       11.845   1.083  -1.705  0.00  0.00    +0.319 C 
ATOM     10  O   LIG    1       12.634   0.573  -0.853  0.00  0.00    -0.250 OA
BRANCH   9  11
ATOM     11  O   LIG    1       12.188   1.033  -2.985  0.00  0.00    -0.480 OA
ATOM     12  H   LIG    1       12.670   0.193  -2.922  0.00  0.00    +0.295 HD
ENDBRANCH   9  11
ENDBRANCH   8   9
ENDBRANCH   2   8
ENDBRANCH   1   2
BRANCH   1  13
ATOM     13  C   LIG    1        9.583   0.497  -4.055  0.00  0.00    +0.106 C 
BRANCH  13  14
ATOM     14  N   LIG    1        9.984  -0.538  -3.080  0.00  0.00    -0.290 NA
BRANCH  14  15
ATOM     15  C   LIG    1        8.888  -0.977  -2.165  0.00  0.00    +0.100 C 
BRANCH  15  16
ATOM     16  C   LIG    1        8.989  -2.176  -1.149  0.00  0.00    +0.101 C 
BRANCH  16  17
ATOM     17  N   LIG    1        9.452  -3.538  -1.478  0.00  0.00    -0.281 NA
BRANCH  17  18
ATOM     18  C   LIG    1        8.667  -4.233  -2.588  0.00  0.00    +0.206 C 
BRANCH  18  20
ATOM     19  O   LIG    1        8.283  -2.235  -4.147  0.00  0.00    -0.250 OA
ATOM     20  C   LIG    1        8.341  -3.576  -3.877  0.00  0.00    +0.319 C 
BRANCH  20  21
ATOM     21  O   LIG    1        8.063  -4.213  -4.949  0.00  0.00    -0.480 OA
ATOM     22  H   LIG    1        8.095  -3.488  -5.602  0.00  0.00    +0.295 HD
ENDBRANCH  20  21
ENDBRANCH  18  20
ENDBRANCH  17  18
BRANCH  17  23
ATOM     23  C   LIG    1       10.890  -3.705  -1.651  0.00  0.00    +0.206 C 
BRANCH  23  24
ATOM     24  C   LIG    1       11.893  -3.017  -0.736  0.00  0.00    +0.319 C 
ATOM     25  O   LIG    1       11.931  -1.836  -0.418  0.00  0.00    -0.250 OA
BRANCH  24  26
ATOM     26  O   LIG    1       12.959  -3.795  -0.459  0.00  0.00    -0.480 OA
ATOM     27  H   LIG    1       13.555  -3.208   0.060  0.00  0.00    +0.295 HD
ENDBRANCH  24  26
ENDBRANCH  23  24
ENDBRANCH  17  23
ENDBRANCH  16  17
ENDBRANCH  15  16
ENDBRANCH  14  15
BRANCH  14  28
ATOM     28  C   LIG    1       11.044  -1.401  -3.676  0.00  0.00    +0.205 C 
BRANCH  28  29
ATOM     29  C   LIG    1       10.771  -2.390  -4.820  0.00  0.00    +0.319 C 
ATOM     30  O   LIG    1       10.171  -2.112  -5.855  0.00  0.00    -0.250 OA
BRANCH  29  31
ATOM     31  O   LIG    1       11.330  -3.624  -4.709  0.00  0.00    -0.480 OA
ATOM     32  H   LIG    1       11.963  -3.799  -3.988  0.00  0.00    +0.295 HD
ENDBRANCH  29  31
ENDBRANCH  28  29
ENDBRANCH  14  28
ENDBRANCH  13  14
ENDBRANCH   1  13
BRANCH   1  33
ATOM     33  C   LIG    1        8.343   2.703  -5.033  0.00  0.00    +0.192 C 
BRANCH  33  34
ATOM     34  O   LIG    1        7.194   3.898  -5.045  0.00  0.00    -0.285 OA
BRANCH  34  35
ATOM     35  P   LIG    1        7.506   5.498  -4.576  0.00  0.00    +0.475 P 
ATOM     36  O   LIG    1        8.897   5.971  -4.892  0.00  0.00    -0.227 OA
BRANCH  35  37
ATOM     37  O   LIG    1        7.107   5.160  -2.999  0.00  0.00    -0.302 OA
ATOM     38  H   LIG    1        7.680   5.654  -2.350  0.00  0.00    +0.222 HD
ENDBRANCH  35  37
BRANCH  35  39
ATOM     39  O   LIG    1        6.397   6.645  -4.567  0.00  0.00    -0.283 OA
BRANCH  39  40
ATOM     40  C   LIG    1        5.428   6.723  -3.478  0.00  0.00    +0.130 C 
ATOM     41  C   LIG    1        4.491   5.537  -3.697  0.00  0.00    +0.033 C 
ATOM     42  C   LIG    1        4.278   4.520  -2.554  0.00  0.00    +0.019 C 
ATOM     43  C   LIG    1        4.310   5.016  -1.059  0.00  0.00    +0.021 C 
ATOM     44  C   LIG    1        5.592   5.890  -0.882  0.00  0.00    +0.019 C 
ATOM     45  C   LIG    1        5.842   7.005  -1.958  0.00  0.00    +0.033 C 
BRANCH  43  46
ATOM     46  C   LIG    1        4.514   3.692  -0.152  0.00  0.00    -0.037 A 
ATOM     47  C   LIG    1        3.556   3.127   0.705  0.00  0.00    +0.004 A 
ATOM     48  C   LIG    1        3.854   2.014   1.530  0.00  0.00    +0.000 A 
ATOM     49  C   LIG    1        5.108   1.409   1.509  0.00  0.00    +0.000 A 
ATOM     50  C   LIG    1        6.054   1.884   0.622  0.00  0.00    +0.000 A 
ATOM     51  C   LIG    1        5.740   2.976  -0.203  0.00  0.00    +0.004 A 
ENDBRANCH  43  46
BRANCH  43  52
ATOM     52  C   LIG    1        3.091   5.944  -0.694  0.00  0.00    -0.037 A 
ATOM     53  C   LIG    1        2.638   6.122   0.623  0.00  0.00    +0.004 A 
ATOM     54  C   LIG    1        1.539   6.949   0.933  0.00  0.00    +0.000 A 
ATOM     55  C   LIG    1        0.866   7.651  -0.059  0.00  0.00    +0.000 A 
ATOM     56  C   LIG    1        1.326   7.565  -1.354  0.00  0.00    +0.000 A 
ATOM     57  C   LIG    1        2.431   6.754  -1.643  0.00  0.00    +0.004 A 
ENDBRANCH  43  52
ENDBRANCH  39  40
ENDBRANCH  35  39
ENDBRANCH  34  35
ENDBRANCH  33  34
ENDBRANCH   1  33
TORSDOF 29
