REMARK  Name = *****
REMARK                            x       y       z     vdW  Elec       q    Type
REMARK                         _______ _______ _______ _____ _____    ______ ____
ROOT
ATOM      1  C   LIG    1        2.743   2.485   5.624  0.00  0.00    +0.121 A 
ATOM      2  C   LIG    1        2.770   3.805   5.174  0.00  0.00    +0.046 A 
ATOM      3  C   LIG    1        2.201   4.833   5.925  0.00  0.00    +0.007 A 
ATOM      4  C   LIG    1        1.559   4.555   7.135  0.00  0.00    -0.046 A 
ATOM      5  C   LIG    1        1.539   3.232   7.596  0.00  0.00    +0.007 A 
ATOM      6  C   LIG    1        2.113   2.199   6.839  0.00  0.00    +0.046 A 
ENDROOT
BRANCH   1   7
ATOM      7  O   LIG    1        3.309   1.446   4.922  0.00  0.00    -0.490 OA
BRANCH   7   8
ATOM      8  C   LIG    1        4.382   1.841   4.037  0.00  0.00    +0.248 C 
BRANCH   8   9
ATOM      9  C   LIG    1        5.309   0.647   3.766  0.00  0.00    +0.147 C 
BRANCH   9  11
ATOM     10  C   LIG    1        7.352   2.030   3.374  0.00  0.00    +0.131 C 
ATOM     11  N   LIG    1        6.474   0.957   2.905  0.00  0.00    -0.315 N 
BRANCH  11  12
ATOM     12  C   LIG    1        6.161   1.020   1.534  0.00  0.00    +0.121 A 
ATOM     13  N   LIG    1        6.141   2.208   0.891  0.00  0.00    -0.240 NA
ATOM     14  C   LIG    1        5.837   2.211  -0.432  0.00  0.00    +0.113 A 
ATOM     15  C   LIG    1        5.558   1.078  -1.175  0.00  0.00    +0.020 A 
ATOM     16  C   LIG    1        5.590  -0.140  -0.519  0.00  0.00    +0.005 A 
ATOM     17  C   LIG    1        5.890  -0.168   0.845  0.00  0.00    +0.043 A 
ENDBRANCH  11  12
ENDBRANCH   9  11
ENDBRANCH   8   9
ENDBRANCH   7   8
ENDBRANCH   1   7
BRANCH   4  18
ATOM     18  C   LIG    1        0.848   5.651   7.899  0.00  0.00    +0.059 C 
BRANCH  18  19
ATOM     19  C   LIG    1       -0.619   5.887   7.507  0.00  0.00    +0.146 C 
ATOM     20  C   LIG    1       -0.768   6.245   6.043  0.00  0.00    +0.234 C 
ATOM     21  O   LIG    1       -0.350   7.278   5.534  0.00  0.00    -0.274 OA
ATOM     22  N   LIG    1       -1.425   5.279   5.345  0.00  0.00    -0.246 N 
ATOM     23  H   LIG    1       -1.590   5.372   4.357  0.00  0.00    +0.158 HD
ATOM     24  C   LIG    1       -2.024   4.271   6.032  0.00  0.00    +0.279 C 
ATOM     25  O   LIG    1       -2.729   3.415   5.553  0.00  0.00    -0.263 OA
ATOM     26  S   LIG    1       -1.703   4.434   7.743  0.00  0.00    -0.054 S 
ENDBRANCH  18  19
ENDBRANCH   4  18
TORSDOF 7
