REMARK  Name = *****
REMARK                            x       y       z     vdW  Elec       q    Type
REMARK                         _______ _______ _______ _____ _____    ______ ____
ROOT
ATOM      1  C   LIG    1        1.065   0.120   0.019  0.00  0.00    +0.155 C 
ATOM      2  N   LIG    1        2.514   0.126   0.021  0.00  0.00    -0.280 N 
ATOM      3  C   LIG    1        3.189  -1.100   0.022  0.00  0.00    +0.333 C 
ATOM      4  O   LIG    1        2.576  -2.172   0.020  0.00  0.00    -0.246 OA
ATOM      5  N   LIG    1        4.599  -1.061   0.027  0.00  0.00    -0.262 N 
ATOM      6  C   LIG    1        5.277  -2.342   0.035  0.00  0.00    +0.157 C 
ATOM      7  C   LIG    1        5.379   0.096   0.024  0.00  0.00    +0.282 C 
ATOM      8  O   LIG    1        6.605   0.123   0.023  0.00  0.00    -0.265 OA
ATOM      9  C   LIG    1        4.600   1.279   0.022  0.00  0.00    +0.150 A 
ATOM     10  N   LIG    1        4.980   2.589   0.023  0.00  0.00    -0.323 N 
ATOM     11  H   LIG    1        5.923   2.953   0.024  0.00  0.00    +0.168 HD
ATOM     12  C   LIG    1        3.824   3.311   0.022  0.00  0.00    +0.203 A 
ATOM     13 CL   LIG    1        3.917   5.002   0.024  0.00  0.00    -0.043 Cl
ATOM     14  N   LIG    1        2.745   2.565   0.021  0.00  0.00    -0.199 NA
ATOM     15  C   LIG    1        3.237   1.294   0.021  0.00  0.00    +0.169 A 
ENDROOT
TORSDOF 0
