REMARK  Name = *****
REMARK                            x       y       z     vdW  Elec       q    Type
REMARK                         _______ _______ _______ _____ _____    ______ ____
ROOT
ATOM      1  C   LIG    1        2.894   0.776   0.829  0.00  0.00    +0.101 A 
ATOM      2  C   LIG    1        3.977   0.335   1.594  0.00  0.00    +0.131 A 
ATOM      3  C   LIG    1        4.705   1.234   2.367  0.00  0.00    +0.047 A 
ATOM      4  C   LIG    1        4.356   2.590   2.374  0.00  0.00    +0.012 A 
ATOM      5  C   LIG    1        3.268   3.081   1.631  0.00  0.00    -0.014 A 
ATOM      6  C   LIG    1        2.547   2.142   0.867  0.00  0.00    +0.027 A 
ENDROOT
BRANCH   5   7
ATOM      7  C   LIG    1        2.902   4.522   1.637  0.00  0.00    +0.018 A 
ATOM      8  C   LIG    1        3.078   5.344   2.770  0.00  0.00    +0.134 A 
ATOM      9  F   LIG    1        3.564   4.836   3.913  0.00  0.00    -0.205 F 
ATOM     10  C   LIG    1        2.751   6.699   2.768  0.00  0.00    +0.077 A 
ATOM     11  C   LIG    1        2.222   7.264   1.621  0.00  0.00    +0.126 A 
ATOM     12  F   LIG    1        1.901   8.564   1.610  0.00  0.00    -0.205 F 
ATOM     13  C   LIG    1        2.020   6.498   0.482  0.00  0.00    +0.039 A 
ATOM     14  C   LIG    1        2.363   5.141   0.489  0.00  0.00    +0.014 A 
ENDBRANCH   5   7
BRANCH   1  16
ATOM     15  O   LIG    1        1.130   0.309  -0.704  0.00  0.00    -0.245 OA
ATOM     16  C   LIG    1        2.069  -0.112  -0.043  0.00  0.00    +0.340 C 
BRANCH  16  17
ATOM     17  O   LIG    1        2.436  -1.409  -0.062  0.00  0.00    -0.477 OA
ATOM     18  H   LIG    1        3.208  -1.587   0.519  0.00  0.00    +0.295 HD
ENDBRANCH  16  17
ENDBRANCH   1  16
BRANCH   2  19
ATOM     19  O   LIG    1        4.335  -0.989   1.590  0.00  0.00    -0.506 OA
ATOM     20  H   LIG    1        5.082  -1.111   2.207  0.00  0.00    +0.292 HD
ENDBRANCH   2  19
TORSDOF 4
