REMARK  Name = *****
REMARK                            x       y       z     vdW  Elec       q    Type
REMARK                         _______ _______ _______ _____ _____    ______ ____
ROOT
ATOM      1  C   UNK A  0        4.722  -3.419  -0.566  0.00  0.00    +0.088 C 
ATOM      2  C   UNK A  0        5.743  -3.172   0.582  0.00  0.00    +0.163 C 
ATOM      3  C   UNK A  0        5.098  -3.062   1.974  0.00  0.00    +0.176 C 
ATOM      4  C   UNK A  0        4.190  -4.275   2.259  0.00  0.00    +0.179 C 
ATOM      5  C   UNK A  0        3.131  -4.490   1.160  0.00  0.00    +0.119 C 
ATOM      6  C   UNK A  0        3.781  -4.596  -0.227  0.00  0.00    +0.061 C 
ENDROOT
BRANCH   1   7
ATOM      7  N   SER A  1        5.499  -3.740  -1.799  0.00  0.00    -0.304 NA
ATOM      8  H   SER A  1        6.153  -2.971  -1.990  0.00  0.00    +0.123 HD
BRANCH   7   9
ATOM      9  CA  SER A  1        4.675  -3.904  -3.030  0.00  0.00    +0.105 C 
BRANCH   9  10
ATOM     10  C   SER A  1        3.886  -2.627  -3.397  0.00  0.00    +0.176 C 
BRANCH  10  11
ATOM     11  O   SER A  1        4.733  -1.486  -3.524  0.00  0.00    -0.393 OA
ATOM     12  H   SER A  1        5.638  -1.814  -3.700  0.00  0.00    +0.209 HD
ENDBRANCH  10  11
ENDBRANCH   9  10
BRANCH   9  13
ATOM     13  CB  SER A  1        5.590  -4.311  -4.215  0.00  0.00    +0.176 C 
BRANCH  13  14
ATOM     14  OG  SER A  1        6.698  -3.410  -4.337  0.00  0.00    -0.393 OA
ATOM     15  H   SER A  1        7.287  -3.801  -5.018  0.00  0.00    +0.209 HD
ENDBRANCH  13  14
ENDBRANCH   9  13
ENDBRANCH   7   9
ENDBRANCH   1   7
BRANCH   2  16
ATOM     16  O   UNK A  0        6.686  -4.260   0.596  0.00  0.00    -0.388 OA
ATOM     17  H   UNK A  0        6.832  -4.460  -0.353  0.00  0.00    +0.210 HD
ENDBRANCH   2  16
BRANCH   3  18
ATOM     18  O   UNK A  0        4.363  -1.852   2.110  0.00  0.00    -0.387 OA
ATOM     19  H   UNK A  0        4.998  -1.141   2.307  0.00  0.00    +0.210 HD
ENDBRANCH   3  18
BRANCH   4  20
ATOM     20  O   UNK A  0        4.977  -5.484   2.363  0.00  0.00    -0.386 OA
ATOM     21  H   UNK A  0        5.786  -5.369   1.815  0.00  0.00    +0.210 HD
ENDBRANCH   4  20
BRANCH   5  22
ATOM     22  O   UNK A  0        2.484  -5.767   1.406  0.00  0.00    -0.384 OA
ATOM     23  H   UNK A  0        3.194  -6.349   1.753  0.00  0.00    +0.210 HD
ENDBRANCH   5  22
BRANCH   5  24
ATOM     24  C   UNK A  0        2.009  -3.435   1.204  0.00  0.00    +0.193 C 
BRANCH  24  25
ATOM     25  O   UNK A  0        0.968  -3.799   0.289  0.00  0.00    -0.392 OA
ATOM     26  H   UNK A  0        0.823  -4.753   0.457  0.00  0.00    +0.209 HD
ENDBRANCH  24  25
ENDBRANCH   5  24
TORSDOF 12
