REMARK  Name = *****
REMARK                            x       y       z     vdW  Elec       q    Type
REMARK                         _______ _______ _______ _____ _____    ______ ____
ROOT
ATOM      1  C   LIG    1       -7.156  -1.292  10.207  0.00  0.00    +0.003 C 
ATOM      2  C   LIG    1       -8.058  -1.910   9.208  0.00  0.00    +0.049 C 
ATOM      3  N   LIG    1       -7.298  -2.834   8.549  0.00  0.00    -0.354 N 
ATOM      4  H   LIG    1       -7.693  -3.512   7.903  0.00  0.00    +0.166 HD
ATOM      5  C   LIG    1       -6.017  -2.894   8.998  0.00  0.00    +0.045 C 
ATOM      6  C   LIG    1       -5.031  -3.689   8.573  0.00  0.00    +0.053 C 
ATOM      7  C   LIG    1       -5.240  -4.670   7.490  0.00  0.00    +0.070 C 
ATOM      8  C   LIG    1       -4.059  -5.413   6.983  0.00  0.00    -0.009 C 
ATOM      9  C   LIG    1       -3.211  -6.058   7.788  0.00  0.00    +0.007 C 
ATOM     10  C   LIG    1       -2.655  -7.313   7.339  0.00  0.00    +0.012 C 
ATOM     11  C   LIG    1       -2.829  -7.808   6.101  0.00  0.00    +0.051 C 
ATOM     12  C   LIG    1       -3.516  -6.947   5.029  0.00  0.00    +0.150 C 
ATOM     13  C   LIG    1       -4.478  -5.824   5.596  0.00  0.00    +0.054 C 
ATOM     14  C   LIG    1       -4.386  -4.573   4.660  0.00  0.00    +0.024 C 
ATOM     15  C   LIG    1       -5.979  -5.992   5.930  0.00  0.00    +0.055 C 
ATOM     16  C   LIG    1       -6.808  -6.981   5.546  0.00  0.00    +0.050 C 
ATOM     17  C   LIG    1       -8.216  -7.013   5.741  0.00  0.00    +0.045 C 
ATOM     18  C   LIG    1       -9.193  -7.962   5.468  0.00  0.00    -0.022 C 
ATOM     19  C   LIG    1       -8.949  -9.385   5.089  0.00  0.00    +0.046 C 
ATOM     20  C   LIG    1      -10.459  -7.272   5.494  0.00  0.00    -0.019 C 
ATOM     21  C   LIG    1      -10.179  -5.943   5.781  0.00  0.00    +0.045 C 
ATOM     22  C   LIG    1      -10.883  -4.724   5.608  0.00  0.00    +0.053 C 
ATOM     23  C   LIG    1      -10.642  -3.596   6.296  0.00  0.00    +0.070 C 
ATOM     24  C   LIG    1      -11.080  -2.263   5.920  0.00  0.00    -0.017 C 
ATOM     25  C   LIG    1      -10.797  -1.392   6.901  0.00  0.00    -0.020 C 
ATOM     26  C   LIG    1      -10.916   0.079   6.998  0.00  0.00    +0.046 C 
ATOM     27  C   LIG    1      -10.000  -2.240   7.809  0.00  0.00    +0.070 C 
ATOM     28  N   LIG    1       -9.889  -3.484   7.441  0.00  0.00    -0.247 NA
ATOM     29  N   LIG    1       -8.866  -5.888   6.170  0.00  0.00    -0.354 NA
ATOM     30  H   LIG    1       -8.393  -5.056   6.504  0.00  0.00    +0.166 HD
ATOM     31  N   LIG    1       -6.340  -5.000   6.860  0.00  0.00    -0.251 NA
ATOM     32  C   LIG    1       -9.341  -1.605   8.972  0.00  0.00    +0.054 C 
ATOM     33  C   LIG    1       -5.929  -1.873  10.052  0.00  0.00    -0.018 C 
ATOM     34  C   LIG    1       -4.641  -1.561  10.739  0.00  0.00    +0.046 C 
ENDROOT
BRANCH   1  36
ATOM     35  C   LIG    1       -7.244  -0.211  12.422  0.00  0.00    +0.009 C 
ATOM     36  C   LIG    1       -7.451  -0.192  11.099  0.00  0.00    +0.002 C 
ENDBRANCH   1  36
BRANCH  11  37
ATOM     37  C   LIG    1       -2.216  -9.088   5.740  0.00  0.00    +0.336 C 
ATOM     38  O   LIG    1       -1.971  -9.417   4.603  0.00  0.00    -0.245 OA
BRANCH  37  39
ATOM     39  O   LIG    1       -1.902  -9.803   6.872  0.00  0.00    -0.465 OA
ATOM     40  C   LIG    1       -1.235 -11.042   6.649  0.00  0.00    +0.280 C 
ENDBRANCH  37  39
ENDBRANCH  11  37
BRANCH  12  41
ATOM     41  C   LIG    1       -4.171  -7.653   3.839  0.00  0.00    +0.316 C 
ATOM     42  O   LIG    1       -4.711  -8.742   3.847  0.00  0.00    -0.250 OA
BRANCH  41  43
ATOM     43  O   LIG    1       -4.198  -6.780   2.779  0.00  0.00    -0.468 OA
ATOM     44  C   LIG    1       -5.336  -6.902   1.923  0.00  0.00    +0.280 C 
ENDBRANCH  41  43
ENDBRANCH  12  41
BRANCH  20  45
ATOM     45  C   LIG    1      -11.803  -7.848   5.159  0.00  0.00    +0.048 C 
BRANCH  45  46
ATOM     46  C   LIG    1      -12.832  -7.632   6.252  0.00  0.00    +0.125 C 
BRANCH  46  47
ATOM     47  C   LIG    1      -12.439  -8.292   7.545  0.00  0.00    +0.307 C 
ATOM     48  O   LIG    1      -12.286  -9.499   7.689  0.00  0.00    -0.251 OA
BRANCH  47  49
ATOM     49  O   LIG    1      -12.431  -7.364   8.540  0.00  0.00    -0.468 OA
ATOM     50  C   LIG    1      -12.521  -7.909   9.852  0.00  0.00    +0.280 C 
ENDBRANCH  47  49
ENDBRANCH  46  47
ENDBRANCH  45  46
ENDBRANCH  20  45
BRANCH  24  51
ATOM     51  C   LIG    1      -11.500  -1.921   4.517  0.00  0.00    +0.048 C 
BRANCH  51  52
ATOM     52  C   LIG    1      -10.249  -1.828   3.631  0.00  0.00    +0.125 C 
BRANCH  52  53
ATOM     53  C   LIG    1      -10.602  -1.502   2.208  0.00  0.00    +0.305 C 
ATOM     54  O   LIG    1      -11.197  -0.486   1.872  0.00  0.00    -0.251 OA
BRANCH  53  55
ATOM     55  O   LIG    1      -10.188  -2.424   1.313  0.00  0.00    -0.481 OA
ATOM     56  H   LIG    1       -9.714  -3.187   1.697  0.00  0.00    +0.295 HD
ENDBRANCH  53  55
ENDBRANCH  52  53
ENDBRANCH  51  52
ENDBRANCH  24  51
TORSDOF 13
