REMARK  Name = *****
REMARK                            x       y       z     vdW  Elec       q    Type
REMARK                         _______ _______ _______ _____ _____    ______ ____
ROOT
ATOM      1  C   LIG    1        8.530 -10.715   6.133  0.00  0.00    +0.030 A 
ATOM      2  C   LIG    1        9.313  -9.688   6.665  0.00  0.00    +0.027 A 
ATOM      3  C   LIG    1       10.701  -9.719   6.631  0.00  0.00    +0.047 A 
ATOM      4  C   LIG    1       11.373 -10.795   6.072  0.00  0.00    +0.121 A 
ATOM      5  C   LIG    1       10.635 -11.857   5.567  0.00  0.00    +0.047 A 
ATOM      6  C   LIG    1        9.233 -11.819   5.615  0.00  0.00    +0.027 A 
ENDROOT
BRANCH   1  10
ATOM      7  N   LIG    1        5.459  -9.178   4.281  0.00  0.00    -0.327 N 
ATOM      8  C   LIG    1        6.296  -8.483   5.301  0.00  0.00    +0.124 C 
ATOM      9  C   LIG    1        6.462  -9.384   6.551  0.00  0.00    +0.124 C 
ATOM     10  N   LIG    1        7.138 -10.662   6.181  0.00  0.00    -0.327 N 
ATOM     11  C   LIG    1        6.375 -11.394   5.144  0.00  0.00    +0.124 C 
ATOM     12  C   LIG    1        6.036 -10.498   3.921  0.00  0.00    +0.124 C 
BRANCH   7  16
ATOM     13  C   LIG    1        1.348  -8.801   5.290  0.00  0.00    +0.052 A 
ATOM     14  C   LIG    1        1.994 -10.028   5.427  0.00  0.00    +0.028 A 
ATOM     15  C   LIG    1        3.330 -10.171   5.050  0.00  0.00    +0.025 A 
ATOM     16  C   LIG    1        4.089  -9.104   4.563  0.00  0.00    +0.030 A 
ATOM     17  C   LIG    1        3.421  -7.892   4.382  0.00  0.00    +0.025 A 
ATOM     18  C   LIG    1        2.070  -7.748   4.723  0.00  0.00    +0.028 A 
BRANCH  13  22
ATOM     19  N   LIG    1       -1.877  -7.792   6.507  0.00  0.00    -0.207 N 
ATOM     20  C   LIG    1       -0.633  -7.433   5.957  0.00  0.00    +0.351 C 
ATOM     21  O   LIG    1       -0.244  -6.295   5.783  0.00  0.00    -0.244 OA
ATOM     22  N   LIG    1        0.026  -8.635   5.751  0.00  0.00    -0.250 N 
ATOM     23  C   LIG    1       -0.820  -9.583   6.206  0.00  0.00    +0.230 C 
ATOM     24  N   LIG    1       -1.962  -9.157   6.651  0.00  0.00    -0.157 NA
BRANCH  19  25
ATOM     25  C   LIG    1       -2.848  -6.850   7.066  0.00  0.00    +0.140 C 
BRANCH  25  27
ATOM     26  C   LIG    1       -5.075  -5.654   6.556  0.00  0.00    +0.006 C 
ATOM     27  C   LIG    1       -4.045  -6.685   6.103  0.00  0.00    +0.026 C 
ENDBRANCH  25  27
BRANCH  25  28
ATOM     28  C   LIG    1       -3.283  -7.279   8.494  0.00  0.00    +0.136 C 
ATOM     29  C   LIG    1       -2.136  -7.339   9.496  0.00  0.00    +0.040 C 
BRANCH  28  30
ATOM     30  O   LIG    1       -3.924  -8.557   8.465  0.00  0.00    -0.390 OA
ATOM     31  H   LIG    1       -3.366  -9.107   7.868  0.00  0.00    +0.210 HD
ENDBRANCH  28  30
ENDBRANCH  25  28
ENDBRANCH  19  25
ENDBRANCH  13  22
ENDBRANCH   7  16
ENDBRANCH   1  10
BRANCH   4  32
ATOM     32  O   LIG    1       12.736 -10.886   5.989  0.00  0.00    -0.492 OA
BRANCH  32  33
ATOM     33  C   LIG    1       13.432  -9.769   6.553  0.00  0.00    +0.235 C 
BRANCH  33  34
ATOM     34  C   LIG    1       14.928  -9.955   6.451  0.00  0.00    +0.055 C 
ATOM     35  C   LIG    1       15.408 -11.243   7.070  0.00  0.00    +0.050 C 
ATOM     36  C   LIG    1       16.792 -11.448   6.439  0.00  0.00    +0.117 C 
ATOM     37  O   LIG    1       16.672 -10.802   5.126  0.00  0.00    -0.366 OA
ATOM     38  C   LIG    1       15.432 -10.092   5.037  0.00  0.00    +0.168 C 
BRANCH  36  39
ATOM     39  C   LIG    1       17.964 -10.766   7.154  0.00  0.00    +0.021 A 
ATOM     40  C   LIG    1       18.066 -10.679   8.553  0.00  0.00    +0.132 A 
ATOM     41  F   LIG    1       17.103 -11.172   9.342  0.00  0.00    -0.205 F 
ATOM     42  C   LIG    1       19.154 -10.079   9.184  0.00  0.00    +0.077 A 
ATOM     43  C   LIG    1       20.167  -9.534   8.414  0.00  0.00    +0.126 A 
ATOM     44  F   LIG    1       21.213  -8.947   9.011  0.00  0.00    -0.205 F 
ATOM     45  C   LIG    1       20.108  -9.585   7.029  0.00  0.00    +0.039 A 
ATOM     46  C   LIG    1       19.022 -10.208   6.405  0.00  0.00    +0.012 A 
ENDBRANCH  36  39
BRANCH  36  47
ATOM     47  C   LIG    1       17.048 -12.940   6.134  0.00  0.00    +0.185 C 
BRANCH  47  48
ATOM     48  N   LIG    1       17.206 -13.813   7.269  0.00  0.00    -0.249 N 
ATOM     49  N   LIG    1       18.327 -14.547   7.404  0.00  0.00    -0.158 NA
ATOM     50  C   LIG    1       18.052 -15.252   8.503  0.00  0.00    +0.244 A 
ATOM     51  N   LIG    1       16.821 -15.029   9.045  0.00  0.00    -0.223 NA
ATOM     52  C   LIG    1       16.299 -14.142   8.228  0.00  0.00    +0.219 A 
ENDBRANCH  47  48
ENDBRANCH  36  47
ENDBRANCH  33  34
ENDBRANCH  32  33
ENDBRANCH   4  32
TORSDOF 13
