REMARK  Name = *****
REMARK                            x       y       z     vdW  Elec       q    Type
REMARK                         _______ _______ _______ _____ _____    ______ ____
ROOT
ATOM      1  C   LIG    1        5.005   0.140  -1.774  0.00  0.00    +0.161 C 
ENDROOT
BRANCH   1   2
ATOM      2  C   LIG    1        5.008  -0.242  -3.249  0.00  0.00    -0.014 A 
ATOM      3  C   LIG    1        4.417  -1.434  -3.705  0.00  0.00    +0.055 A 
ATOM      4  C   LIG    1        4.452  -1.752  -5.056  0.00  0.00    +0.159 A 
ATOM      5  C   LIG    1        5.032  -0.892  -5.977  0.00  0.00    +0.158 A 
ATOM      6  C   LIG    1        5.586   0.313  -5.561  0.00  0.00    +0.049 A 
ATOM      7  C   LIG    1        5.570   0.634  -4.197  0.00  0.00    +0.010 A 
BRANCH   4   8
ATOM      8  O   LIG    1        3.908  -2.936  -5.466  0.00  0.00    -0.503 OA
ATOM      9  H   LIG    1        4.061  -2.950  -6.433  0.00  0.00    +0.292 HD
ENDBRANCH   4   8
BRANCH   5  10
ATOM     10  O   LIG    1        5.030  -1.274  -7.289  0.00  0.00    -0.503 OA
ATOM     11  H   LIG    1        5.462  -0.574  -7.809  0.00  0.00    +0.292 HD
ENDBRANCH   5  10
ENDBRANCH   1   2
BRANCH   1  12
ATOM     12  O   LIG    1        3.772   0.841  -1.579  0.00  0.00    -0.386 OA
ATOM     13  H   LIG    1        3.059   0.245  -1.860  0.00  0.00    +0.210 HD
ENDBRANCH   1  12
BRANCH   1  14
ATOM     14  C   LIG    1        5.175  -1.060  -0.760  0.00  0.00    +0.087 C 
BRANCH  14  16
ATOM     15  C   LIG    1        6.710  -3.092  -0.257  0.00  0.00    +0.005 C 
ATOM     16  C   LIG    1        6.511  -1.804  -1.051  0.00  0.00    +0.018 C 
ENDBRANCH  14  16
BRANCH  14  17
ATOM     17  N   LIG    1        5.189  -0.698   0.679  0.00  0.00    -0.308 NA
ATOM     18  H   LIG    1        5.309  -1.548   1.228  0.00  0.00    +0.122 HD
BRANCH  17  19
ATOM     19  C   LIG    1        4.028   0.018   1.216  0.00  0.00    +0.048 C 
ATOM     20  C   LIG    1        4.304   0.257   2.706  0.00  0.00    +0.024 C 
ATOM     21  C   LIG    1        2.712  -0.750   1.071  0.00  0.00    +0.024 C 
ENDBRANCH  17  19
ENDBRANCH  14  17
ENDBRANCH   1  14
TORSDOF 8
