REMARK  Name = *****
REMARK                            x       y       z     vdW  Elec       q    Type
REMARK                         _______ _______ _______ _____ _____    ______ ____
ROOT
ATOM      1  C   LIG    1        1.938  -2.929  -0.513  0.00  0.00    +0.258 A 
ATOM      2  N   LIG    1        1.945  -4.279  -0.500  0.00  0.00    -0.175 NA
ATOM      3  C   LIG    1        1.119  -4.891  -1.359  0.00  0.00    +0.219 A 
ATOM      4  C   LIG    1        0.279  -4.229  -2.222  0.00  0.00    +0.090 A 
ATOM      5  C   LIG    1        0.318  -2.854  -2.163  0.00  0.00    +0.047 A 
ATOM      6  C   LIG    1       -0.583  -2.030  -3.031  0.00  0.00    +0.066 C 
ATOM      7  N   LIG    1        1.142  -2.195  -1.325  0.00  0.00    -0.216 NA
ENDROOT
BRANCH   1   9
ATOM      8  C   LIG    1        3.041  -0.870   0.517  0.00  0.00    +0.221 A 
ATOM      9  N   LIG    1        2.820  -2.246   0.404  0.00  0.00    -0.165 N 
ATOM     10  N   LIG    1        3.582  -2.947   1.307  0.00  0.00    -0.166 NA
ATOM     11  C   LIG    1        4.228  -2.018   2.011  0.00  0.00    +0.064 A 
ATOM     12  C   LIG    1        5.152  -2.420   3.098  0.00  0.00    +0.067 C 
ATOM     13  C   LIG    1        3.917  -0.716   1.575  0.00  0.00    +0.092 A 
BRANCH   8  15
ATOM     14  C   LIG    1        2.831   1.366  -0.169  0.00  0.00    +0.278 C 
ATOM     15  O   LIG    1        2.464   0.003  -0.317  0.00  0.00    -0.479 OA
ENDBRANCH   8  15
ENDBRANCH   1   9
BRANCH   3  16
ATOM     16  O   LIG    1        1.075  -6.271  -1.405  0.00  0.00    -0.479 OA
ATOM     17  C   LIG    1        1.974  -6.885  -0.484  0.00  0.00    +0.278 C 
ENDBRANCH   3  16
TORSDOF 3
