REMARK  Name = *****
REMARK                            x       y       z     vdW  Elec       q    Type
REMARK                         _______ _______ _______ _____ _____    ______ ____
ROOT
ATOM      1  C   LIG    1        3.144   1.221   0.376  0.00  0.00    +0.058 C 
ATOM      2  C   LIG    1        4.681   1.264   0.124  0.00  0.00    +0.056 C 
ATOM      3  C   LIG    1        5.273   2.554   0.590  0.00  0.00    -0.018 C 
ATOM      4  C   LIG    1        4.506   3.673   0.836  0.00  0.00    +0.020 C 
ATOM      5  N   LIG    1        5.334   4.688   1.223  0.00  0.00    -0.358 NA
ATOM      6  H   LIG    1        5.045   5.624   1.471  0.00  0.00    +0.166 HD
ATOM      7  C   LIG    1        6.639   4.242   1.240  0.00  0.00    +0.047 C 
ATOM      8  C   LIG    1        7.815   4.920   1.582  0.00  0.00    +0.027 C 
ATOM      9  C   LIG    1        9.016   4.207   1.509  0.00  0.00    +0.015 C 
ATOM     10  C   LIG    1        9.044   2.870   1.099  0.00  0.00    +0.037 C 
ATOM     11  C   LIG    1        7.851   2.204   0.772  0.00  0.00    +0.023 C 
ATOM     12  C   LIG    1        3.027   3.765   0.734  0.00  0.00    +0.055 C 
ATOM     13  C   LIG    1        6.629   2.903   0.841  0.00  0.00    +0.004 C 
ATOM     14  C   LIG    1        2.478   2.559  -0.050  0.00  0.00    +0.025 C 
ENDROOT
BRANCH  10  15
ATOM     15  C   LIG    1       10.362   2.182   1.043  0.00  0.00    +0.242 C 
ATOM     16  O   LIG    1       11.329   2.586   1.678  0.00  0.00    -0.270 OA
ATOM     17  N   LIG    1       10.474   1.097   0.218  0.00  0.00    -0.325 N 
ATOM     18  H   LIG    1       11.403   0.709   0.114  0.00  0.00    +0.145 HD
ATOM     19  H   LIG    1        9.790   0.878  -0.491  0.00  0.00    +0.145 HD
ENDBRANCH  10  15
BRANCH   1  21
ATOM     20  C   LIG    1        2.923  -1.197   0.085  0.00  0.00    +0.101 C 
ATOM     21  N   LIG    1        2.475   0.121  -0.347  0.00  0.00    -0.316 NA
ATOM     22  H   LIG    1        1.468   0.190  -0.193  0.00  0.00    +0.122 HD
ENDBRANCH   1  21
TORSDOF 2
