REMARK  Name = *****
REMARK                            x       y       z     vdW  Elec       q    Type
REMARK                         _______ _______ _______ _____ _____    ______ ____
ROOT
ATOM      1  O   LIG    1        1.153   0.280   0.682  0.00  0.00    -0.248 OA
ATOM      2  C   LIG    1        2.288   0.129   0.237  0.00  0.00    +0.339 C 
ATOM      3  C   LIG    1        2.948  -1.252   0.145  0.00  0.00    +0.254 C 
ATOM      4  C   LIG    1        3.973  -1.372  -0.986  0.00  0.00    +0.186 C 
ATOM      5  C   LIG    1        4.886  -0.147  -0.988  0.00  0.00    +0.189 C 
ATOM      6  C   LIG    1        4.049   1.129  -1.111  0.00  0.00    +0.233 C 
ATOM      7  O   LIG    1        3.052   1.208  -0.068  0.00  0.00    -0.455 OA
ENDROOT
BRANCH   3   8
ATOM      8  O   LIG    1        3.564  -1.596   1.389  0.00  0.00    -0.378 OA
ATOM      9  H   LIG    1        4.364  -1.033   1.472  0.00  0.00    +0.211 HD
ENDBRANCH   3   8
BRANCH   4  10
ATOM     10  O   LIG    1        3.355  -1.544  -2.265  0.00  0.00    -0.386 OA
ATOM     11  H   LIG    1        2.935  -2.426  -2.263  0.00  0.00    +0.210 HD
ENDBRANCH   4  10
BRANCH   5  12
ATOM     12  O   LIG    1        5.611  -0.125   0.255  0.00  0.00    -0.385 OA
ATOM     13  H   LIG    1        6.271   0.592   0.191  0.00  0.00    +0.210 HD
ENDBRANCH   5  12
BRANCH   6  14
ATOM     14  C   LIG    1        3.358   1.346  -2.467  0.00  0.00    +0.203 C 
BRANCH  14  15
ATOM     15  O   LIG    1        4.166   0.921  -3.555  0.00  0.00    -0.391 OA
ATOM     16  H   LIG    1        3.984  -0.034  -3.667  0.00  0.00    +0.210 HD
ENDBRANCH  14  15
ENDBRANCH   6  14
TORSDOF 5
