REMARK  Name = *****
REMARK                            x       y       z     vdW  Elec       q    Type
REMARK                         _______ _______ _______ _____ _____    ______ ____
ROOT
ATOM      1  C   LIG    1        5.403   1.519  -1.348  0.00  0.00    +0.146 A 
ATOM      2  C   LIG    1        6.499   1.860  -2.154  0.00  0.00    +0.101 A 
ATOM      3  C   LIG    1        7.794   1.510  -1.738  0.00  0.00    +0.019 A 
ATOM      4  C   LIG    1        7.991   0.818  -0.542  0.00  0.00    +0.001 A 
ATOM      5  C   LIG    1        6.899   0.476   0.250  0.00  0.00    +0.004 A 
ATOM      6  C   LIG    1        5.609   0.836  -0.143  0.00  0.00    +0.047 A 
ENDROOT
BRANCH   2   7
ATOM      7  C   LIG    1        6.401   2.618  -3.424  0.00  0.00    +0.340 C 
ATOM      8  O   LIG    1        7.270   3.333  -3.884  0.00  0.00    -0.245 OA
BRANCH   7   9
ATOM      9  O   LIG    1        5.274   2.366  -4.115  0.00  0.00    -0.477 OA
ATOM     10  H   LIG    1        5.400   2.876  -4.943  0.00  0.00    +0.295 HD
ENDBRANCH   7   9
ENDBRANCH   2   7
BRANCH   1  11
ATOM     11  O   LIG    1        4.121   2.010  -1.689  0.00  0.00    -0.425 OA
BRANCH  11  13
ATOM     12  C   LIG    1        1.773   2.192  -1.702  0.00  0.00    +0.136 C 
ATOM     13  C   LIG    1        2.949   1.330  -1.353  0.00  0.00    +0.309 C 
ATOM     14  O   LIG    1        2.861   0.227  -0.831  0.00  0.00    -0.251 OA
ENDBRANCH  11  13
ENDBRANCH   1  11
TORSDOF 4
