REMARK  Name = *****
REMARK                            x       y       z     vdW  Elec       q    Type
REMARK                         _______ _______ _______ _____ _____    ______ ____
ROOT
ATOM      1  C   LIG    1        7.292  -5.129   4.064  0.00  0.00    +0.189 C 
ENDROOT
BRANCH   1   2
ATOM      2  O   LIG    1        8.370  -4.495   3.359  0.00  0.00    -0.385 OA
ATOM      3  H   LIG    1        9.166  -4.584   3.920  0.00  0.00    +0.210 HD
ENDBRANCH   1   2
BRANCH   1   4
ATOM      4  C   LIG    1        6.042  -5.251   3.164  0.00  0.00    +0.263 C 
BRANCH   4   5
ATOM      5  O   LIG    1        5.504  -3.988   2.744  0.00  0.00    -0.488 OA
BRANCH   5  10
ATOM      6  C   LIG    1        4.557   0.423   0.436  0.00  0.00    +0.215 C 
ATOM      7  O   LIG    1        5.601  -0.189  -0.249  0.00  0.00    -0.448 OA
ATOM      8  C   LIG    1        6.024  -1.434   0.164  0.00  0.00    +0.143 A 
ATOM      9  C   LIG    1        5.469  -2.129   1.244  0.00  0.00    +0.105 A 
ATOM     10  C   LIG    1        5.993  -3.382   1.616  0.00  0.00    +0.135 A 
ATOM     11  C   LIG    1        7.014  -3.932   0.826  0.00  0.00    +0.046 A 
ATOM     12  C   LIG    1        7.544  -3.245  -0.265  0.00  0.00    +0.007 A 
ATOM     13  C   LIG    1        4.314  -1.502   1.931  0.00  0.00    +0.197 C 
ATOM     14  O   LIG    1        3.650  -2.030   2.803  0.00  0.00    -0.287 OA
ATOM     15  C   LIG    1        7.063  -1.985  -0.588  0.00  0.00    +0.047 A 
ATOM     16  C   LIG    1        3.930  -0.145   1.459  0.00  0.00    +0.105 C 
BRANCH   6  18
ATOM     17  O   LIG    1        4.483   2.236  -1.130  0.00  0.00    -0.242 OA
ATOM     18  C   LIG    1        4.157   1.757  -0.074  0.00  0.00    +0.373 C 
BRANCH  18  19
ATOM     19  O   LIG    1        3.375   2.438   0.799  0.00  0.00    -0.475 OA
ATOM     20  H   LIG    1        3.217   3.282   0.340  0.00  0.00    +0.295 HD
ENDBRANCH  18  19
ENDBRANCH   6  18
ENDBRANCH   5  10
ENDBRANCH   4   5
ENDBRANCH   1   4
BRANCH   1  21
ATOM     21  C   LIG    1        6.965  -4.358   5.352  0.00  0.00    +0.263 C 
BRANCH  21  22
ATOM     22  O   LIG    1        8.110  -4.345   6.219  0.00  0.00    -0.488 OA
BRANCH  22  23
ATOM     23  C   LIG    1        7.978  -3.659   7.403  0.00  0.00    +0.135 A 
ATOM     24  C   LIG    1        8.847  -3.990   8.459  0.00  0.00    +0.105 A 
ATOM     25  C   LIG    1        8.895  -3.210   9.620  0.00  0.00    +0.143 A 
ATOM     26  O   LIG    1        9.779  -3.443  10.649  0.00  0.00    -0.448 OA
ATOM     27  C   LIG    1       10.751  -4.413  10.456  0.00  0.00    +0.215 C 
ATOM     28  C   LIG    1       10.782  -5.258   9.418  0.00  0.00    +0.105 C 
ATOM     29  C   LIG    1        8.008  -2.150   9.785  0.00  0.00    +0.047 A 
ATOM     30  C   LIG    1        7.091  -1.857   8.777  0.00  0.00    +0.007 A 
ATOM     31  C   LIG    1        9.669  -5.216   8.454  0.00  0.00    +0.197 C 
ATOM     32  O   LIG    1        9.405  -6.204   7.779  0.00  0.00    -0.287 OA
ATOM     33  C   LIG    1        7.092  -2.589   7.584  0.00  0.00    +0.046 A 
BRANCH  27  34
ATOM     34  C   LIG    1       11.799  -4.591  11.508  0.00  0.00    +0.373 C 
ATOM     35  O   LIG    1       12.681  -5.406  11.474  0.00  0.00    -0.242 OA
BRANCH  34  36
ATOM     36  O   LIG    1       11.627  -3.715  12.532  0.00  0.00    -0.475 OA
ATOM     37  H   LIG    1       10.859  -3.128  12.412  0.00  0.00    +0.295 HD
ENDBRANCH  34  36
ENDBRANCH  27  34
ENDBRANCH  22  23
ENDBRANCH  21  22
ENDBRANCH   1  21
TORSDOF 11
