REMARK  Name = *****
REMARK                            x       y       z     vdW  Elec       q    Type
REMARK                         _______ _______ _______ _____ _____    ______ ____
ROOT
ATOM      1  C   LIG    1       -0.178  -0.956   0.065  0.00  0.00    +0.045 A 
ATOM      2  C   LIG    1       -0.526  -2.193  -0.516  0.00  0.00    +0.031 A 
ATOM      3  S   LIG    1       -1.054  -3.267   0.743  0.00  0.00    -0.087 S 
ATOM      4  C   LIG    1       -1.265  -2.032   1.885  0.00  0.00    +0.024 A 
ATOM      5  C   LIG    1       -1.833  -2.183   3.166  0.00  0.00    +0.061 A 
ATOM      6  C   LIG    1       -1.961  -1.069   3.982  0.00  0.00    +0.118 A 
ATOM      7  C   LIG    1       -1.552   0.175   3.545  0.00  0.00    +0.046 A 
ATOM      8  C   LIG    1       -0.979   0.312   2.266  0.00  0.00    +0.013 A 
ATOM      9  C   LIG    1       -0.796  -0.814   1.405  0.00  0.00    +0.001 A 
ENDROOT
BRANCH   2  10
ATOM     10  C   LIG    1       -0.457  -2.807  -1.889  0.00  0.00    -0.010 A 
ATOM     11  C   LIG    1        0.456  -2.413  -2.874  0.00  0.00    +0.012 A 
ATOM     12  C   LIG    1        0.513  -3.046  -4.130  0.00  0.00    +0.046 A 
ATOM     13  C   LIG    1       -0.345  -4.093  -4.429  0.00  0.00    +0.117 A 
ATOM     14  C   LIG    1       -1.290  -4.496  -3.505  0.00  0.00    +0.046 A 
ATOM     15  C   LIG    1       -1.343  -3.856  -2.256  0.00  0.00    +0.012 A 
BRANCH  13  16
ATOM     16  O   LIG    1       -0.224  -4.700  -5.643  0.00  0.00    -0.507 OA
ATOM     17  H   LIG    1       -0.802  -5.480  -5.661  0.00  0.00    +0.292 HD
ENDBRANCH  13  16
ENDBRANCH   2  10
BRANCH   1  19
ATOM     18  O   LIG    1        0.524   0.345  -1.799  0.00  0.00    -0.287 OA
ATOM     19  C   LIG    1        0.604   0.118  -0.604  0.00  0.00    +0.195 C 
BRANCH  19  20
ATOM     20  C   LIG    1        1.567   0.964   0.181  0.00  0.00    +0.022 A 
ATOM     21  C   LIG    1        1.875   2.249  -0.294  0.00  0.00    +0.015 A 
ATOM     22  C   LIG    1        2.825   3.047   0.352  0.00  0.00    +0.046 A 
ATOM     23  C   LIG    1        3.481   2.581   1.491  0.00  0.00    +0.121 A 
ATOM     24  C   LIG    1        3.145   1.330   2.006  0.00  0.00    +0.046 A 
ATOM     25  C   LIG    1        2.221   0.509   1.337  0.00  0.00    +0.015 A 
BRANCH  23  26
ATOM     26  O   LIG    1        4.417   3.432   2.005  0.00  0.00    -0.491 OA
BRANCH  26  27
ATOM     27  C   LIG    1        5.507   2.876   2.756  0.00  0.00    +0.244 C 
BRANCH  27  28
ATOM     28  C   LIG    1        6.394   1.936   1.913  0.00  0.00    +0.125 C 
BRANCH  28  29
ATOM     29  N   LIG    1        7.534   1.338   2.634  0.00  0.00    -0.299 NA
ATOM     30  C   LIG    1        8.222   0.335   1.799  0.00  0.00    +0.084 C 
ATOM     31  C   LIG    1        9.025   0.939   0.642  0.00  0.00    +0.015 C 
ATOM     32  C   LIG    1       10.008   1.993   1.142  0.00  0.00    +0.002 C 
ATOM     33  C   LIG    1        9.318   3.010   2.047  0.00  0.00    +0.015 C 
ATOM     34  C   LIG    1        8.505   2.317   3.143  0.00  0.00    +0.084 C 
ENDBRANCH  28  29
ENDBRANCH  27  28
ENDBRANCH  26  27
ENDBRANCH  23  26
ENDBRANCH  19  20
ENDBRANCH   1  19
BRANCH   6  35
ATOM     35  O   LIG    1       -2.517  -1.263   5.213  0.00  0.00    -0.507 OA
ATOM     36  H   LIG    1       -2.626  -0.407   5.658  0.00  0.00    +0.292 HD
ENDBRANCH   6  35
TORSDOF 9
