REMARK  Name = *****
REMARK                            x       y       z     vdW  Elec       q    Type
REMARK                         _______ _______ _______ _____ _____    ______ ____
ROOT
ATOM      1  C   LIG    1       -0.380   0.344   0.250  0.00  0.00    +0.014 C 
ATOM      2  C   LIG    1       -1.853  -0.069   0.537  0.00  0.00    -0.003 C 
ATOM      3  C   LIG    1       -1.832  -0.973   1.802  0.00  0.00    +0.121 C 
ATOM      4  C   LIG    1       -1.920  -2.424   1.315  0.00  0.00    +0.032 C 
ATOM      5  C   LIG    1       -1.790  -2.373  -0.203  0.00  0.00    +0.007 C 
ATOM      6  C   LIG    1       -2.345  -1.003  -0.607  0.00  0.00    +0.001 C 
ATOM      7  C   LIG    1       -3.861  -0.991  -0.956  0.00  0.00    +0.001 C 
ATOM      8  C   LIG    1       -4.427   0.445  -0.922  0.00  0.00    +0.023 C 
ATOM      9  C   LIG    1       -5.917   0.511  -1.203  0.00  0.00    -0.041 A 
ATOM     10  C   LIG    1       -6.746  -0.617  -1.084  0.00  0.00    -0.040 A 
ATOM     11  C   LIG    1       -6.182  -1.981  -0.793  0.00  0.00    +0.036 C 
ATOM     12  C   LIG    1       -8.124  -0.481  -1.310  0.00  0.00    +0.050 A 
ATOM     13  C   LIG    1       -8.665   0.765  -1.625  0.00  0.00    +0.132 A 
ATOM     14  C   LIG    1       -7.849   1.881  -1.764  0.00  0.00    +0.046 A 
ATOM     15  C   LIG    1       -6.481   1.751  -1.548  0.00  0.00    +0.008 A 
ATOM     16  C   LIG    1       -4.140   1.124   0.424  0.00  0.00    +0.009 C 
ATOM     17  C   LIG    1       -4.783  -1.943  -0.174  0.00  0.00    +0.009 C 
ATOM     18  C   LIG    1       -2.646   1.242   0.670  0.00  0.00    +0.010 C 
ENDROOT
BRANCH   3  19
ATOM     19  O   LIG    1       -2.859  -0.689   2.737  0.00  0.00    -0.391 OA
ATOM     20  H   LIG    1       -3.708  -0.991   2.377  0.00  0.00    +0.210 HD
ENDBRANCH   3  19
BRANCH  13  21
ATOM     21  O   LIG    1      -10.044   0.794  -1.892  0.00  0.00    -0.422 OA
BRANCH  21  22
ATOM     22  C   LIG    1      -10.800   1.908  -1.564  0.00  0.00    +0.344 C 
ATOM     23  O   LIG    1      -10.446   2.900  -0.947  0.00  0.00    -0.244 OA
BRANCH  22  24
ATOM     24  C   LIG    1      -12.188   1.698  -2.041  0.00  0.00    +0.059 A 
ATOM     25  C   LIG    1      -12.497   0.801  -3.074  0.00  0.00    +0.015 A 
ATOM     26  C   LIG    1      -13.819   0.651  -3.493  0.00  0.00    +0.001 A 
ATOM     27  C   LIG    1      -14.833   1.395  -2.887  0.00  0.00    +0.000 A 
ATOM     28  C   LIG    1      -14.529   2.291  -1.864  0.00  0.00    +0.001 A 
ATOM     29  C   LIG    1      -13.210   2.448  -1.443  0.00  0.00    +0.015 A 
ENDBRANCH  22  24
ENDBRANCH  21  22
ENDBRANCH  13  21
TORSDOF 4
