REMARK  Name = *****
REMARK                            x       y       z     vdW  Elec       q    Type
REMARK                         _______ _______ _______ _____ _____    ______ ____
ROOT
ATOM      1  C   LIG    1        0.720  -0.237   1.973  0.00  0.00    +0.101 C 
ATOM      2  C   LIG    1        1.810   0.745   1.481  0.00  0.00    +0.047 C 
ATOM      3  C   LIG    1        3.180   0.449   2.102  0.00  0.00    +0.086 C 
ATOM      4  N   LIG    1        3.672  -0.917   1.919  0.00  0.00    -0.302 NA
ATOM      5  C   LIG    1        2.657  -1.911   2.295  0.00  0.00    +0.086 C 
ATOM      6  C   LIG    1        1.254  -1.672   1.706  0.00  0.00    +0.047 C 
ENDROOT
BRANCH   1   7
ATOM      7  N   LIG    1       -0.647   0.004   1.342  0.00  0.00    -0.289 NA
ATOM      8  C   LIG    1       -0.708  -0.273  -0.107  0.00  0.00    +0.085 C 
ATOM      9  C   LIG    1       -2.143  -0.186  -0.642  0.00  0.00    +0.015 C 
ATOM     10  C   LIG    1       -2.782   1.166  -0.360  0.00  0.00    +0.002 C 
ATOM     11  C   LIG    1       -2.603   1.549   1.102  0.00  0.00    +0.015 C 
ATOM     12  C   LIG    1       -1.152   1.382   1.571  0.00  0.00    +0.085 C 
ENDBRANCH   1   7
BRANCH   1  16
ATOM     13  N   LIG    1       -0.162  -1.031   4.195  0.00  0.00    -0.328 N 
ATOM     14  H   LIG    1       -0.760  -1.675   3.697  0.00  0.00    +0.145 HD
ATOM     15  H   LIG    1       -0.344  -0.870   5.178  0.00  0.00    +0.145 HD
ATOM     16  C   LIG    1        0.539  -0.063   3.533  0.00  0.00    +0.231 C 
ATOM     17  O   LIG    1        0.949   0.909   4.166  0.00  0.00    -0.274 OA
ENDBRANCH   1  16
BRANCH   4  18
ATOM     18  C   LIG    1        4.314  -1.206   0.628  0.00  0.00    +0.085 C 
BRANCH  18  19
ATOM     19  C   LIG    1        5.458  -0.257   0.213  0.00  0.00    +0.023 C 
BRANCH  19  20
ATOM     20  C   LIG    1        6.582  -0.088   1.237  0.00  0.00    +0.081 C 
BRANCH  20  21
ATOM     21  C   LIG    1        7.403  -1.336   1.550  0.00  0.00    +0.163 C 
ATOM     22  O   LIG    1        7.452  -2.294   0.788  0.00  0.00    -0.292 OA
BRANCH  21  23
ATOM     23  C   LIG    1        8.259  -1.326   2.792  0.00  0.00    +0.018 A 
ATOM     24  C   LIG    1        8.297  -0.226   3.662  0.00  0.00    +0.014 A 
ATOM     25  C   LIG    1        9.154  -0.214   4.766  0.00  0.00    +0.039 A 
ATOM     26  C   LIG    1        9.985  -1.300   5.002  0.00  0.00    +0.123 A 
ATOM     27  F   LIG    1       10.833  -1.267   6.038  0.00  0.00    -0.205 F 
ATOM     28  C   LIG    1        9.952  -2.412   4.170  0.00  0.00    +0.039 A 
ATOM     29  C   LIG    1        9.086  -2.431   3.068  0.00  0.00    +0.014 A 
ENDBRANCH  21  23
ENDBRANCH  20  21
ENDBRANCH  19  20
ENDBRANCH  18  19
ENDBRANCH   4  18
TORSDOF 7
