REMARK  Name = *****
REMARK                            x       y       z     vdW  Elec       q    Type
REMARK                         _______ _______ _______ _____ _____    ______ ____
ROOT
ATOM      1  CA  ASP A  1        2.791  -0.433   0.500  0.00  0.00    +0.171 C 
ENDROOT
BRANCH   1   2
ATOM      2  N   ASP A  1        2.551  -0.053  -0.927  0.00  0.00    -0.318 NA
ATOM      3  H1  ASP A  1        1.684  -0.502  -1.250  0.00  0.00    +0.119 HD
ATOM      4  H2  ASP A  1        2.341   0.949  -0.975  0.00  0.00    +0.119 HD
ENDBRANCH   1   2
BRANCH   1   5
ATOM      5  C   ASP A  1        2.896  -1.970   0.519  0.00  0.00    +0.322 C 
ATOM      6  O   ASP A  1        2.558  -2.679   1.444  0.00  0.00    -0.249 OA
BRANCH   5   7
ATOM      7  OXT ASP A  1        3.416  -2.446  -0.638  0.00  0.00    -0.479 OA
ATOM      8  HXT ASP A  1        3.550  -1.676  -1.244  0.00  0.00    +0.295 HD
ENDBRANCH   5   7
ENDBRANCH   1   5
BRANCH   1   9
ATOM      9  CB  ASP A  1        1.687   0.094   1.415  0.00  0.00    +0.150 C 
BRANCH   9  10
ATOM     10  CG  ASP A  1        1.942  -0.000   2.907  0.00  0.00    +0.307 C 
ATOM     11  OD1 ASP A  1        1.825   0.974   3.643  0.00  0.00    -0.251 OA
BRANCH  10  12
ATOM     12  OD2 ASP A  1        2.210  -1.213   3.413  0.00  0.00    -0.481 OA
ATOM     13  HD2 ASP A  1        2.225  -1.983   2.791  0.00  0.00    +0.295 HD
ENDBRANCH  10  12
ENDBRANCH   9  10
ENDBRANCH   1   9
TORSDOF 6
