REMARK  Name = *****
REMARK                            x       y       z     vdW  Elec       q    Type
REMARK                         _______ _______ _______ _____ _____    ______ ____
ROOT
ATOM      1  C   LIG    1        4.287   5.309   3.107  0.00  0.00    +0.169 C 
ATOM      2  C   LIG    1        3.258   5.364   4.268  0.00  0.00    +0.084 C 
ATOM      3  C   LIG    1        3.290   4.166   5.247  0.00  0.00    +0.042 C 
ATOM      4  C   LIG    1        4.337   3.130   4.952  0.00  0.00    +0.084 C 
ATOM      5  C   LIG    1        4.543   2.752   3.433  0.00  0.00    +0.169 C 
ATOM      6  C   LIG    1        4.192   3.924   2.471  0.00  0.00    +0.175 C 
ENDROOT
BRANCH   2   7
ATOM      7  N   LIG    1        1.862   5.421   3.773  0.00  0.00    -0.325 NA
ATOM      8  H   LIG    1        1.628   4.542   3.295  0.00  0.00    +0.118 HD
ATOM      9  H   LIG    1        1.234   5.426   4.579  0.00  0.00    +0.118 HD
ENDBRANCH   2   7
BRANCH   4  10
ATOM     10  N   LIG    1        4.518   2.126   6.017  0.00  0.00    -0.325 NA
ATOM     11  H   LIG    1        5.313   1.520   5.781  0.00  0.00    +0.118 HD
ATOM     12  H   LIG    1        4.825   2.609   6.862  0.00  0.00    +0.118 HD
ENDBRANCH   4  10
BRANCH   6  13
ATOM     13  O   LIG    1        4.997   3.973   1.283  0.00  0.00    -0.387 OA
ATOM     14  H   LIG    1        4.349   4.095   0.542  0.00  0.00    +0.210 HD
ENDBRANCH   6  13
BRANCH   1  15
ATOM     15  O   LIG    1        5.630   5.830   3.350  0.00  0.00    -0.342 OA
BRANCH  15  18
ATOM     16  C   LIG    1        7.499   3.075   4.948  0.00  0.00    +0.138 C 
ATOM     17  O   LIG    1        6.827   3.928   4.010  0.00  0.00    -0.345 OA
ATOM     18  C   LIG    1        6.450   5.253   4.372  0.00  0.00    +0.268 C 
ATOM     19  C   LIG    1        7.784   5.977   4.615  0.00  0.00    +0.107 C 
ATOM     20  C   LIG    1        8.484   5.211   5.768  0.00  0.00    +0.026 C 
ATOM     21  C   LIG    1        8.760   3.734   5.453  0.00  0.00    +0.035 C 
BRANCH  19  22
ATOM     22  N   LIG    1        8.601   5.985   3.384  0.00  0.00    -0.323 NA
ATOM     23  H   LIG    1        9.120   5.110   3.325  0.00  0.00    +0.119 HD
ATOM     24  H   LIG    1        7.927   5.883   2.609  0.00  0.00    +0.119 HD
ENDBRANCH  19  22
BRANCH  16  25
ATOM     25  C   LIG    1        7.689   1.642   4.305  0.00  0.00    +0.079 C 
ATOM     26  C   LIG    1        8.278   0.653   5.321  0.00  0.00    +0.026 C 
BRANCH  25  28
ATOM     27  C   LIG    1        7.991   2.402   1.963  0.00  0.00    +0.101 C 
ATOM     28  N   LIG    1        8.522   1.616   3.082  0.00  0.00    -0.314 NA
ATOM     29  H   LIG    1        9.444   1.958   3.305  0.00  0.00    +0.122 HD
ENDBRANCH  25  28
ENDBRANCH  16  25
ENDBRANCH  15  18
ENDBRANCH   1  15
BRANCH   5  30
ATOM     30  O   LIG    1        3.842   1.524   3.150  0.00  0.00    -0.341 OA
BRANCH  30  31
ATOM     31  C   LIG    1        4.258   0.942   1.902  0.00  0.00    +0.281 C 
ATOM     32  C   LIG    1        3.672  -0.474   1.752  0.00  0.00    +0.190 C 
ATOM     33  C   LIG    1        2.118  -0.370   1.707  0.00  0.00    +0.121 C 
ATOM     34  C   LIG    1        1.695   0.738   0.677  0.00  0.00    +0.104 C 
ATOM     35  C   LIG    1        0.777   1.745   1.367  0.00  0.00    +0.045 C 
ATOM     36  C   LIG    1        2.877   1.419   0.017  0.00  0.00    +0.199 C 
ATOM     37  O   LIG    1        3.893   1.823   0.862  0.00  0.00    -0.346 OA
BRANCH  33  38
ATOM     38  N   LIG    1        1.517  -1.699   1.478  0.00  0.00    -0.311 NA
ATOM     39  H   LIG    1        1.784  -2.025   0.548  0.00  0.00    +0.122 HD
ATOM     40  C   LIG    1        0.082  -1.761   1.667  0.00  0.00    +0.101 C 
ENDBRANCH  33  38
BRANCH  32  41
ATOM     41  O   LIG    1        4.111  -1.334   2.813  0.00  0.00    -0.385 OA
ATOM     42  H   LIG    1        5.046  -1.094   3.026  0.00  0.00    +0.210 HD
ENDBRANCH  32  41
BRANCH  34  43
ATOM     43  O   LIG    1        1.010   0.175  -0.479  0.00  0.00    -0.385 OA
ATOM     44  H   LIG    1        0.130   0.017  -0.269  0.00  0.00    +0.210 HD
ENDBRANCH  34  43
ENDBRANCH  30  31
ENDBRANCH   5  30
TORSDOF 13
