REMARK  Name = *****
REMARK                            x       y       z     vdW  Elec       q    Type
REMARK                         _______ _______ _______ _____ _____    ______ ____
ROOT
ATOM      1  C   LIG    1       11.432  -4.051  -4.223  0.00  0.00    +0.001 C 
ENDROOT
BRANCH   1   2
ATOM      2  C   LIG    1       12.490  -3.777  -3.146  0.00  0.00    +0.001 C 
BRANCH   2   3
ATOM      3  C   LIG    1       13.941  -3.818  -3.645  0.00  0.00    +0.015 C 
BRANCH   3   4
ATOM      4  C   LIG    1       14.370  -5.164  -4.247  0.00  0.00    +0.081 C 
BRANCH   4   5
ATOM      5  N   LIG    1       15.777  -5.218  -4.657  0.00  0.00    -0.313 NA
ATOM      6  H   LIG    1       16.386  -5.050  -3.857  0.00  0.00    +0.122 HD
BRANCH   5   7
ATOM      7  C   LIG    1       16.119  -4.298  -5.756  0.00  0.00    +0.117 C 
BRANCH   7   8
ATOM      8  C   LIG    1       17.623  -4.356  -6.162  0.00  0.00    +0.158 C 
BRANCH   8   9
ATOM      9  C   LIG    1       17.963  -3.315  -7.218  0.00  0.00    -0.014 A 
ATOM     10  C   LIG    1       17.852  -3.579  -8.593  0.00  0.00    +0.055 A 
ATOM     11  C   LIG    1       18.141  -2.584  -9.519  0.00  0.00    +0.159 A 
ATOM     12  C   LIG    1       18.546  -1.319  -9.107  0.00  0.00    +0.158 A 
ATOM     13  C   LIG    1       18.675  -1.034  -7.755  0.00  0.00    +0.049 A 
ATOM     14  C   LIG    1       18.379  -2.029  -6.815  0.00  0.00    +0.010 A 
BRANCH  12  15
ATOM     15  O   LIG    1       18.797  -0.385 -10.073  0.00  0.00    -0.503 OA
ATOM     16  H   LIG    1       19.046   0.446  -9.634  0.00  0.00    +0.292 HD
ENDBRANCH  12  15
BRANCH  11  17
ATOM     17  O   LIG    1       18.011  -2.859 -10.851  0.00  0.00    -0.503 OA
ATOM     18  H   LIG    1       18.248  -2.023 -11.298  0.00  0.00    +0.292 HD
ENDBRANCH  11  17
ENDBRANCH   8   9
BRANCH   8  19
ATOM     19  O   LIG    1       18.009  -5.655  -6.611  0.00  0.00    -0.386 OA
ATOM     20  H   LIG    1       17.397  -5.912  -7.319  0.00  0.00    +0.210 HD
ENDBRANCH   8  19
ENDBRANCH   7   8
ENDBRANCH   5   7
ENDBRANCH   4   5
ENDBRANCH   3   4
ENDBRANCH   2   3
ENDBRANCH   1   2
BRANCH   1  21
ATOM     21  C   LIG    1        9.987  -3.973  -3.693  0.00  0.00    +0.015 C 
BRANCH  21  22
ATOM     22  C   LIG    1        9.710  -5.026  -2.612  0.00  0.00    +0.081 C 
BRANCH  22  23
ATOM     23  N   LIG    1        8.330  -4.984  -2.104  0.00  0.00    -0.313 NA
ATOM     24  H   LIG    1        7.681  -5.141  -2.879  0.00  0.00    +0.122 HD
BRANCH  23  25
ATOM     25  C   LIG    1        8.149  -6.057  -1.096  0.00  0.00    +0.117 C 
BRANCH  25  26
ATOM     26  C   LIG    1        6.717  -6.092  -0.493  0.00  0.00    +0.158 C 
BRANCH  26  30
ATOM     27  C   LIG    1        6.068  -9.002   2.669  0.00  0.00    +0.158 A 
ATOM     28  C   LIG    1        5.280  -7.847   2.593  0.00  0.00    +0.159 A 
ATOM     29  C   LIG    1        5.499  -6.922   1.574  0.00  0.00    +0.055 A 
ATOM     30  C   LIG    1        6.506  -7.117   0.613  0.00  0.00    -0.014 A 
ATOM     31  C   LIG    1        7.265  -8.303   0.692  0.00  0.00    +0.010 A 
ATOM     32  C   LIG    1        7.051  -9.227   1.717  0.00  0.00    +0.049 A 
BRANCH  27  33
ATOM     33  O   LIG    1        5.854  -9.893   3.677  0.00  0.00    -0.503 OA
ATOM     34  H   LIG    1        6.524 -10.599   3.619  0.00  0.00    +0.292 HD
ENDBRANCH  27  33
BRANCH  28  35
ATOM     35  O   LIG    1        4.309  -7.645   3.526  0.00  0.00    -0.503 OA
ATOM     36  H   LIG    1        3.828  -6.829   3.298  0.00  0.00    +0.292 HD
ENDBRANCH  28  35
ENDBRANCH  26  30
BRANCH  26  37
ATOM     37  O   LIG    1        6.401  -4.793   0.029  0.00  0.00    -0.386 OA
ATOM     38  H   LIG    1        7.099  -4.194  -0.299  0.00  0.00    +0.210 HD
ENDBRANCH  26  37
ENDBRANCH  25  26
ENDBRANCH  23  25
ENDBRANCH  22  23
ENDBRANCH  21  22
ENDBRANCH   1  21
TORSDOF 19
