REMARK  Name = *****
REMARK                            x       y       z     vdW  Elec       q    Type
REMARK                         _______ _______ _______ _____ _____    ______ ____
ROOT
ATOM      1  I   LIG    1        0.989  -0.109   0.059  0.00  0.00    -0.059 I 
ATOM      2  C   LIG    1        3.099  -0.043   0.036  0.00  0.00    +0.177 C 
ATOM      3  I   LIG    1        3.769  -1.612  -1.208  0.00  0.00    -0.059 I 
ATOM      4  I   LIG    1        3.769  -0.455   1.995  0.00  0.00    -0.059 I 
ENDROOT
TORSDOF 0
