REMARK  Name = *****
REMARK                            x       y       z     vdW  Elec       q    Type
REMARK                         _______ _______ _______ _____ _____    ______ ____
ROOT
ATOM      1  N   LIG    1        3.680   1.794  -0.534  0.00  0.00    -0.263 NA
ATOM      2  C   LIG    1        4.611   2.307  -1.454  0.00  0.00    +0.075 C 
ATOM      3  C   LIG    1        4.498   3.642  -1.903  0.00  0.00    +0.053 C 
ATOM      4  C   LIG    1        5.395   4.229  -2.811  0.00  0.00    +0.063 C 
ATOM      5  C   LIG    1        6.423   3.445  -3.269  0.00  0.00    +0.167 C 
ATOM      6  O   LIG    1        7.389   3.825  -4.142  0.00  0.00    -0.453 OA
ATOM      7  C   LIG    1        8.165   2.613  -4.236  0.00  0.00    +0.466 C 
ATOM      8  O   LIG    1        7.641   1.538  -3.426  0.00  0.00    -0.453 OA
ATOM      9  C   LIG    1        6.562   2.144  -2.859  0.00  0.00    +0.168 C 
ATOM     10  C   LIG    1        3.386   4.437  -1.386  0.00  0.00    +0.222 C 
ATOM     11  O   LIG    1        3.206   5.591  -1.738  0.00  0.00    -0.285 OA
ATOM     12  C   LIG    1        2.468   3.772  -0.408  0.00  0.00    +0.214 C 
ATOM     13  C   LIG    1        5.683   1.554  -1.967  0.00  0.00    +0.077 C 
ATOM     14  N   LIG    1        2.636   2.528  -0.041  0.00  0.00    -0.160 NA
ENDROOT
BRANCH   1  16
ATOM     15  C   LIG    1        3.045  -0.557  -0.944  0.00  0.00    +0.029 C 
ATOM     16  C   LIG    1        3.771   0.415  -0.026  0.00  0.00    +0.141 C 
ENDBRANCH   1  16
BRANCH  12  17
ATOM     17  C   LIG    1        1.278   4.484   0.239  0.00  0.00    +0.361 C 
ATOM     18  O   LIG    1        0.975   5.641   0.048  0.00  0.00    -0.243 OA
BRANCH  17  19
ATOM     19  O   LIG    1        0.612   3.647   1.065  0.00  0.00    -0.476 OA
ATOM     20  H   LIG    1        1.055   2.768   1.060  0.00  0.00    +0.295 HD
ENDBRANCH  17  19
ENDBRANCH  12  17
TORSDOF 3
