REMARK  Name = *****
REMARK                            x       y       z     vdW  Elec       q    Type
REMARK                         _______ _______ _______ _____ _____    ______ ____
ROOT
ATOM      1  C   LIG    1       11.076   2.628   1.741  0.00  0.00    +0.176 C 
ENDROOT
BRANCH   1   2
ATOM      2  O   LIG    1       10.642   1.285   1.462  0.00  0.00    -0.387 OA
ATOM      3  H   LIG    1        9.793   1.162   1.940  0.00  0.00    +0.210 HD
ENDBRANCH   1   2
BRANCH   1   4
ATOM      4  C   LIG    1       12.395   2.859   0.952  0.00  0.00    +0.173 C 
BRANCH   4   5
ATOM      5  O   LIG    1       12.188   2.672  -0.454  0.00  0.00    -0.387 OA
ATOM      6  H   LIG    1       11.438   2.050  -0.533  0.00  0.00    +0.210 HD
ENDBRANCH   4   5
BRANCH   4   7
ATOM      7  C   LIG    1       13.536   1.909   1.353  0.00  0.00    +0.227 C 
BRANCH   7   8
ATOM      8  O   LIG    1       13.883   2.015   2.729  0.00  0.00    -0.236 OA
BRANCH   8  10
ATOM      9  C   LIG    1       15.124   1.537   4.933  0.00  0.00    +0.228 C 
ATOM     10  S   LIG    1       15.100   1.043   3.229  0.00  0.00    +0.079 S 
ATOM     11  O   LIG    1       14.656  -0.332   3.161  0.00  0.00    -0.147 OA
ATOM     12  O   LIG    1       16.331   1.485   2.608  0.00  0.00    -0.147 OA
ENDBRANCH   8  10
ENDBRANCH   7   8
ENDBRANCH   4   7
ENDBRANCH   1   4
BRANCH   1  13
ATOM     13  C   LIG    1        9.938   3.635   1.363  0.00  0.00    +0.176 C 
BRANCH  13  14
ATOM     14  O   LIG    1        9.553   3.454  -0.007  0.00  0.00    -0.387 OA
ATOM     15  H   LIG    1        9.258   2.527  -0.093  0.00  0.00    +0.210 HD
ENDBRANCH  13  14
BRANCH  13  16
ATOM     16  C   LIG    1        8.666   3.481   2.248  0.00  0.00    +0.173 C 
BRANCH  16  17
ATOM     17  O   LIG    1        8.211   2.116   2.151  0.00  0.00    -0.387 OA
ATOM     18  H   LIG    1        7.244   2.117   2.283  0.00  0.00    +0.210 HD
ENDBRANCH  16  17
BRANCH  16  19
ATOM     19  C   LIG    1        7.528   4.461   1.858  0.00  0.00    +0.227 C 
BRANCH  19  20
ATOM     20  O   LIG    1        6.447   4.373   2.804  0.00  0.00    -0.236 OA
BRANCH  20  21
ATOM     21  S   LIG    1        5.186   5.401   2.584  0.00  0.00    +0.079 S 
ATOM     22  O   LIG    1        4.487   5.009   1.368  0.00  0.00    -0.147 OA
ATOM     23  O   LIG    1        5.647   6.748   2.799  0.00  0.00    -0.147 OA
ATOM     24  C   LIG    1        4.185   4.917   3.979  0.00  0.00    +0.228 C 
ENDBRANCH  20  21
ENDBRANCH  19  20
ENDBRANCH  16  19
ENDBRANCH  13  16
ENDBRANCH   1  13
TORSDOF 13
