REMARK  Name = *****
REMARK                            x       y       z     vdW  Elec       q    Type
REMARK                         _______ _______ _______ _____ _____    ______ ____
ROOT
ATOM      1  C   LIG    1        4.868   4.136  -1.548  0.00  0.00    +0.033 A 
ATOM      2  C   LIG    1        6.004   4.628  -0.886  0.00  0.00    +0.070 A 
ATOM      3  C   LIG    1        6.084   5.920  -0.329  0.00  0.00    +0.142 A 
ATOM      4  C   LIG    1        4.933   6.713  -0.266  0.00  0.00    +0.081 A 
ATOM      5  C   LIG    1        3.757   6.212  -0.844  0.00  0.00    +0.018 A 
ATOM      6  C   LIG    1        3.728   4.950  -1.472  0.00  0.00    +0.024 A 
ENDROOT
BRANCH   1  10
ATOM      7  N   LIG    1        5.027   0.973  -4.567  0.00  0.00    -0.295 NA
ATOM      8  C   LIG    1        6.229   1.348  -3.804  0.00  0.00    +0.103 C 
ATOM      9  C   LIG    1        6.203   2.641  -2.953  0.00  0.00    +0.120 C 
ATOM     10  N   LIG    1        4.921   2.894  -2.228  0.00  0.00    -0.327 N 
ATOM     11  C   LIG    1        3.709   2.469  -2.959  0.00  0.00    +0.120 C 
ATOM     12  C   LIG    1        3.868   1.099  -3.662  0.00  0.00    +0.103 C 
BRANCH   7  13
ATOM     13  C   LIG    1        4.834   1.646  -5.871  0.00  0.00    +0.115 C 
BRANCH  13  18
ATOM     14  C   LIG    1        8.122   0.008  -9.640  0.00  0.00    +0.011 C 
ATOM     15  C   LIG    1        8.483   0.431  -8.202  0.00  0.00    -0.031 C 
ATOM     16  C   LIG    1        8.191   1.943  -7.976  0.00  0.00    +0.042 C 
ATOM     17  C   LIG    1        6.820   2.372  -7.399  0.00  0.00    -0.039 C 
ATOM     18  C   LIG    1        6.000   1.438  -6.841  0.00  0.00    -0.052 C 
ATOM     19  C   LIG    1        6.213  -0.023  -7.199  0.00  0.00    +0.033 C 
ATOM     20  C   LIG    1        7.683  -0.410  -7.199  0.00  0.00    +0.011 C 
ATOM     21  C   LIG    1        9.989   0.144  -7.995  0.00  0.00    +0.011 C 
BRANCH  17  22
ATOM     22  C   LIG    1        6.552   3.852  -7.478  0.00  0.00    -0.022 A 
ATOM     23  C   LIG    1        5.271   4.359  -7.773  0.00  0.00    +0.009 A 
ATOM     24  C   LIG    1        5.065   5.720  -8.068  0.00  0.00    +0.020 A 
ATOM     25  C   LIG    1        6.135   6.608  -8.045  0.00  0.00    +0.041 A 
ATOM     26 CL   LIG    1        5.894   8.268  -8.425  0.00  0.00    -0.084 Cl
ATOM     27  C   LIG    1        7.404   6.148  -7.721  0.00  0.00    +0.020 A 
ATOM     28  C   LIG    1        7.607   4.785  -7.454  0.00  0.00    +0.009 A 
ENDBRANCH  17  22
ENDBRANCH  13  18
ENDBRANCH   7  13
ENDBRANCH   1  10
BRANCH   4  29
ATOM     29  C   LIG    1        4.862   8.022   0.433  0.00  0.00    +0.267 C 
ATOM     30  N   LIG    1        5.765   8.183   1.513  0.00  0.00    -0.181 N 
ATOM     31  H   LIG    1        6.482   7.493   1.682  0.00  0.00    +0.177 HD
ATOM     32  O   LIG    1        4.012   8.853   0.123  0.00  0.00    -0.269 OA
BRANCH  30  33
ATOM     33  S   LIG    1        5.929   9.538   2.464  0.00  0.00    +0.075 S 
ATOM     34  O   LIG    1        5.410  10.736   1.801  0.00  0.00    -0.150 OA
ATOM     35  O   LIG    1        7.268   9.479   2.971  0.00  0.00    -0.150 OA
BRANCH  33  36
ATOM     36  C   LIG    1        4.824   9.156   3.808  0.00  0.00    +0.115 A 
ATOM     37  C   LIG    1        3.483   8.900   3.546  0.00  0.00    +0.115 A 
ATOM     38  C   LIG    1        2.675   8.421   4.589  0.00  0.00    +0.296 A 
ATOM     39  C   LIG    1        3.149   8.214   5.906  0.00  0.00    +0.105 A 
ATOM     40  C   LIG    1        4.495   8.545   6.131  0.00  0.00    +0.032 A 
ATOM     41  C   LIG    1        5.327   9.019   5.100  0.00  0.00    +0.031 A 
BRANCH  38  42
ATOM     42  N   LIG    1        1.277   8.193   4.264  0.00  0.00    +0.082 N 
ATOM     43  O   LIG    1        0.647   9.163   3.814  0.00  0.00    -0.576 OA
ATOM     44  O   LIG    1        0.843   7.039   4.370  0.00  0.00    +0.042 OA
ENDBRANCH  38  42
BRANCH  39  45
ATOM     45  N   LIG    1        2.363   7.574   6.882  0.00  0.00    -0.338 N 
ATOM     46  H   LIG    1        2.327   6.575   6.665  0.00  0.00    +0.146 HD
BRANCH  45  47
ATOM     47  C   LIG    1        2.584   7.831   8.314  0.00  0.00    +0.105 C 
BRANCH  47  48
ATOM     48  C   LIG    1        1.651   6.968   9.206  0.00  0.00    +0.010 C 
ATOM     49  C   LIG    1        1.857   5.454   9.035  0.00  0.00    +0.033 C 
ATOM     50  C   LIG    1        3.188   5.007   9.625  0.00  0.00    +0.160 C 
ATOM     51  O   LIG    1        3.240   5.316  11.016  0.00  0.00    -0.380 OA
ATOM     52  C   LIG    1        3.125   6.712  11.280  0.00  0.00    +0.160 C 
ATOM     53  C   LIG    1        1.829   7.285  10.707  0.00  0.00    +0.033 C 
ENDBRANCH  47  48
ENDBRANCH  45  47
ENDBRANCH  39  45
ENDBRANCH  33  36
ENDBRANCH  30  33
ENDBRANCH   4  29
BRANCH   3  54
ATOM     54  O   LIG    1        7.283   6.418   0.155  0.00  0.00    -0.454 OA
BRANCH  54  55
ATOM     55  C   LIG    1        8.458   6.049  -0.471  0.00  0.00    +0.147 A 
ATOM     56  C   LIG    1        9.619   6.021   0.305  0.00  0.00    +0.059 A 
ATOM     57  C   LIG    1       10.810   5.627  -0.333  0.00  0.00    +0.022 A 
ATOM     58  C   LIG    1       10.717   5.183  -1.648  0.00  0.00    +0.138 A 
ATOM     59  N   LIG    1       11.944   4.723  -2.031  0.00  0.00    -0.346 N 
ATOM     60  H   LIG    1       12.121   4.278  -2.920  0.00  0.00    +0.167 HD
ATOM     61  C   LIG    1       12.871   5.056  -1.078  0.00  0.00    +0.085 A 
ATOM     62  N   LIG    1        9.638   5.201  -2.446  0.00  0.00    -0.234 NA
ATOM     63  C   LIG    1       12.193   5.590   0.000  0.00  0.00    +0.029 A 
ATOM     64  C   LIG    1        8.556   5.727  -1.828  0.00  0.00    +0.159 A 
ENDBRANCH  54  55
ENDBRANCH   3  54
TORSDOF 13
