REMARK  Name = *****
REMARK                            x       y       z     vdW  Elec       q    Type
REMARK                         _______ _______ _______ _____ _____    ______ ____
ROOT
ATOM      1  C   LIG    1        5.351  -1.500  -0.675  0.00  0.00    +0.059 C 
ENDROOT
BRANCH   1   2
ATOM      2  C   LIG    1        5.688  -2.692  -1.655  0.00  0.00    -0.033 A 
ATOM      3  C   LIG    1        4.727  -3.358  -2.434  0.00  0.00    +0.005 A 
ATOM      4  C   LIG    1        5.022  -4.521  -3.153  0.00  0.00    +0.000 A 
ATOM      5  C   LIG    1        6.299  -5.055  -3.119  0.00  0.00    +0.000 A 
ATOM      6  C   LIG    1        7.303  -4.358  -2.465  0.00  0.00    +0.000 A 
ATOM      7  C   LIG    1        7.011  -3.153  -1.818  0.00  0.00    +0.005 A 
ENDBRANCH   1   2
BRANCH   1   8
ATOM      8  C   LIG    1        6.169  -1.536   0.695  0.00  0.00    -0.033 A 
ATOM      9  C   LIG    1        7.008  -2.608   1.067  0.00  0.00    +0.005 A 
ATOM     10  C   LIG    1        7.830  -2.585   2.201  0.00  0.00    +0.000 A 
ATOM     11  C   LIG    1        7.762  -1.523   3.082  0.00  0.00    +0.000 A 
ATOM     12  C   LIG    1        6.863  -0.495   2.822  0.00  0.00    +0.000 A 
ATOM     13  C   LIG    1        6.061  -0.515   1.661  0.00  0.00    +0.005 A 
ENDBRANCH   1   8
BRANCH   1  14
ATOM     14  C   LIG    1        3.771  -1.492  -0.208  0.00  0.00    +0.191 C 
BRANCH  14  16
ATOM     15  C   LIG    1        1.910  -2.725   1.143  0.00  0.00    +0.007 C 
ATOM     16  C   LIG    1        3.368  -2.713   0.669  0.00  0.00    +0.042 C 
ENDBRANCH  14  16
BRANCH  14  17
ATOM     17  O   LIG    1        2.854  -1.499  -1.328  0.00  0.00    -0.460 OA
BRANCH  17  18
ATOM     18  C   LIG    1        2.250  -0.400  -1.794  0.00  0.00    +0.304 C 
ATOM     19  O   LIG    1        2.379   0.704  -1.287  0.00  0.00    -0.251 OA
ATOM     20  C   LIG    1        1.410  -0.656  -2.970  0.00  0.00    +0.136 C 
ENDBRANCH  17  18
ENDBRANCH  14  17
ENDBRANCH   1  14
BRANCH   1  21
ATOM     21  C   LIG    1        5.598  -0.167  -1.534  0.00  0.00    +0.038 C 
BRANCH  21  22
ATOM     22  C   LIG    1        7.006   0.176  -2.159  0.00  0.00    +0.054 C 
ATOM     23  C   LIG    1        6.875   1.391  -3.115  0.00  0.00    +0.024 C 
BRANCH  22  24
ATOM     24  N   LIG    1        8.101   0.347  -1.182  0.00  0.00    -0.306 NA
ATOM     25  C   LIG    1        7.859   1.396  -0.197  0.00  0.00    +0.105 C 
ATOM     26  C   LIG    1        9.411   0.597  -1.794  0.00  0.00    +0.105 C 
ENDBRANCH  22  24
ENDBRANCH  21  22
ENDBRANCH   1  21
TORSDOF 9
