REMARK  Name = *****
REMARK                            x       y       z     vdW  Elec       q    Type
REMARK                         _______ _______ _______ _____ _____    ______ ____
ROOT
ATOM      1  C   LIG    1        3.101   1.390 -10.123  0.00  0.00    +0.034 C 
ENDROOT
BRANCH   1   2
ATOM      2  C   LIG    1        4.161   1.554  -9.031  0.00  0.00    +0.085 C 
BRANCH   2   3
ATOM      3  N   LIG    1        4.203   2.864  -8.334  0.00  0.00    -0.305 NA
ATOM      4  C   LIG    1        4.414   3.972  -9.277  0.00  0.00    +0.105 C 
BRANCH   3   5
ATOM      5  C   LIG    1        5.306   2.876  -7.334  0.00  0.00    +0.092 C 
BRANCH   5  10
ATOM      6  C   LIG    1        7.263   1.772  -2.697  0.00  0.00    +0.162 A 
ATOM      7  C   LIG    1        8.137   1.575  -3.801  0.00  0.00    +0.162 A 
ATOM      8  C   LIG    1        7.632   1.623  -5.104  0.00  0.00    +0.053 A 
ATOM      9  C   LIG    1        6.277   1.784  -5.253  0.00  0.00    -0.036 A 
ATOM     10  C   LIG    1        5.180   1.768  -6.284  0.00  0.00    +0.038 C 
ATOM     11  C   LIG    1        4.195   1.971  -5.074  0.00  0.00    +0.045 C 
ATOM     12  C   LIG    1        5.416   1.907  -4.196  0.00  0.00    -0.040 A 
ATOM     13  C   LIG    1        5.878   1.909  -2.903  0.00  0.00    +0.053 A 
BRANCH   6  15
ATOM     14  C   LIG    1        8.830   2.389  -1.019  0.00  0.00    +0.277 C 
ATOM     15  O   LIG    1        7.627   1.713  -1.373  0.00  0.00    -0.491 OA
ENDBRANCH   6  15
BRANCH   7  16
ATOM     16  O   LIG    1        9.454   1.301  -3.549  0.00  0.00    -0.491 OA
ATOM     17  C   LIG    1       10.153   0.540  -4.527  0.00  0.00    +0.277 C 
ENDBRANCH   7  16
ENDBRANCH   5  10
ENDBRANCH   3   5
ENDBRANCH   2   3
ENDBRANCH   1   2
BRANCH   1  18
ATOM     18  C   LIG    1        3.176   0.005 -10.796  0.00  0.00    +0.109 C 
BRANCH  18  19
ATOM     19  N   LIG    1        2.858  -1.165  -9.959  0.00  0.00    -0.301 N 
ATOM     20  C   LIG    1        3.939  -1.982  -9.600  0.00  0.00    +0.220 C 
ATOM     21  O   LIG    1        5.092  -1.696  -9.880  0.00  0.00    -0.275 OA
ATOM     22  C   LIG    1        3.656  -3.320  -8.931  0.00  0.00    +0.131 C 
ATOM     23  C   LIG    1        3.007  -3.170  -7.589  0.00  0.00    -0.032 A 
ATOM     24  C   LIG    1        1.664  -2.797  -7.501  0.00  0.00    -0.039 A 
ATOM     25  C   LIG    1        1.097  -2.566  -6.239  0.00  0.00    +0.053 A 
ATOM     26  C   LIG    1        1.878  -2.657  -5.073  0.00  0.00    +0.162 A 
ATOM     27  C   LIG    1        3.223  -3.055  -5.170  0.00  0.00    +0.162 A 
ATOM     28  C   LIG    1        0.927  -2.506  -8.782  0.00  0.00    +0.054 C 
ATOM     29  C   LIG    1        3.769  -3.311  -6.428  0.00  0.00    +0.053 A 
ATOM     30  C   LIG    1        1.481  -1.214  -9.407  0.00  0.00    +0.112 C 
BRANCH  27  31
ATOM     31  O   LIG    1        3.941  -3.193  -4.018  0.00  0.00    -0.491 OA
ATOM     32  C   LIG    1        5.322  -3.500  -4.107  0.00  0.00    +0.277 C 
ENDBRANCH  27  31
BRANCH  26  33
ATOM     33  O   LIG    1        1.207  -2.350  -3.912  0.00  0.00    -0.491 OA
ATOM     34  C   LIG    1        1.985  -1.758  -2.871  0.00  0.00    +0.277 C 
ENDBRANCH  26  33
ENDBRANCH  18  19
ENDBRANCH   1  18
TORSDOF 10
