REMARK  Name = *****
REMARK                            x       y       z     vdW  Elec       q    Type
REMARK                         _______ _______ _______ _____ _____    ______ ____
ROOT
ATOM      1  O   LIG    1        3.867  -1.090   0.526  0.00  0.00    -0.454 OA
ENDROOT
BRANCH   1   2
ATOM      2  C   LIG    1        2.442  -0.952   0.801  0.00  0.00    +0.123 C 
ATOM      3  C   LIG    1        2.333  -0.932   2.337  0.00  0.00    +0.057 C 
BRANCH   2   5
ATOM      4  C   LIG    1        2.704   1.634   0.698  0.00  0.00    +0.008 C 
ATOM      5  C   LIG    1        1.928   0.402   0.231  0.00  0.00    +0.045 C 
ENDBRANCH   2   5
BRANCH   2   6
ATOM      6  C   LIG    1        1.566  -2.140   0.231  0.00  0.00    +0.131 C 
BRANCH   6   7
ATOM      7  N   LIG    1        1.846  -3.536   0.673  0.00  0.00    -0.305 NA
ATOM      8  C   LIG    1        3.182  -3.978   0.275  0.00  0.00    +0.104 C 
ATOM      9  C   LIG    1        0.863  -4.459   0.082  0.00  0.00    +0.104 C 
ENDBRANCH   6   7
ENDBRANCH   2   6
ENDBRANCH   1   2
BRANCH   1  10
ATOM     10  C   LIG    1        4.344  -1.159  -0.743  0.00  0.00    +0.340 C 
ATOM     11  O   LIG    1        3.708  -1.078  -1.772  0.00  0.00    -0.245 OA
BRANCH  10  12
ATOM     12  C   LIG    1        5.784  -1.535  -0.682  0.00  0.00    +0.059 A 
ATOM     13  C   LIG    1        6.302  -2.343  -1.704  0.00  0.00    +0.015 A 
ATOM     14  C   LIG    1        7.603  -2.841  -1.610  0.00  0.00    +0.001 A 
ATOM     15  C   LIG    1        8.396  -2.521  -0.508  0.00  0.00    +0.000 A 
ATOM     16  C   LIG    1        7.901  -1.679   0.488  0.00  0.00    +0.001 A 
ATOM     17  C   LIG    1        6.599  -1.180   0.401  0.00  0.00    +0.015 A 
ENDBRANCH  10  12
ENDBRANCH   1  10
TORSDOF 6
