REMARK  Name = *****
REMARK                            x       y       z     vdW  Elec       q    Type
REMARK                         _______ _______ _______ _____ _____    ______ ____
ROOT
ATOM      1  C   LIG    1      -19.580 -10.904  20.687  0.00  0.00    +0.150 C 
ATOM      2  C   LIG    1      -20.036 -11.454  19.282  0.00  0.00    +0.060 C 
ATOM      3  C   LIG    1      -19.378 -12.797  18.966  0.00  0.00    +0.014 C 
ATOM      4  C   LIG    1      -21.580 -11.362  18.939  0.00  0.00    +0.187 C 
ATOM      5  C   LIG    1      -22.397 -12.549  18.271  0.00  0.00    +0.056 C 
ATOM      6  C   LIG    1      -22.529 -13.809  19.118  0.00  0.00    +0.014 C 
ATOM      7  C   LIG    1      -22.243 -12.665  16.726  0.00  0.00    +0.126 C 
ATOM      8  C   LIG    1      -21.791 -13.937  15.930  0.00  0.00    +0.044 C 
ATOM      9  C   LIG    1      -21.352 -15.175  16.706  0.00  0.00    +0.013 C 
ATOM     10  C   LIG    1      -20.716 -13.483  14.902  0.00  0.00    +0.126 C 
ATOM     11  C   LIG    1      -20.209 -14.533  13.874  0.00  0.00    +0.037 C 
ATOM     12  C   LIG    1      -21.349 -15.208  13.110  0.00  0.00    +0.014 C 
ATOM     13  C   LIG    1      -19.273 -13.846  12.889  0.00  0.00    -0.021 C 
ATOM     14  C   LIG    1      -17.955 -13.695  13.101  0.00  0.00    -0.003 C 
ATOM     15  C   LIG    1      -17.125 -12.871  12.250  0.00  0.00    +0.008 C 
ATOM     16  C   LIG    1      -16.004 -12.215  12.609  0.00  0.00    +0.011 C 
ATOM     17  C   LIG    1      -15.180 -11.431  11.634  0.00  0.00    +0.049 C 
ATOM     18  C   LIG    1      -15.452 -12.212  13.989  0.00  0.00    +0.244 C 
ATOM     19  O   LIG    1      -14.285 -12.508  14.231  0.00  0.00    -0.270 OA
ATOM     20  N   LIG    1      -16.317 -11.833  14.993  0.00  0.00    -0.277 N 
ATOM     21  H   LIG    1      -16.064 -12.485  15.737  0.00  0.00    +0.155 HD
ATOM     22  C   LIG    1      -16.101 -10.556  15.616  0.00  0.00    +0.103 A 
ATOM     23  C   LIG    1      -15.005 -10.360  16.497  0.00  0.00    +0.151 A 
ATOM     24  C   LIG    1      -14.943  -9.310  17.449  0.00  0.00    +0.070 A 
ATOM     25  C   LIG    1      -16.025  -8.399  17.476  0.00  0.00    +0.031 A 
ATOM     26  C   LIG    1      -17.027  -8.465  16.476  0.00  0.00    +0.101 A 
ATOM     27  N   LIG    1      -18.048  -7.590  16.247  0.00  0.00    -0.227 NA
ATOM     28  C   LIG    1      -18.790  -8.133  15.321  0.00  0.00    +0.139 A 
ATOM     29  N   LIG    1      -18.290  -9.368  14.928  0.00  0.00    -0.297 N 
ATOM     30  C   LIG    1      -18.977 -10.177  14.029  0.00  0.00    +0.093 A 
ATOM     31  C   LIG    1      -20.142  -9.766  13.501  0.00  0.00    +0.021 A 
ATOM     32  C   LIG    1      -20.671  -8.455  13.864  0.00  0.00    -0.046 A 
ATOM     33  C   LIG    1      -21.967  -8.034  13.242  0.00  0.00    +0.044 C 
ATOM     34  C   LIG    1      -20.003  -7.676  14.739  0.00  0.00    +0.050 A 
ATOM     35  C   LIG    1      -16.150  -7.558  18.587  0.00  0.00    +0.077 A 
ATOM     36  C   LIG    1      -17.303  -6.849  19.135  0.00  0.00    +0.250 C 
ATOM     37  O   LIG    1      -18.136  -6.211  18.542  0.00  0.00    -0.284 OA
ATOM     38  C   LIG    1      -17.180  -7.013  20.645  0.00  0.00    +0.314 C 
ATOM     39  C   LIG    1      -17.651  -5.762  21.373  0.00  0.00    +0.114 C 
ATOM     40  O   LIG    1      -15.731  -7.116  20.836  0.00  0.00    -0.444 OA
ATOM     41  O   LIG    1      -17.984  -8.137  21.108  0.00  0.00    -0.453 OA
ATOM     42  C   LIG    1      -17.457  -9.382  20.925  0.00  0.00    +0.190 C 
ATOM     43  C   LIG    1      -15.245  -7.601  19.634  0.00  0.00    +0.143 A 
ATOM     44  C   LIG    1      -14.050  -8.293  19.544  0.00  0.00    +0.034 A 
ATOM     45  C   LIG    1      -13.042  -8.256  20.653  0.00  0.00    +0.051 C 
ATOM     46  C   LIG    1      -13.928  -9.169  18.454  0.00  0.00    +0.135 A 
ATOM     47  C   LIG    1      -17.086  -9.554  15.599  0.00  0.00    +0.099 A 
ATOM     48  C   LIG    1      -18.108 -10.533  20.699  0.00  0.00    +0.042 C 
ENDROOT
BRANCH   1  50
ATOM     49  C   LIG    1      -20.810 -12.487  22.075  0.00  0.00    +0.194 C 
ATOM     50  O   LIG    1      -19.577 -11.908  21.720  0.00  0.00    -0.375 OA
ENDBRANCH   1  50
BRANCH   7  51
ATOM     51  O   LIG    1      -23.565 -12.390  16.172  0.00  0.00    -0.391 OA
ATOM     52  H   LIG    1      -23.796 -11.468  16.386  0.00  0.00    +0.210 HD
ENDBRANCH   7  51
BRANCH  10  53
ATOM     53  O   LIG    1      -19.595 -12.970  15.640  0.00  0.00    -0.391 OA
ATOM     54  H   LIG    1      -19.058 -13.729  15.922  0.00  0.00    +0.210 HD
ENDBRANCH  10  53
BRANCH  23  55
ATOM     55  O   LIG    1      -13.985 -11.296  16.539  0.00  0.00    -0.504 OA
ATOM     56  H   LIG    1      -13.921 -11.743  15.664  0.00  0.00    +0.292 HD
ENDBRANCH  23  55
BRANCH  46  57
ATOM     57  O   LIG    1      -12.818  -9.980  18.447  0.00  0.00    -0.506 OA
ATOM     58  H   LIG    1      -12.938 -10.627  17.722  0.00  0.00    +0.292 HD
ENDBRANCH  46  57
BRANCH   4  59
ATOM     59  O   LIG    1      -22.362 -10.977  20.099  0.00  0.00    -0.461 OA
BRANCH  59  60
ATOM     60  C   LIG    1      -23.388 -10.120  19.817  0.00  0.00    +0.304 C 
ATOM     61  O   LIG    1      -23.260  -9.054  19.233  0.00  0.00    -0.251 OA
ATOM     62  C   LIG    1      -24.717 -10.748  20.130  0.00  0.00    +0.136 C 
ENDBRANCH  59  60
ENDBRANCH   4  59
TORSDOF 7
