REMARK  Name = *****
REMARK                            x       y       z     vdW  Elec       q    Type
REMARK                         _______ _______ _______ _____ _____    ______ ____
ROOT
ATOM      1  C   LIG    1        4.440  -4.478   7.988  0.00  0.00    +0.101 C 
ENDROOT
BRANCH   1   2
ATOM      2  C   LIG    1        5.120  -5.689   7.277  0.00  0.00    -0.028 A 
ATOM      3  C   LIG    1        6.472  -6.042   7.481  0.00  0.00    +0.005 A 
ATOM      4  C   LIG    1        7.066  -7.100   6.778  0.00  0.00    +0.000 A 
ATOM      5  C   LIG    1        6.338  -7.809   5.831  0.00  0.00    +0.000 A 
ATOM      6  C   LIG    1        5.002  -7.489   5.617  0.00  0.00    +0.000 A 
ATOM      7  C   LIG    1        4.394  -6.465   6.353  0.00  0.00    +0.005 A 
ENDBRANCH   1   2
BRANCH   1   8
ATOM      8  C   LIG    1        3.209  -4.957   8.865  0.00  0.00    -0.028 A 
ATOM      9  C   LIG    1        1.893  -4.494   8.629  0.00  0.00    +0.005 A 
ATOM     10  C   LIG    1        0.799  -4.918   9.396  0.00  0.00    +0.000 A 
ATOM     11  C   LIG    1        0.985  -5.804  10.445  0.00  0.00    +0.000 A 
ATOM     12  C   LIG    1        2.266  -6.274  10.717  0.00  0.00    +0.000 A 
ATOM     13  C   LIG    1        3.361  -5.873   9.928  0.00  0.00    +0.005 A 
ENDBRANCH   1   8
BRANCH   1  14
ATOM     14  C   LIG    1        5.485  -3.619   8.815  0.00  0.00    +0.226 C 
ATOM     15  O   LIG    1        6.458  -3.102   8.322  0.00  0.00    -0.275 OA
ATOM     16  N   LIG    1        5.285  -3.426  10.154  0.00  0.00    -0.328 N 
ATOM     17  H   LIG    1        6.009  -2.919  10.655  0.00  0.00    +0.145 HD
ATOM     18  H   LIG    1        4.618  -3.937  10.734  0.00  0.00    +0.145 HD
ENDBRANCH   1  14
BRANCH   1  19
ATOM     19  C   LIG    1        3.927  -3.464   6.848  0.00  0.00    +0.076 C 
BRANCH  19  20
ATOM     20  C   LIG    1        4.968  -2.854   5.880  0.00  0.00    +0.135 C 
BRANCH  20  21
ATOM     21  N   LIG    1        4.369  -1.768   4.821  0.00  0.00    +0.245 N 
ATOM     22  C   LIG    1        3.705  -0.655   5.656  0.00  0.00    +0.193 C 
BRANCH  21  24
ATOM     23  C   LIG    1        2.610  -1.485   2.882  0.00  0.00    +0.063 C 
ATOM     24  C   LIG    1        3.266  -2.441   3.889  0.00  0.00    +0.060 C 
ATOM     25  C   LIG    1        3.759  -3.684   3.141  0.00  0.00    +0.063 C 
ENDBRANCH  21  24
BRANCH  21  26
ATOM     26  C   LIG    1        5.631  -1.172   4.012  0.00  0.00    +0.060 C 
ATOM     27  C   LIG    1        6.726  -0.614   4.943  0.00  0.00    +0.063 C 
ATOM     28  C   LIG    1        5.294  -0.036   3.040  0.00  0.00    +0.063 C 
ENDBRANCH  21  26
ENDBRANCH  20  21
ENDBRANCH  19  20
ENDBRANCH   1  19
TORSDOF 8
