REMARK  Name = *****
REMARK                            x       y       z     vdW  Elec       q    Type
REMARK                         _______ _______ _______ _____ _____    ______ ____
ROOT
ATOM      1  C   LIG    1       -0.949  -0.512  -1.470  0.00  0.00    +0.155 C 
ATOM      2  N   LIG    1        0.143  -0.019  -0.651  0.00  0.00    -0.280 N 
ATOM      3  C   LIG    1        0.068   1.245  -0.064  0.00  0.00    +0.333 C 
ATOM      4  O   LIG    1       -0.921   1.971  -0.206  0.00  0.00    -0.246 OA
ATOM      5  N   LIG    1        1.175   1.669   0.692  0.00  0.00    -0.262 N 
ATOM      6  C   LIG    1        1.064   2.960   1.341  0.00  0.00    +0.157 C 
ATOM      7  C   LIG    1        2.402   1.007   0.767  0.00  0.00    +0.282 C 
ATOM      8  O   LIG    1        3.406   1.482   1.290  0.00  0.00    -0.265 OA
ATOM      9  C   LIG    1        2.380  -0.276   0.159  0.00  0.00    +0.151 A 
ATOM     10  N   LIG    1        3.319  -1.262   0.066  0.00  0.00    -0.321 N 
ATOM     11  C   LIG    1        2.751  -2.288  -0.651  0.00  0.00    +0.202 A 
ATOM     12  N   LIG    1        1.519  -2.000  -1.019  0.00  0.00    -0.218 NA
ATOM     13  C   LIG    1        1.295  -0.757  -0.512  0.00  0.00    +0.168 A 
ENDROOT
BRANCH  10  14
ATOM     14  C   LIG    1        4.693  -1.229   0.527  0.00  0.00    +0.164 C 
BRANCH  14  15
ATOM     15  C   LIG    1        4.859  -1.174   2.047  0.00  0.00    +0.254 C 
BRANCH  15  16
ATOM     16  O   LIG    1        4.186  -2.231   2.751  0.00  0.00    -0.459 OA
BRANCH  16  17
ATOM     17  C   LIG    1        4.698  -3.472   2.589  0.00  0.00    +0.341 C 
ATOM     18  O   LIG    1        5.583  -3.789   1.814  0.00  0.00    -0.245 OA
BRANCH  17  19
ATOM     19  C   LIG    1        4.011  -4.415   3.485  0.00  0.00    +0.077 A 
ATOM     20  C   LIG    1        4.043  -5.766   3.171  0.00  0.00    +0.125 A 
ATOM     21  N   LIG    1        3.483  -6.729   3.942  0.00  0.00    -0.262 NA
ATOM     22  C   LIG    1        2.878  -6.322   5.080  0.00  0.00    +0.111 A 
ATOM     23  C   LIG    1        2.795  -4.996   5.478  0.00  0.00    +0.020 A 
ATOM     24  C   LIG    1        3.367  -4.022   4.662  0.00  0.00    +0.018 A 
ENDBRANCH  17  19
ENDBRANCH  16  17
ENDBRANCH  15  16
ENDBRANCH  14  15
ENDBRANCH  10  14
TORSDOF 5
