REMARK  Name = *****
REMARK                            x       y       z     vdW  Elec       q    Type
REMARK                         _______ _______ _______ _____ _____    ______ ____
ROOT
ATOM      1  C   LIG    1        6.397   2.553  -1.561  0.00  0.00    -0.017 C 
ATOM      2  C   LIG    1        7.624   2.905  -2.010  0.00  0.00    -0.013 C 
ATOM      3  C   LIG    1        8.867   2.285  -1.491  0.00  0.00    -0.004 A 
ATOM      4  C   LIG    1        9.805   1.601  -2.293  0.00  0.00    +0.016 A 
ATOM      5  C   LIG    1       10.951   1.064  -1.668  0.00  0.00    +0.015 A 
ATOM      6  C   LIG    1       11.184   1.219  -0.300  0.00  0.00    +0.001 A 
ATOM      7  C   LIG    1       10.280   1.928   0.475  0.00  0.00    +0.001 A 
ATOM      8  S   LIG    1        9.786   1.335  -4.076  0.00  0.00    -0.120 S 
ATOM      9  C   LIG    1        8.150   1.893  -4.635  0.00  0.00    +0.110 C 
ATOM     10  C   LIG    1        7.915   3.366  -4.428  0.00  0.00    -0.029 A 
ATOM     11  C   LIG    1        7.957   4.267  -5.502  0.00  0.00    +0.005 A 
ATOM     12  C   LIG    1        7.721   5.626  -5.293  0.00  0.00    +0.000 A 
ATOM     13  C   LIG    1        7.449   6.104  -4.012  0.00  0.00    +0.001 A 
ATOM     14  C   LIG    1        7.415   5.220  -2.934  0.00  0.00    +0.009 A 
ATOM     15  C   LIG    1        9.139   2.462  -0.117  0.00  0.00    +0.009 A 
ATOM     16  C   LIG    1        7.646   3.854  -3.138  0.00  0.00    -0.014 A 
ENDROOT
BRANCH   1  17
ATOM     17  C   LIG    1        6.043   1.495  -0.546  0.00  0.00    +0.043 C 
BRANCH  17  18
ATOM     18  C   LIG    1        5.302   2.089   0.666  0.00  0.00    +0.088 C 
BRANCH  18  20
ATOM     19  C   LIG    1        4.392   1.765   2.871  0.00  0.00    +0.104 C 
ATOM     20  N   LIG    1        4.950   1.090   1.695  0.00  0.00    -0.308 NA
ATOM     21  C   LIG    1        3.994   0.097   1.200  0.00  0.00    +0.104 C 
ENDBRANCH  18  20
ENDBRANCH  17  18
ENDBRANCH   1  17
TORSDOF 3
