REMARK  Name = *****
REMARK                            x       y       z     vdW  Elec       q    Type
REMARK                         _______ _______ _______ _____ _____    ______ ____
ROOT
ATOM      1  C   LIG    1        0.777  -0.393   0.067  0.00  0.00    +0.150 C 
ATOM      2  N   LIG    1        2.205  -0.178   0.071  0.00  0.00    -0.331 N 
ATOM      3  C   LIG    1        3.135  -1.198   0.060  0.00  0.00    +0.069 A 
ATOM      4  C   LIG    1        4.360  -0.552   0.030  0.00  0.00    +0.091 A 
ATOM      5  C   LIG    1        5.545  -1.315  -0.008  0.00  0.00    +0.053 A 
ATOM      6  C   LIG    1        5.514  -2.724  -0.012  0.00  0.00    +0.032 A 
ATOM      7  C   LIG    1        4.237  -3.320   0.025  0.00  0.00    +0.025 A 
ATOM      8  N   LIG    1        4.191   0.811   0.021  0.00  0.00    -0.232 NA
ATOM      9  C   LIG    1        3.032  -2.589   0.060  0.00  0.00    +0.030 A 
ATOM     10  C   LIG    1        2.887   1.021   0.035  0.00  0.00    +0.111 A 
ENDROOT
BRANCH   6  11
ATOM     11  N   LIG    1        6.681  -3.488  -0.051  0.00  0.00    -0.328 N 
BRANCH  11  12
ATOM     12  C   LIG    1        6.714  -4.802  -0.730  0.00  0.00    +0.121 C 
BRANCH  12  13
ATOM     13  C   LIG    1        7.743  -4.831  -1.865  0.00  0.00    +0.127 C 
ATOM     14 CL   LIG    1        7.770  -6.424  -2.660  0.00  0.00    -0.124 Cl
ENDBRANCH  12  13
ENDBRANCH  11  12
BRANCH  11  15
ATOM     15  C   LIG    1        7.944  -2.990   0.541  0.00  0.00    +0.121 C 
BRANCH  15  16
ATOM     16  C   LIG    1        8.453  -3.918   1.649  0.00  0.00    +0.127 C 
ATOM     17 CL   LIG    1        9.998  -3.328   2.311  0.00  0.00    -0.124 Cl
ENDBRANCH  15  16
ENDBRANCH  11  15
ENDBRANCH   6  11
BRANCH  10  18
ATOM     18  C   LIG    1        2.251   2.373  -0.011  0.00  0.00    +0.075 C 
BRANCH  18  19
ATOM     19  C   LIG    1        2.664   3.185  -1.246  0.00  0.00    +0.019 C 
BRANCH  19  20
ATOM     20  C   LIG    1        2.372   2.532  -2.602  0.00  0.00    +0.121 C 
BRANCH  20  21
ATOM     21  C   LIG    1        0.902   2.253  -2.845  0.00  0.00    +0.305 C 
ATOM     22  O   LIG    1        0.083   1.967  -1.996  0.00  0.00    -0.251 OA
BRANCH  21  23
ATOM     23  O   LIG    1        0.570   2.300  -4.157  0.00  0.00    -0.481 OA
ATOM     24  H   LIG    1        1.310   2.520  -4.751  0.00  0.00    +0.295 HD
ENDBRANCH  21  23
ENDBRANCH  20  21
ENDBRANCH  19  20
ENDBRANCH  18  19
ENDBRANCH  10  18
TORSDOF 10
