REMARK  Name = *****
REMARK                            x       y       z     vdW  Elec       q    Type
REMARK                         _______ _______ _______ _____ _____    ______ ____
ROOT
ATOM      1  C   LIG    1        8.729  -7.824  -2.584  0.00  0.00    +0.000 C 
ATOM      2  C   LIG    1        8.267  -6.396  -2.610  0.00  0.00    +0.000 A 
ATOM      3  C   LIG    1        9.168  -5.383  -2.937  0.00  0.00    +0.000 A 
ATOM      4  C   LIG    1        8.752  -4.041  -2.987  0.00  0.00    +0.000 A 
ATOM      5  C   LIG    1        7.403  -3.727  -2.747  0.00  0.00    +0.000 A 
ATOM      6  C   LIG    1        6.469  -4.740  -2.459  0.00  0.00    +0.000 A 
ATOM      7  C   LIG    1        6.924  -6.068  -2.374  0.00  0.00    +0.000 A 
ENDROOT
BRANCH   4   8
ATOM      8  N   LIG    1        9.714  -3.041  -3.286  0.00  0.00    +0.000 N 
ATOM      9  N   LIG    1        9.384  -1.725  -3.294  0.00  0.00    +0.000 NA
ATOM     10  C   LIG    1       10.550  -1.122  -3.609  0.00  0.00    +0.000 A 
ATOM     11  C   LIG    1       11.563  -2.161  -3.777  0.00  0.00    +0.000 A 
ATOM     12  C   LIG    1       12.897  -1.849  -4.114  0.00  0.00    +0.000 A 
ATOM     13  C   LIG    1       13.154  -0.478  -4.268  0.00  0.00    +0.000 A 
ATOM     14  C   LIG    1       12.162   0.526  -4.100  0.00  0.00    +0.000 A 
ATOM     15  C   LIG    1       10.824   0.239  -3.766  0.00  0.00    +0.000 A 
ATOM     16  N   LIG    1       11.009  -3.348  -3.561  0.00  0.00    +0.000 NA
ENDBRANCH   4   8
BRANCH   5  17
ATOM     17  O   LIG    1        6.929  -2.441  -2.795  0.00  0.00    +0.000 OA
ATOM     18  H   LIG    1        7.689  -1.827  -2.886  0.00  0.00    +0.000 HD
ENDBRANCH   5  17
BRANCH   6  19
ATOM     19  C   LIG    1        4.986  -4.450  -2.289  0.00  0.00    +0.000 C 
BRANCH  19  20
ATOM     20  C   LIG    1        4.478  -4.094  -0.864  0.00  0.00    +0.000 C 
ATOM     21  C   LIG    1        5.092  -2.774  -0.396  0.00  0.00    +0.000 C 
BRANCH  20  22
ATOM     22  C   LIG    1        4.701  -5.241   0.146  0.00  0.00    +0.000 C 
BRANCH  22  23
ATOM     23 SI   LIG    1        3.989  -5.040   1.954  0.00  0.00    +0.000 Si
ATOM     24  C   LIG    1        4.492  -6.617   2.861  0.00  0.00    +0.000 C 
BRANCH  23  25
ATOM     25  O   LIG    1        2.336  -4.804   1.954  0.00  0.00    +0.000 OA
BRANCH  25  26
ATOM     26 SI   LIG    1        0.860  -5.472   1.547  0.00  0.00    +0.000 Si
ATOM     27  C   LIG    1        0.484  -7.078   2.466  0.00  0.00    +0.000 C 
ATOM     28  C   LIG    1        0.710  -5.872  -0.287  0.00  0.00    +0.000 C 
ATOM     29  C   LIG    1       -0.572  -4.314   2.000  0.00  0.00    +0.000 C 
ENDBRANCH  25  26
ENDBRANCH  23  25
BRANCH  23  30
ATOM     30  O   LIG    1        4.730  -3.736   2.700  0.00  0.00    +0.000 OA
BRANCH  30  31
ATOM     31 SI   LIG    1        4.805  -2.864   4.124  0.00  0.00    +0.000 Si
ATOM     32  C   LIG    1        5.370  -3.897   5.598  0.00  0.00    +0.000 C 
ATOM     33  C   LIG    1        3.138  -2.127   4.581  0.00  0.00    +0.000 C 
ATOM     34  C   LIG    1        6.049  -1.444   3.982  0.00  0.00    +0.000 C 
ENDBRANCH  30  31
ENDBRANCH  23  30
ENDBRANCH  22  23
ENDBRANCH  20  22
ENDBRANCH  19  20
ENDBRANCH   6  19
TORSDOF 10
