REMARK  Name = *****
REMARK                            x       y       z     vdW  Elec       q    Type
REMARK                         _______ _______ _______ _____ _____    ______ ____
ROOT
ATOM      1  C   LIG    1        4.474  -0.621  -0.720  0.00  0.00    +0.036 C 
ATOM      2  C   LIG    1        2.927  -0.647  -0.749  0.00  0.00    +0.018 C 
ENDROOT
BRANCH   1   3
ATOM      3  C   LIG    1        4.975   0.795  -1.169  0.00  0.00    +0.013 C 
BRANCH   3   5
ATOM      4  C   LIG    1        6.933   2.389  -1.593  0.00  0.00    +0.004 C 
ATOM      5  C   LIG    1        6.503   0.998  -1.137  0.00  0.00    -0.003 C 
ENDBRANCH   3   5
ENDBRANCH   1   3
BRANCH   1   6
ATOM      6  C   LIG    1        5.048  -1.735  -1.643  0.00  0.00    +0.243 C 
BRANCH   6   7
ATOM      7  O   LIG    1        4.735  -1.492  -3.029  0.00  0.00    -0.450 OA
BRANCH   7   8
ATOM      8  C   LIG    1        5.802  -1.510  -3.870  0.00  0.00    +0.401 C 
ATOM      9  N   LIG    1        5.449  -1.063  -5.108  0.00  0.00    -0.279 N 
ATOM     10  H   LIG    1        4.485  -0.789  -5.244  0.00  0.00    +0.152 HD
ATOM     11  O   LIG    1        6.942  -1.835  -3.561  0.00  0.00    -0.227 OA
BRANCH   9  12
ATOM     12  C   LIG    1        6.455  -0.829  -6.130  0.00  0.00    +0.070 C 
ATOM     13  C   LIG    1        7.183   0.500  -5.917  0.00  0.00    +0.027 C 
ATOM     14  C   LIG    1        5.827  -0.914  -7.512  0.00  0.00    +0.027 C 
ENDBRANCH   9  12
ENDBRANCH   7   8
ENDBRANCH   6   7
ENDBRANCH   1   6
BRANCH   1  15
ATOM     15  C   LIG    1        4.911  -0.940   0.732  0.00  0.00    +0.243 C 
BRANCH  15  16
ATOM     16  O   LIG    1        4.485   0.057   1.677  0.00  0.00    -0.450 OA
BRANCH  16  17
ATOM     17  C   LIG    1        3.571  -0.324   2.599  0.00  0.00    +0.398 C 
ATOM     18  O   LIG    1        2.863  -1.300   2.588  0.00  0.00    -0.227 OA
ATOM     19  N   LIG    1        3.604   0.585   3.616  0.00  0.00    -0.295 N 
ATOM     20  H   LIG    1        3.034   0.438   4.436  0.00  0.00    +0.148 HD
ATOM     21  H   LIG    1        4.290   1.327   3.595  0.00  0.00    +0.148 HD
ENDBRANCH  16  17
ENDBRANCH  15  16
ENDBRANCH   1  15
TORSDOF 9
