REMARK  Name = *****
REMARK                            x       y       z     vdW  Elec       q    Type
REMARK                         _______ _______ _______ _____ _____    ______ ____
ROOT
ATOM      1  O   LIG    1        1.026   0.064   0.099  0.00  0.00    +0.000 OA
ATOM      2  B   LIG    1        2.327   0.065   0.103  0.00  0.00    +0.000 B 
ATOM      3  H   LIG    1        2.908  -0.213  -0.892  0.00  0.00    +0.000 HD
ENDROOT
BRANCH   2   4
ATOM      4  O   LIG    1        3.058   0.403   1.322  0.00  0.00    +0.000 OA
BRANCH   4   5
ATOM      5  O   LIG    1        3.228  -0.775   1.950  0.00  0.00    +0.000 OA
ATOM      6  H   LIG    1        3.721  -0.546   2.778  0.00  0.00    +0.000 HD
ENDBRANCH   4   5
ENDBRANCH   2   4
TORSDOF 2
