REMARK  Name = *****
REMARK                            x       y       z     vdW  Elec       q    Type
REMARK                         _______ _______ _______ _____ _____    ______ ____
ROOT
ATOM      1  C   LIG    1        5.138   1.898   0.061  0.00  0.00    -0.014 A 
ATOM      2  C   LIG    1        4.973   1.863  -1.329  0.00  0.00    +0.056 A 
ATOM      3  C   LIG    1        4.687   2.997  -2.098  0.00  0.00    +0.174 A 
ATOM      4  C   LIG    1        4.663   4.250  -1.460  0.00  0.00    +0.174 A 
ATOM      5  C   LIG    1        4.923   4.300  -0.085  0.00  0.00    +0.050 A 
ATOM      6  C   LIG    1        5.121   3.149   0.672  0.00  0.00    +0.010 A 
ENDROOT
BRANCH   1   7
ATOM      7  C   LIG    1        5.394   0.605   0.822  0.00  0.00    +0.158 C 
BRANCH   7   8
ATOM      8  O   LIG    1        4.861   0.624   2.153  0.00  0.00    -0.386 OA
ATOM      9  H   LIG    1        4.731   1.544   2.422  0.00  0.00    +0.210 HD
ENDBRANCH   7   8
BRANCH   7  10
ATOM     10  C   LIG    1        4.897  -0.709   0.135  0.00  0.00    +0.116 C 
BRANCH  10  12
ATOM     11  C   LIG    1        3.052  -1.997  -0.747  0.00  0.00    +0.101 C 
ATOM     12  N   LIG    1        3.436  -0.758  -0.083  0.00  0.00    -0.316 NA
ATOM     13  H   LIG    1        2.981  -0.690   0.828  0.00  0.00    +0.122 HD
ENDBRANCH  10  12
ENDBRANCH   7  10
ENDBRANCH   1   7
BRANCH   3  14
ATOM     14  O   LIG    1        4.333   2.842  -3.462  0.00  0.00    -0.422 OA
BRANCH  14  15
ATOM     15  C   LIG    1        3.872   1.597  -3.941  0.00  0.00    +0.318 C 
ATOM     16  O   LIG    1        4.442   0.511  -3.808  0.00  0.00    -0.250 OA
BRANCH  15  17
ATOM     17  C   LIG    1        2.519   1.718  -4.638  0.00  0.00    +0.060 C 
ATOM     18  C   LIG    1        1.517   0.891  -3.814  0.00  0.00    +0.022 C 
ATOM     19  C   LIG    1        2.614   1.145  -6.058  0.00  0.00    +0.022 C 
ATOM     20  C   LIG    1        2.036   3.167  -4.731  0.00  0.00    +0.022 C 
ENDBRANCH  15  17
ENDBRANCH  14  15
ENDBRANCH   3  14
BRANCH   4  21
ATOM     21  O   LIG    1        4.467   5.479  -2.151  0.00  0.00    -0.422 OA
BRANCH  21  22
ATOM     22  C   LIG    1        3.831   6.503  -1.410  0.00  0.00    +0.318 C 
ATOM     23  O   LIG    1        3.145   6.322  -0.431  0.00  0.00    -0.250 OA
BRANCH  22  24
ATOM     24  C   LIG    1        4.109   7.922  -1.941  0.00  0.00    +0.060 C 
ATOM     25  C   LIG    1        3.447   8.079  -3.307  0.00  0.00    +0.022 C 
ATOM     26  C   LIG    1        5.610   8.212  -2.034  0.00  0.00    +0.022 C 
ATOM     27  C   LIG    1        3.475   8.930  -0.950  0.00  0.00    +0.022 C 
ENDBRANCH  22  24
ENDBRANCH  21  22
ENDBRANCH   4  21
TORSDOF 10
