REMARK  Name = *****
REMARK                            x       y       z     vdW  Elec       q    Type
REMARK                         _______ _______ _______ _____ _____    ______ ____
ROOT
ATOM      1  O   LIG    1        3.997   3.327   0.785  0.00  0.00    -0.474 OA
ENDROOT
BRANCH   1   2
ATOM      2  C   LIG    1        3.553   4.625   0.847  0.00  0.00    +0.158 A 
ATOM      3  C   LIG    1        2.222   4.993   0.601  0.00  0.00    +0.084 A 
ATOM      4 CL   LIG    1        1.040   3.880   0.010  0.00  0.00    -0.080 Cl
ATOM      5  C   LIG    1        1.808   6.319   0.780  0.00  0.00    +0.024 A 
ATOM      6  C   LIG    1        2.729   7.303   1.132  0.00  0.00    +0.003 A 
ATOM      7  C   LIG    1        4.074   6.968   1.273  0.00  0.00    +0.024 A 
ATOM      8  C   LIG    1        4.485   5.638   1.125  0.00  0.00    +0.084 A 
ATOM      9 CL   LIG    1        6.169   5.291   1.301  0.00  0.00    -0.080 Cl
ENDBRANCH   1   2
BRANCH   1  11
ATOM     10  C   LIG    1        4.026   1.058   1.524  0.00  0.00    +0.065 C 
ATOM     11  C   LIG    1        3.472   2.458   1.798  0.00  0.00    +0.284 C 
BRANCH  11  12
ATOM     12  C   LIG    1        3.721   2.859   3.269  0.00  0.00    +0.322 C 
ATOM     13  N   LIG    1        3.192   4.005   3.812  0.00  0.00    -0.231 N 
ATOM     14  H   LIG    1        2.338   4.378   3.412  0.00  0.00    +0.291 HD
ATOM     15  C   LIG    1        3.283   3.913   5.247  0.00  0.00    +0.273 C 
ATOM     16  C   LIG    1        4.317   2.798   5.409  0.00  0.00    +0.333 C 
ATOM     17  N   LIG    1        4.380   2.086   4.106  0.00  0.00    -0.080 NA
ENDBRANCH  11  12
ENDBRANCH   1  11
TORSDOF 3
