REMARK  Name = *****
REMARK                            x       y       z     vdW  Elec       q    Type
REMARK                         _______ _______ _______ _____ _____    ______ ____
ROOT
ATOM      1  C   LIG    1        8.276  -1.788   6.541  0.00  0.00    +0.318 C 
ATOM      2  O   LIG    1        8.016  -2.799   5.878  0.00  0.00    -0.250 OA
ENDROOT
BRANCH   1   3
ATOM      3  C   LIG    1        8.687  -1.824   8.008  0.00  0.00    +0.093 C 
ATOM      4  C   LIG    1        9.469  -3.137   8.307  0.00  0.00    +0.023 C 
ATOM      5  C   LIG    1       10.378  -2.833   9.492  0.00  0.00    +0.001 C 
ATOM      6  C   LIG    1       10.627  -1.333   9.458  0.00  0.00    +0.001 C 
ATOM      7  C   LIG    1        9.837  -0.807   8.266  0.00  0.00    +0.023 C 
BRANCH   3   8
ATOM      8  C   LIG    1        7.432  -1.631   8.877  0.00  0.00    -0.031 A 
ATOM      9  C   LIG    1        6.580  -2.710   9.184  0.00  0.00    +0.005 A 
ATOM     10  C   LIG    1        5.397  -2.521   9.909  0.00  0.00    +0.000 A 
ATOM     11  C   LIG    1        5.029  -1.247  10.327  0.00  0.00    +0.000 A 
ATOM     12  C   LIG    1        5.842  -0.164  10.019  0.00  0.00    +0.000 A 
ATOM     13  C   LIG    1        7.023  -0.354   9.296  0.00  0.00    +0.005 A 
ENDBRANCH   3   8
ENDBRANCH   1   3
BRANCH   1  14
ATOM     14  O   LIG    1        8.239  -0.520   6.064  0.00  0.00    -0.462 OA
BRANCH  14  15
ATOM     15  C   LIG    1        8.054  -0.326   4.649  0.00  0.00    +0.260 C 
BRANCH  15  16
ATOM     16  C   LIG    1        6.870   0.603   4.395  0.00  0.00    +0.201 C 
BRANCH  16  17
ATOM     17  O   LIG    1        6.593   0.781   2.998  0.00  0.00    -0.375 OA
BRANCH  17  18
ATOM     18  C   LIG    1        7.618   1.523   2.326  0.00  0.00    +0.175 C 
BRANCH  18  19
ATOM     19  C   LIG    1        7.244   1.779   0.852  0.00  0.00    +0.112 C 
BRANCH  19  20
ATOM     20  N   LIG    1        8.289   2.496   0.093  0.00  0.00    -0.301 NA
BRANCH  20  22
ATOM     21  C   LIG    1        7.629   1.404  -2.102  0.00  0.00    +0.020 C 
ATOM     22  C   LIG    1        7.967   2.675  -1.334  0.00  0.00    +0.081 C 
ENDBRANCH  20  22
BRANCH  20  23
ATOM     23  C   LIG    1        8.692   3.784   0.690  0.00  0.00    +0.081 C 
ATOM     24  C   LIG    1        7.594   4.843   0.800  0.00  0.00    +0.020 C 
ENDBRANCH  20  23
ENDBRANCH  19  20
ENDBRANCH  18  19
ENDBRANCH  17  18
ENDBRANCH  16  17
ENDBRANCH  15  16
ENDBRANCH  14  15
ENDBRANCH   1  14
TORSDOF 11
