REMARK  Name = *****
REMARK                            x       y       z     vdW  Elec       q    Type
REMARK                         _______ _______ _______ _____ _____    ______ ____
ROOT
ATOM      1  C   LIG    1       -3.940  -2.061   1.710  0.00  0.00    +0.179 C 
ATOM      2  C   LIG    1       -3.345  -2.616   0.360  0.00  0.00    +0.025 C 
ATOM      3  C   LIG    1       -4.300  -2.003  -0.719  0.00  0.00    +0.003 C 
ATOM      4  C   LIG    1       -5.455  -2.905  -1.223  0.00  0.00    -0.003 C 
ATOM      5  C   LIG    1       -5.017  -4.354  -1.487  0.00  0.00    -0.000 C 
ATOM      6  C   LIG    1       -4.442  -4.928  -0.185  0.00  0.00    +0.005 C 
ATOM      7  C   LIG    1       -4.057  -4.489  -2.702  0.00  0.00    +0.019 C 
ATOM      8  C   LIG    1       -4.471  -3.677  -3.919  0.00  0.00    -0.064 C 
ATOM      9  C   LIG    1       -4.103  -4.032  -5.165  0.00  0.00    +0.026 C 
ATOM     10  C   LIG    1       -3.226  -5.215  -5.413  0.00  0.00    +0.080 C 
ATOM     11  N   LIG    1       -2.622  -5.491  -6.530  0.00  0.00    -0.092 NA
ATOM     12  C   LIG    1       -2.952  -6.153  -4.255  0.00  0.00    +0.059 C 
ATOM     13  C   LIG    1       -5.214  -2.379  -3.715  0.00  0.00    +0.031 C 
ATOM     14  C   LIG    1       -3.925  -5.971  -3.105  0.00  0.00    +0.014 C 
ATOM     15  C   LIG    1       -6.130  -2.361  -2.494  0.00  0.00    +0.008 C 
ATOM     16  C   LIG    1       -4.839  -0.695  -0.083  0.00  0.00    +0.009 C 
ATOM     17  C   LIG    1       -3.221  -4.164   0.321  0.00  0.00    +0.012 C 
ATOM     18  C   LIG    1       -4.284  -0.616   1.346  0.00  0.00    +0.062 C 
ENDROOT
BRANCH   1  20
ATOM     19  C   LIG    1       -6.114  -3.336   2.620  0.00  0.00    +0.008 C 
ATOM     20  C   LIG    1       -5.155  -2.786   2.161  0.00  0.00    -0.058 C 
ENDBRANCH   1  20
BRANCH   2  21
ATOM     21  C   LIG    1       -1.900  -2.029   0.046  0.00  0.00    +0.009 C 
ATOM     22  C   LIG    1       -0.734  -2.413   0.954  0.00  0.00    +0.004 C 
ENDBRANCH   2  21
BRANCH  11  23
ATOM     23  O   LIG    1       -2.870  -4.535  -7.520  0.00  0.00    -0.409 OA
ATOM     24  H   LIG    1       -2.289  -4.835  -8.244  0.00  0.00    +0.328 HD
ENDBRANCH  11  23
BRANCH   1  25
ATOM     25  O   LIG    1       -2.926  -2.187   2.715  0.00  0.00    -0.445 OA
BRANCH  25  26
ATOM     26  C   LIG    1       -3.188  -1.941   4.021  0.00  0.00    +0.305 C 
ATOM     27  O   LIG    1       -4.116  -1.292   4.476  0.00  0.00    -0.251 OA
ATOM     28  C   LIG    1       -2.148  -2.647   4.839  0.00  0.00    +0.136 C 
ENDBRANCH  25  26
ENDBRANCH   1  25
TORSDOF 5
