REMARK  Name = *****
REMARK                            x       y       z     vdW  Elec       q    Type
REMARK                         _______ _______ _______ _____ _____    ______ ____
ROOT
ATOM      1  C   LIG    1        2.485  -0.086  -0.090  0.00  0.00    +0.181 C 
ATOM      2  C   LIG    1        3.048   0.931   0.829  0.00  0.00    +0.245 C 
ATOM      3  N   LIG    1        3.559   0.540   1.941  0.00  0.00    -0.049 NA
ATOM      4  O   LIG    1        3.406  -0.871   1.954  0.00  0.00    -0.389 OA
ATOM      5  C   LIG    1        3.086  -1.292   0.616  0.00  0.00    +0.290 C 
ENDROOT
BRANCH   1   6
ATOM      6  N   LIG    1        1.014  -0.036  -0.086  0.00  0.00    -0.317 NA
ATOM      7  H   LIG    1        0.718   0.879  -0.428  0.00  0.00    +0.119 HD
ATOM      8  H   LIG    1        0.644  -0.727  -0.735  0.00  0.00    +0.119 HD
ENDBRANCH   1   6
BRANCH   2   9
ATOM      9  O   LIG    1        3.001   2.218   0.494  0.00  0.00    -0.492 OA
ATOM     10  H   LIG    1        3.381   2.723   1.234  0.00  0.00    +0.293 HD
ENDBRANCH   2   9
TORSDOF 2
