REMARK  Name = *****
REMARK                            x       y       z     vdW  Elec       q    Type
REMARK                         _______ _______ _______ _____ _____    ______ ____
ROOT
ATOM      1  C   LIG    1        1.052  -0.247  -0.137  0.00  0.00    +0.068 C 
ATOM      2  C   LIG    1        2.373   0.286   0.406  0.00  0.00    +0.264 C 
ENDROOT
BRANCH   2   3
ATOM      3  P   LIG    1        3.176  -0.923   1.504  0.00  0.00    +0.371 P 
ATOM      4  O   LIG    1        2.750  -1.031   2.931  0.00  0.00    -0.255 OA
BRANCH   3   5
ATOM      5  O   LIG    1        4.754  -0.637   1.368  0.00  0.00    -0.322 OA
ATOM      6  H   LIG    1        5.284  -1.117   2.033  0.00  0.00    +0.220 HD
ENDBRANCH   3   5
BRANCH   3   7
ATOM      7  O   LIG    1        3.103  -2.351   0.772  0.00  0.00    -0.322 OA
ATOM      8  H   LIG    1        3.345  -3.095   1.353  0.00  0.00    +0.220 HD
ENDBRANCH   3   7
ENDBRANCH   2   3
BRANCH   2   9
ATOM      9  P   LIG    1        2.170   1.932   1.156  0.00  0.00    +0.371 P 
ATOM     10  O   LIG    1        3.374   2.586   1.748  0.00  0.00    -0.255 OA
BRANCH   9  11
ATOM     11  O   LIG    1        0.953   1.855   2.196  0.00  0.00    -0.322 OA
ATOM     12  H   LIG    1        0.891   2.634   2.779  0.00  0.00    +0.220 HD
ENDBRANCH   9  11
BRANCH   9  13
ATOM     13  O   LIG    1        1.512   2.875   0.032  0.00  0.00    -0.322 OA
ATOM     14  H   LIG    1        1.576   3.824   0.242  0.00  0.00    +0.220 HD
ENDBRANCH   9  13
ENDBRANCH   2   9
BRANCH   2  15
ATOM     15  O   LIG    1        3.265   0.461  -0.736  0.00  0.00    -0.367 OA
ATOM     16  H   LIG    1        4.156   0.609  -0.354  0.00  0.00    +0.212 HD
ENDBRANCH   2  15
TORSDOF 7
