REMARK  Name = *****
REMARK                            x       y       z     vdW  Elec       q    Type
REMARK                         _______ _______ _______ _____ _____    ______ ____
ROOT
ATOM      1  N   LIG    1        8.757   0.139   0.917  0.00  0.00    -0.267 N 
ATOM      2  C   LIG    1        9.482   1.282   0.260  0.00  0.00    +0.118 C 
ATOM      3  C   LIG    1        8.675   2.184  -0.699  0.00  0.00    +0.036 C 
ATOM      4  C   LIG    1        8.993   3.401   0.183  0.00  0.00    +0.005 C 
ATOM      5  C   LIG    1        9.852   2.520   1.107  0.00  0.00    +0.036 C 
ATOM      6  C   LIG    1       10.724   0.578  -0.384  0.00  0.00    +0.249 C 
ATOM      7  O   LIG    1       11.550   1.127  -1.110  0.00  0.00    -0.273 OA
ATOM      8  N   LIG    1       10.702  -0.754  -0.002  0.00  0.00    -0.218 N 
ATOM      9  C   LIG    1        9.582  -1.049   0.831  0.00  0.00    +0.152 C 
ATOM     10  S   LIG    1        9.357  -2.447   1.743  0.00  0.00    -0.017 S 
ENDROOT
BRANCH   1  15
ATOM     11  C   LIG    1        4.895   0.314   2.809  0.00  0.00    +0.072 A 
ATOM     12  C   LIG    1        5.317  -0.824   2.136  0.00  0.00    +0.137 A 
ATOM     13  F   LIG    1        4.538  -1.915   2.075  0.00  0.00    -0.205 F 
ATOM     14  C   LIG    1        6.561  -0.868   1.495  0.00  0.00    +0.062 A 
ATOM     15  C   LIG    1        7.452   0.217   1.526  0.00  0.00    +0.039 A 
ATOM     16  C   LIG    1        6.995   1.369   2.181  0.00  0.00    +0.024 A 
ATOM     17  C   LIG    1        5.748   1.417   2.830  0.00  0.00    +0.018 A 
BRANCH  11  21
ATOM     18  C   LIG    1        1.224  -0.339   3.484  0.00  0.00    +0.128 C 
ATOM     19  N   LIG    1        2.564  -0.370   2.956  0.00  0.00    -0.314 N 
ATOM     20  H   LIG    1        2.759  -0.985   2.175  0.00  0.00    +0.149 HD
ATOM     21  C   LIG    1        3.573   0.405   3.482  0.00  0.00    +0.247 C 
ATOM     22  O   LIG    1        3.418   1.176   4.422  0.00  0.00    -0.270 OA
ENDBRANCH  11  21
ENDBRANCH   1  15
BRANCH   8  23
ATOM     23  C   LIG    1       11.749  -1.653  -0.409  0.00  0.00    +0.062 A 
ATOM     24  C   LIG    1       11.558  -3.031  -0.547  0.00  0.00    +0.040 A 
ATOM     25  C   LIG    1       12.598  -3.906  -0.933  0.00  0.00    +0.092 A 
ATOM     26  C   LIG    1       13.835  -3.350  -1.198  0.00  0.00    +0.152 A 
ATOM     27  N   LIG    1       14.064  -2.018  -1.110  0.00  0.00    -0.242 NA
ATOM     28  C   LIG    1       13.034  -1.214  -0.733  0.00  0.00    +0.136 A 
BRANCH  25  29
ATOM     29  C   LIG    1       12.288  -5.367  -1.046  0.00  0.00    +0.420 C 
ATOM     30  F   LIG    1       11.249  -5.587  -1.899  0.00  0.00    -0.166 F 
ATOM     31  F   LIG    1       11.902  -5.897   0.146  0.00  0.00    -0.166 F 
ATOM     32  F   LIG    1       13.301  -6.147  -1.491  0.00  0.00    -0.166 F 
ENDBRANCH  25  29
BRANCH  26  33
ATOM     33  C   LIG    1       14.989  -4.115  -1.606  0.00  0.00    +0.120 C 
ATOM     34  N   LIG    1       15.903  -4.739  -1.933  0.00  0.00    -0.189 NA
ENDBRANCH  26  33
ENDBRANCH   8  23
TORSDOF 5
