REMARK  Name = *****
REMARK                            x       y       z     vdW  Elec       q    Type
REMARK                         _______ _______ _______ _____ _____    ______ ____
ROOT
ATOM      1  N   LIG    1        3.996   2.079  -1.574  0.00  0.00    -0.295 NA
ATOM      2  C   LIG    1        4.384   3.334  -2.248  0.00  0.00    +0.069 C 
ATOM      3  C   LIG    1        5.884   3.679  -1.952  0.00  0.00    +0.043 C 
ATOM      4  C   LIG    1        5.919   4.101  -0.478  0.00  0.00    +0.048 C 
ATOM      5  C   LIG    1        7.293   4.487   0.115  0.00  0.00    +0.217 C 
ATOM      6  O   LIG    1        7.374   5.952   0.264  0.00  0.00    -0.481 OA
ATOM      7  C   LIG    1        6.133   6.420  -0.075  0.00  0.00    +0.166 A 
ATOM      8  C   LIG    1        5.739   7.738  -0.125  0.00  0.00    +0.159 A 
ATOM      9  C   LIG    1        4.491   8.054  -0.667  0.00  0.00    +0.049 A 
ATOM     10  C   LIG    1        3.679   7.045  -1.223  0.00  0.00    +0.008 A 
ATOM     11  C   LIG    1        4.107   5.718  -1.197  0.00  0.00    -0.038 A 
ATOM     12  C   LIG    1        8.495   3.942  -0.705  0.00  0.00    +0.178 C 
ATOM     13  C   LIG    1        8.169   2.816  -1.657  0.00  0.00    +0.004 C 
ATOM     14  C   LIG    1        5.287   5.441  -0.526  0.00  0.00    +0.012 A 
ATOM     15  C   LIG    1        5.116   3.142   0.443  0.00  0.00    +0.031 C 
ATOM     16  C   LIG    1        6.960   2.664  -2.223  0.00  0.00    -0.023 C 
ATOM     17  C   LIG    1        3.443   4.585  -1.941  0.00  0.00    +0.055 C 
ATOM     18  C   LIG    1        4.607   1.875  -0.259  0.00  0.00    +0.086 C 
ENDROOT
BRANCH   8  19
ATOM     19  O   LIG    1        6.556   8.738   0.305  0.00  0.00    -0.503 OA
ATOM     20  H   LIG    1        7.380   8.301   0.593  0.00  0.00    +0.292 HD
ENDBRANCH   8  19
BRANCH  12  21
ATOM     21  O   LIG    1        9.494   3.449   0.195  0.00  0.00    -0.384 OA
ATOM     22  H   LIG    1        9.149   2.635   0.600  0.00  0.00    +0.210 HD
ENDBRANCH  12  21
BRANCH   1  23
ATOM     23  C   LIG    1        2.584   1.697  -1.607  0.00  0.00    +0.111 C 
BRANCH  23  25
ATOM     24  C   LIG    1        0.857   2.650  -3.166  0.00  0.00    +0.005 C 
ATOM     25  C   LIG    1        1.931   1.881  -2.951  0.00  0.00    -0.019 C 
ENDBRANCH  23  25
ENDBRANCH   1  23
TORSDOF 4
