REMARK  Name = *****
REMARK                            x       y       z     vdW  Elec       q    Type
REMARK                         _______ _______ _______ _____ _____    ______ ____
ROOT
ATOM      1  C   LIG    1       -4.411  -4.461  -0.089  0.00  0.00    +0.168 C 
ATOM      2  C   LIG    1       -5.575  -3.429  -0.350  0.00  0.00    +0.009 C 
ATOM      3  C   LIG    1       -6.695  -3.592   0.726  0.00  0.00    +0.014 C 
ATOM      4  C   LIG    1       -6.154  -3.843  -1.732  0.00  0.00    +0.005 C 
ATOM      5  C   LIG    1       -5.404  -3.239  -2.948  0.00  0.00    -0.000 C 
ATOM      6  C   LIG    1       -5.291  -1.694  -2.885  0.00  0.00    +0.035 C 
ATOM      7  C   LIG    1       -4.574  -1.341  -1.563  0.00  0.00    +0.120 C 
ATOM      8  C   LIG    1       -6.572  -0.860  -3.326  0.00  0.00    +0.013 C 
ATOM      9  C   LIG    1       -6.101   0.560  -3.771  0.00  0.00    +0.020 C 
ATOM     10  C   LIG    1       -7.305  -1.531  -4.524  0.00  0.00    -0.056 C 
ATOM     11  C   LIG    1       -8.432  -0.947  -4.997  0.00  0.00    +0.051 C 
ATOM     12  C   LIG    1       -9.464  -0.858  -3.894  0.00  0.00    +0.179 C 
ATOM     13  O   LIG    1      -10.661  -0.853  -4.145  0.00  0.00    -0.288 OA
ATOM     14  C   LIG    1       -8.955  -0.671  -2.507  0.00  0.00    +0.047 C 
ATOM     15  C   LIG    1       -7.326  -3.044  -4.568  0.00  0.00    +0.032 C 
ATOM     16  C   LIG    1       -7.633  -0.641  -2.253  0.00  0.00    -0.012 C 
ATOM     17  C   LIG    1       -5.962  -3.646  -4.315  0.00  0.00    +0.008 C 
ATOM     18  C   LIG    1       -6.081  -5.376  -1.666  0.00  0.00    +0.052 C 
ATOM     19  C   LIG    1       -5.192  -1.947  -0.301  0.00  0.00    +0.041 C 
ATOM     20  C   LIG    1       -4.790  -5.703  -0.910  0.00  0.00    +0.211 C 
ATOM     21  O   LIG    1       -5.024  -6.735   0.046  0.00  0.00    -0.474 OA
ATOM     22  C   LIG    1       -4.768  -6.181   1.245  0.00  0.00    +0.183 C 
ATOM     23  C   LIG    1       -4.971  -7.057   2.427  0.00  0.00    +0.109 C 
ATOM     24  N   LIG    1       -4.414  -4.940   1.317  0.00  0.00    -0.236 NA
ENDROOT
BRANCH   1  25
ATOM     25  C   LIG    1       -2.965  -3.997  -0.390  0.00  0.00    +0.202 C 
ATOM     26  O   LIG    1       -2.490  -4.043  -1.528  0.00  0.00    -0.291 OA
BRANCH  25  27
ATOM     27  C   LIG    1       -2.126  -3.492   0.792  0.00  0.00    +0.308 C 
BRANCH  27  28
ATOM     28  O   LIG    1       -1.056  -2.612   0.433  0.00  0.00    -0.457 OA
BRANCH  28  30
ATOM     29  C   LIG    1       -0.203  -0.433   0.136  0.00  0.00    +0.136 C 
ATOM     30  C   LIG    1       -1.399  -1.300   0.343  0.00  0.00    +0.304 C 
ATOM     31  O   LIG    1       -2.518  -0.837   0.483  0.00  0.00    -0.251 OA
ENDBRANCH  28  30
ENDBRANCH  27  28
ENDBRANCH  25  27
ENDBRANCH   1  25
BRANCH   7  32
ATOM     32  O   LIG    1       -4.444   0.060  -1.371  0.00  0.00    -0.391 OA
ATOM     33  H   LIG    1       -3.834   0.168  -0.611  0.00  0.00    +0.210 HD
ENDBRANCH   7  32
TORSDOF 5
