REMARK  Name = *****
REMARK                            x       y       z     vdW  Elec       q    Type
REMARK                         _______ _______ _______ _____ _____    ______ ____
ROOT
ATOM      1  C   LIG    1        3.165  -0.283   1.560  0.00  0.00    +0.162 A 
ATOM      2  C   LIG    1        3.451  -1.626   1.243  0.00  0.00    +0.162 A 
ATOM      3  C   LIG    1        4.676  -2.184   1.621  0.00  0.00    +0.049 A 
ATOM      4  C   LIG    1        5.645  -1.411   2.258  0.00  0.00    +0.004 A 
ATOM      5  C   LIG    1        5.392  -0.066   2.517  0.00  0.00    +0.004 A 
ATOM      6  C   LIG    1        4.158   0.492   2.172  0.00  0.00    +0.049 A 
ENDROOT
BRANCH   1   8
ATOM      7  C   LIG    1        1.661   1.573   1.368  0.00  0.00    +0.277 C 
ATOM      8  O   LIG    1        1.905   0.175   1.294  0.00  0.00    -0.491 OA
ENDBRANCH   1   8
BRANCH   2   9
ATOM      9  O   LIG    1        2.625  -2.502   0.583  0.00  0.00    -0.486 OA
BRANCH   9  10
ATOM     10  C   LIG    1        1.666  -1.925  -0.313  0.00  0.00    +0.262 C 
BRANCH  10  11
ATOM     11  C   LIG    1        1.374  -2.916  -1.437  0.00  0.00    +0.177 C 
BRANCH  11  12
ATOM     12  O   LIG    1        2.585  -3.207  -2.162  0.00  0.00    -0.386 OA
ATOM     13  H   LIG    1        3.289  -3.279  -1.487  0.00  0.00    +0.210 HD
ENDBRANCH  11  12
BRANCH  11  14
ATOM     14  C   LIG    1        0.800  -4.238  -0.932  0.00  0.00    +0.190 C 
BRANCH  14  15
ATOM     15  O   LIG    1        0.553  -5.092  -2.051  0.00  0.00    -0.392 OA
ATOM     16  H   LIG    1        1.311  -4.949  -2.654  0.00  0.00    +0.209 HD
ENDBRANCH  14  15
ENDBRANCH  11  14
ENDBRANCH  10  11
ENDBRANCH   9  10
ENDBRANCH   2   9
TORSDOF 7
