REMARK  Name = *****
REMARK                            x       y       z     vdW  Elec       q    Type
REMARK                         _______ _______ _______ _____ _____    ______ ____
ROOT
ATOM      1  C   LIG    1        2.259   1.664  -3.373  0.00  0.00    +0.105 C 
ATOM      2  C   LIG    1        1.364   1.115  -4.323  0.00  0.00    +0.171 C 
ATOM      3  F   LIG    1        1.271  -0.226  -4.394  0.00  0.00    -0.201 F 
ATOM      4  C   LIG    1        0.563   1.905  -5.186  0.00  0.00    +0.092 C 
ATOM      5  C   LIG    1        0.724   3.307  -5.138  0.00  0.00    +0.072 C 
ATOM      6  C   LIG    1       -0.043   4.155  -6.103  0.00  0.00    +0.205 C 
ATOM      7  C   LIG    1       -0.936   3.499  -7.080  0.00  0.00    +0.122 C 
ATOM      8  C   LIG    1       -1.043   2.168  -6.999  0.00  0.00    +0.105 C 
ATOM      9  O   LIG    1        0.064   5.381  -6.136  0.00  0.00    -0.286 OA
ATOM     10  C   LIG    1        1.609   3.902  -4.220  0.00  0.00    +0.075 C 
ATOM     11  N   LIG    1       -0.404   1.352  -6.085  0.00  0.00    -0.340 NA
ATOM     12  C   LIG    1        2.325   3.067  -3.337  0.00  0.00    +0.168 C 
ATOM     13  F   LIG    1        3.138   3.678  -2.455  0.00  0.00    -0.202 F 
ENDROOT
BRANCH   1  21
ATOM     14  C   LIG    1        2.633  -0.462   0.402  0.00  0.00    +0.025 C 
ATOM     15  C   LIG    1        3.845   0.230  -0.225  0.00  0.00    +0.068 C 
ATOM     16  N   LIG    1        4.809  -0.739  -0.800  0.00  0.00    -0.308 NA
ATOM     17  H   LIG    1        5.717  -0.273  -0.834  0.00  0.00    +0.122 HD
ATOM     18  C   LIG    1        4.478  -1.149  -2.188  0.00  0.00    +0.068 C 
ATOM     19  C   LIG    1        3.471  -2.301  -2.212  0.00  0.00    +0.025 C 
ATOM     20  C   LIG    1        4.037   0.011  -3.128  0.00  0.00    +0.123 C 
ATOM     21  N   LIG    1        2.973   0.821  -2.493  0.00  0.00    -0.322 NA
ATOM     22  C   LIG    1        3.405   1.368  -1.189  0.00  0.00    +0.123 C 
ENDBRANCH   1  21
BRANCH  10  23
ATOM     23  N   LIG    1        1.628   5.294  -3.985  0.00  0.00    -0.355 NA
ATOM     24  H   LIG    1        1.319   5.854  -4.785  0.00  0.00    +0.142 HD
ATOM     25  H   LIG    1        2.485   5.631  -3.554  0.00  0.00    +0.142 HD
ENDBRANCH  10  23
BRANCH  11  26
ATOM     26  C   LIG    1       -0.977   0.005  -5.862  0.00  0.00    +0.088 C 
ATOM     27  C   LIG    1       -1.817  -0.281  -4.638  0.00  0.00    +0.027 C 
ATOM     28  C   LIG    1       -2.459  -0.283  -5.988  0.00  0.00    +0.027 C 
ENDBRANCH  11  26
BRANCH   7  29
ATOM     29  C   LIG    1       -1.737   4.221  -8.088  0.00  0.00    +0.342 C 
ATOM     30  O   LIG    1       -2.354   3.659  -8.988  0.00  0.00    -0.245 OA
BRANCH  29  31
ATOM     31  O   LIG    1       -1.770   5.560  -7.925  0.00  0.00    -0.477 OA
ATOM     32  H   LIG    1       -1.184   5.888  -7.200  0.00  0.00    +0.295 HD
ENDBRANCH  29  31
ENDBRANCH   7  29
TORSDOF 5
