REMARK  Name = *****
REMARK                            x       y       z     vdW  Elec       q    Type
REMARK                         _______ _______ _______ _____ _____    ______ ____
ROOT
ATOM      1  N   LIG    1        3.870  -0.901  -3.100  0.00  0.00    -0.226 N 
ATOM      2  C   LIG    1        3.708  -2.201  -3.580  0.00  0.00    +0.275 C 
ATOM      3  O   LIG    1        4.297  -3.189  -3.123  0.00  0.00    -0.266 OA
ATOM      4  C   LIG    1        2.778  -2.384  -4.702  0.00  0.00    +0.050 A 
ATOM      5  C   LIG    1        2.086  -1.290  -5.215  0.00  0.00    +0.011 A 
ATOM      6  C   LIG    1        1.183  -1.481  -6.269  0.00  0.00    +0.010 A 
ATOM      7  C   LIG    1        0.991  -2.756  -6.812  0.00  0.00    +0.001 A 
ATOM      8  C   LIG    1        1.696  -3.844  -6.309  0.00  0.00    +0.001 A 
ATOM      9  C   LIG    1        2.349   0.026  -4.590  0.00  0.00    +0.074 C 
ATOM     10  C   LIG    1        2.587  -3.661  -5.252  0.00  0.00    +0.014 A 
ATOM     11  N   LIG    1        3.185   0.180  -3.602  0.00  0.00    -0.172 NA
ENDROOT
BRANCH   1  16
ATOM     12  C   LIG    1        1.714   1.334   0.735  0.00  0.00    +0.105 C 
ATOM     13  N   LIG    1        3.043   0.930   0.253  0.00  0.00    -0.305 NA
ATOM     14  C   LIG    1        2.985  -0.471  -0.181  0.00  0.00    +0.086 C 
ATOM     15  C   LIG    1        4.313  -1.087  -0.616  0.00  0.00    +0.042 C 
ATOM     16  C   LIG    1        4.833  -0.662  -1.996  0.00  0.00    +0.112 C 
ATOM     17  C   LIG    1        5.487   0.728  -2.029  0.00  0.00    +0.028 C 
ATOM     18  C   LIG    1        4.980   1.797  -1.066  0.00  0.00    +0.017 C 
ATOM     19  C   LIG    1        3.479   1.854  -0.802  0.00  0.00    +0.084 C 
ENDBRANCH   1  16
BRANCH   9  20
ATOM     20  C   LIG    1        1.625   1.276  -5.094  0.00  0.00    +0.092 C 
BRANCH  20  21
ATOM     21  C   LIG    1        2.339   1.978  -6.231  0.00  0.00    -0.041 A 
ATOM     22  C   LIG    1        3.531   2.678  -5.989  0.00  0.00    +0.005 A 
ATOM     23  C   LIG    1        4.206   3.318  -7.033  0.00  0.00    +0.020 A 
ATOM     24  C   LIG    1        3.695   3.263  -8.327  0.00  0.00    +0.041 A 
ATOM     25 CL   LIG    1        4.544   4.019  -9.619  0.00  0.00    -0.084 Cl
ATOM     26  C   LIG    1        2.500   2.595  -8.581  0.00  0.00    +0.020 A 
ATOM     27  C   LIG    1        1.822   1.960  -7.536  0.00  0.00    +0.005 A 
ENDBRANCH  20  21
ENDBRANCH   9  20
TORSDOF 3
