REMARK  Name = *****
REMARK                            x       y       z     vdW  Elec       q    Type
REMARK                         _______ _______ _______ _____ _____    ______ ____
ROOT
ATOM      1  C   LIG    1        1.014  -0.080   0.008  0.00  0.00    +0.150 C 
ATOM      2  N   LIG    1        2.454  -0.125   0.008  0.00  0.00    -0.328 N 
ATOM      3  C   LIG    1        3.232  -1.244   0.007  0.00  0.00    +0.151 A 
ATOM      4  C   LIG    1        2.910  -2.627   0.008  0.00  0.00    +0.280 C 
ATOM      5  N   LIG    1        4.032  -3.425   0.007  0.00  0.00    -0.273 N 
ATOM      6  H   LIG    1        3.881  -4.420   0.007  0.00  0.00    +0.173 HD
ATOM      7  C   LIG    1        5.354  -3.015   0.006  0.00  0.00    +0.331 C 
ATOM      8  N   LIG    1        5.595  -1.644   0.006  0.00  0.00    -0.280 N 
ATOM      9  C   LIG    1        6.950  -1.130   0.004  0.00  0.00    +0.155 C 
ATOM     10  O   LIG    1        6.240  -3.870   0.006  0.00  0.00    -0.246 OA
ATOM     11  O   LIG    1        1.774  -3.086   0.010  0.00  0.00    -0.265 OA
ATOM     12  C   LIG    1        4.517  -0.784   0.006  0.00  0.00    +0.168 A 
ATOM     13  N   LIG    1        4.567   0.577   0.006  0.00  0.00    -0.218 NA
ATOM     14  C   LIG    1        3.301   0.952   0.007  0.00  0.00    +0.202 A 
ENDROOT
TORSDOF 0
