REMARK  Name = *****
REMARK                            x       y       z     vdW  Elec       q    Type
REMARK                         _______ _______ _______ _____ _____    ______ ____
ROOT
ATOM      1  C   LIG    1        3.099   0.622  -1.111  0.00  0.00    +0.162 A 
ATOM      2  C   LIG    1        4.100   0.245  -1.986  0.00  0.00    +0.167 A 
ATOM      3  O   LIG    1        4.457  -1.057  -2.365  0.00  0.00    -0.476 OA
ATOM      4  C   LIG    1        4.817  -0.827  -3.740  0.00  0.00    +0.250 C 
ATOM      5  C   LIG    1        5.833   0.671  -3.527  0.00  0.00    +0.049 C 
ATOM      6  C   LIG    1        6.586   1.645  -4.757  0.00  0.00    +0.021 C 
ATOM      7  C   LIG    1        5.474   2.566  -5.216  0.00  0.00    +0.065 C 
ATOM      8  N   LIG    1        4.499   1.611  -5.711  0.00  0.00    -0.302 NA
ATOM      9  C   LIG    1        5.100   0.263  -5.795  0.00  0.00    +0.085 C 
ATOM     10  C   LIG    1        3.827   2.042  -6.928  0.00  0.00    +0.105 C 
ATOM     11  C   LIG    1        4.884   3.383  -4.001  0.00  0.00    +0.054 C 
ATOM     12  C   LIG    1        4.312   2.525  -2.881  0.00  0.00    -0.038 A 
ATOM     13  C   LIG    1        3.303   2.921  -2.008  0.00  0.00    +0.008 A 
ATOM     14  C   LIG    1        7.368   0.591  -6.155  0.00  0.00    +0.014 C 
ATOM     15  C   LIG    1        6.888  -1.256  -6.198  0.00  0.00    +0.078 C 
ATOM     16  C   LIG    1        6.420  -0.212  -4.380  0.00  0.00    +0.031 C 
ATOM     17  C   LIG    1        5.510  -1.990  -5.117  0.00  0.00    +0.174 C 
ATOM     18  O   LIG    1        5.139  -3.153  -5.254  0.00  0.00    -0.293 OA
ATOM     19  C   LIG    1        4.743   1.216  -2.763  0.00  0.00    +0.012 A 
ATOM     20  C   LIG    1        2.728   1.983  -1.117  0.00  0.00    +0.050 A 
ENDROOT
BRANCH   1  22
ATOM     21  C   LIG    1        2.774  -1.524  -0.154  0.00  0.00    +0.277 C 
ATOM     22  O   LIG    1        2.371  -0.164  -0.268  0.00  0.00    -0.491 OA
ENDBRANCH   1  22
TORSDOF 1
