REMARK  Name = *****
REMARK                            x       y       z     vdW  Elec       q    Type
REMARK                         _______ _______ _______ _____ _____    ______ ____
ROOT
ATOM      1  C   LIG    1        3.593   1.993  -0.461  0.00  0.00    +0.132 C 
ATOM      2  C   LIG    1        3.091   2.266   0.997  0.00  0.00    +0.014 C 
ATOM      3  C   LIG    1        3.828   1.167   1.840  0.00  0.00    +0.002 C 
ATOM      4  C   LIG    1        5.072   1.587   2.674  0.00  0.00    -0.003 C 
ATOM      5  C   LIG    1        4.960   3.005   3.282  0.00  0.00    -0.000 C 
ATOM      6  C   LIG    1        4.711   3.980   2.131  0.00  0.00    +0.005 C 
ATOM      7  C   LIG    1        3.917   3.038   4.432  0.00  0.00    +0.019 C 
ATOM      8  C   LIG    1        4.348   2.023   5.477  0.00  0.00    -0.063 C 
ATOM      9  C   LIG    1        4.715   2.341   6.728  0.00  0.00    +0.045 C 
ATOM     10  C   LIG    1        4.833   3.759   7.145  0.00  0.00    +0.156 C 
ATOM     11  C   LIG    1        4.718   4.818   6.075  0.00  0.00    +0.079 C 
ATOM     12  O   LIG    1        5.115   4.026   8.310  0.00  0.00    -0.293 OA
ATOM     13  C   LIG    1        4.420   0.607   4.969  0.00  0.00    +0.031 C 
ATOM     14  C   LIG    1        3.663   4.422   5.056  0.00  0.00    +0.016 C 
ATOM     15  C   LIG    1        5.381   0.543   3.776  0.00  0.00    +0.008 C 
ATOM     16  C   LIG    1        4.221   0.046   0.842  0.00  0.00    +0.008 C 
ATOM     17  C   LIG    1        3.379   3.734   1.443  0.00  0.00    +0.011 C 
ATOM     18  C   LIG    1        3.760   0.476  -0.546  0.00  0.00    +0.049 C 
ENDROOT
BRANCH   1  20
ATOM     19  C   LIG    1        1.957   2.902  -2.369  0.00  0.00    +0.007 C 
ATOM     20  C   LIG    1        2.693   2.495  -1.512  0.00  0.00    -0.070 C 
ENDBRANCH   1  20
BRANCH   1  21
ATOM     21  O   LIG    1        4.871   2.595  -0.679  0.00  0.00    -0.376 OA
ATOM     22  H   LIG    1        5.538   2.096  -0.184  0.00  0.00    +0.211 HD
ENDBRANCH   1  21
BRANCH   2  23
ATOM     23  C   LIG    1        1.531   2.094   1.180  0.00  0.00    +0.007 C 
ATOM     24  C   LIG    1        0.867   0.778   0.801  0.00  0.00    +0.004 C 
ENDBRANCH   2  23
TORSDOF 3
