REMARK  Name = *****
REMARK                            x       y       z     vdW  Elec       q    Type
REMARK                         _______ _______ _______ _____ _____    ______ ____
ROOT
ATOM      1  O   LIG    1       10.313   2.619   0.790  0.00  0.00    -0.340 OA
ENDROOT
BRANCH   1   5
ATOM      2  C   LIG    1       12.710   0.773   2.367  0.00  0.00    +0.283 C 
ATOM      3  C   LIG    1       13.576   1.578   1.360  0.00  0.00    +0.201 C 
ATOM      4  C   LIG    1       12.756   2.430   0.392  0.00  0.00    +0.180 C 
ATOM      5  C   LIG    1       11.365   1.877   0.096  0.00  0.00    +0.192 C 
ATOM      6  C   LIG    1       11.274   0.389   0.457  0.00  0.00    +0.261 C 
ATOM      7  O   LIG    1       11.465   0.288   1.862  0.00  0.00    -0.332 OA
BRANCH   6   8
ATOM      8  C   LIG    1       12.169  -0.536  -0.417  0.00  0.00    +0.337 C 
ATOM      9  O   LIG    1       12.988  -1.314   0.049  0.00  0.00    -0.248 OA
BRANCH   8  10
ATOM     10  O   LIG    1       11.977  -0.448  -1.754  0.00  0.00    -0.479 OA
ATOM     11  H   LIG    1       11.302   0.173  -2.084  0.00  0.00    +0.295 HD
ENDBRANCH   8  10
ENDBRANCH   6   8
BRANCH   4  12
ATOM     12  O   LIG    1       13.447   2.550  -0.858  0.00  0.00    -0.386 OA
ATOM     13  H   LIG    1       14.356   2.858  -0.676  0.00  0.00    +0.210 HD
ENDBRANCH   4  12
BRANCH   3  14
ATOM     14  O   LIG    1       14.492   2.475   2.020  0.00  0.00    -0.384 OA
ATOM     15  H   LIG    1       13.986   3.134   2.526  0.00  0.00    +0.210 HD
ENDBRANCH   3  14
BRANCH   2  16
ATOM     16  O   LIG    1       13.341  -0.373   2.909  0.00  0.00    -0.341 OA
BRANCH  16  18
ATOM     17  C   LIG    1       14.790   0.407   4.822  0.00  0.00    +0.160 C 
ATOM     18  C   LIG    1       14.664  -0.317   3.458  0.00  0.00    +0.177 C 
ATOM     19  C   LIG    1       15.005  -1.810   3.708  0.00  0.00    +0.176 C 
ATOM     20  C   LIG    1       14.076  -2.393   4.800  0.00  0.00    +0.178 C 
ATOM     21  O   LIG    1       14.125  -1.617   6.015  0.00  0.00    -0.341 OA
ATOM     22  C   LIG    1       13.791  -0.247   5.807  0.00  0.00    +0.270 C 
BRANCH  17  25
ATOM     23  C   LIG    1       15.249   4.151   5.416  0.00  0.00    +0.109 C 
ATOM     24  C   LIG    1       15.479   2.673   5.585  0.00  0.00    +0.210 C 
ATOM     25  N   LIG    1       14.707   1.876   4.765  0.00  0.00    -0.305 N 
ATOM     26  H   LIG    1       13.873   2.295   4.396  0.00  0.00    +0.149 HD
ATOM     27  O   LIG    1       16.323   2.239   6.370  0.00  0.00    -0.276 OA
ENDBRANCH  17  25
BRANCH  22  28
ATOM     28  O   LIG    1       13.851   0.382   7.073  0.00  0.00    -0.365 OA
ATOM     29  H   LIG    1       13.685  -0.343   7.699  0.00  0.00    +0.212 HD
ENDBRANCH  22  28
BRANCH  19  30
ATOM     30  O   LIG    1       14.866  -2.557   2.494  0.00  0.00    -0.387 OA
ATOM     31  H   LIG    1       14.034  -2.271   2.062  0.00  0.00    +0.210 HD
ENDBRANCH  19  30
BRANCH  20  32
ATOM     32  C   LIG    1       14.465  -3.832   5.170  0.00  0.00    +0.190 C 
BRANCH  32  33
ATOM     33  O   LIG    1       15.770  -3.877   5.749  0.00  0.00    -0.392 OA
ATOM     34  H   LIG    1       15.784  -3.190   6.440  0.00  0.00    +0.209 HD
ENDBRANCH  32  33
ENDBRANCH  20  32
ENDBRANCH  16  18
ENDBRANCH   2  16
ENDBRANCH   1   5
BRANCH   1  35
ATOM     35  C   LIG    1       10.237   4.049   0.557  0.00  0.00    +0.274 C 
ATOM     36  C   LIG    1       10.255   4.395  -0.957  0.00  0.00    +0.160 C 
ATOM     37  C   LIG    1        8.807   4.608  -1.451  0.00  0.00    +0.177 C 
ATOM     38  C   LIG    1        8.205   5.821  -0.704  0.00  0.00    +0.176 C 
ATOM     39  C   LIG    1        8.689   5.915   0.769  0.00  0.00    +0.178 C 
ATOM     40  O   LIG    1        9.105   4.627   1.268  0.00  0.00    -0.341 OA
BRANCH  36  41
ATOM     41  N   LIG    1       11.226   5.480  -1.222  0.00  0.00    -0.305 N 
ATOM     42  H   LIG    1       11.370   6.190  -0.513  0.00  0.00    +0.149 HD
ATOM     43  C   LIG    1       11.990   5.556  -2.361  0.00  0.00    +0.210 C 
ATOM     44  O   LIG    1       11.922   4.721  -3.266  0.00  0.00    -0.276 OA
ATOM     45  C   LIG    1       12.942   6.725  -2.425  0.00  0.00    +0.109 C 
ENDBRANCH  36  41
BRANCH  38  46
ATOM     46  O   LIG    1        8.538   7.049  -1.367  0.00  0.00    -0.387 OA
ATOM     47  H   LIG    1        7.854   7.689  -1.076  0.00  0.00    +0.210 HD
ENDBRANCH  38  46
BRANCH  39  48
ATOM     48  C   LIG    1        7.571   6.557   1.639  0.00  0.00    +0.190 C 
BRANCH  48  49
ATOM     49  O   LIG    1        7.139   7.799   1.068  0.00  0.00    -0.392 OA
ATOM     50  H   LIG    1        7.507   8.531   1.596  0.00  0.00    +0.209 HD
ENDBRANCH  48  49
ENDBRANCH  39  48
BRANCH  37  51
ATOM     51  O   LIG    1        7.914   3.472  -1.204  0.00  0.00    -0.341 OA
BRANCH  51  52
ATOM     52  C   LIG    1        8.233   2.223  -1.825  0.00  0.00    +0.283 C 
ATOM     53  C   LIG    1        7.490   1.031  -1.159  0.00  0.00    +0.201 C 
ATOM     54  C   LIG    1        6.052   0.935  -1.672  0.00  0.00    +0.179 C 
ATOM     55  C   LIG    1        6.071   0.780  -3.197  0.00  0.00    +0.185 C 
ATOM     56  C   LIG    1        6.838   1.945  -3.826  0.00  0.00    +0.260 C 
ATOM     57  O   LIG    1        8.109   2.255  -3.247  0.00  0.00    -0.332 OA
BRANCH  56  58
ATOM     58  C   LIG    1        5.817   3.104  -3.958  0.00  0.00    +0.337 C 
ATOM     59  O   LIG    1        4.625   2.993  -4.031  0.00  0.00    -0.248 OA
BRANCH  58  60
ATOM     60  O   LIG    1        6.458   4.299  -4.116  0.00  0.00    -0.479 OA
ATOM     61  H   LIG    1        7.408   4.132  -4.242  0.00  0.00    +0.295 HD
ENDBRANCH  58  60
ENDBRANCH  56  58
BRANCH  55  62
ATOM     62  O   LIG    1        6.684  -0.466  -3.569  0.00  0.00    -0.386 OA
ATOM     63  H   LIG    1        5.957  -1.121  -3.582  0.00  0.00    +0.210 HD
ENDBRANCH  55  62
BRANCH  54  64
ATOM     64  O   LIG    1        5.286   2.079  -1.304  0.00  0.00    -0.386 OA
ATOM     65  H   LIG    1        5.597   2.430  -0.450  0.00  0.00    +0.210 HD
ENDBRANCH  54  64
BRANCH  53  66
ATOM     66  O   LIG    1        8.207  -0.193  -1.424  0.00  0.00    -0.384 OA
ATOM     67  H   LIG    1        7.998  -0.459  -2.350  0.00  0.00    +0.210 HD
ENDBRANCH  53  66
ENDBRANCH  51  52
ENDBRANCH  37  51
ENDBRANCH   1  35
TORSDOF 24
