REMARK  Name = *****
REMARK                            x       y       z     vdW  Elec       q    Type
REMARK                         _______ _______ _______ _____ _____    ______ ____
ROOT
ATOM      1  C   LIG    1        8.862  -5.180   2.758  0.00  0.00    +0.144 C 
ATOM      2  C   LIG    1       10.214  -5.493   2.891  0.00  0.00    +0.014 C 
ENDROOT
BRANCH   2   3
ATOM      3  C   LIG    1       11.368  -4.719   2.225  0.00  0.00    -0.016 A 
ATOM      4  C   LIG    1       12.724  -5.116   2.310  0.00  0.00    +0.012 A 
ATOM      5  C   LIG    1       13.762  -4.549   1.544  0.00  0.00    +0.046 A 
ATOM      6  C   LIG    1       13.490  -3.470   0.727  0.00  0.00    +0.120 A 
ATOM      7  C   LIG    1       12.208  -2.960   0.745  0.00  0.00    +0.046 A 
ATOM      8  C   LIG    1       11.195  -3.563   1.482  0.00  0.00    +0.012 A 
BRANCH   6   9
ATOM      9  O   LIG    1       14.506  -2.909   0.011  0.00  0.00    -0.495 OA
ATOM     10  C   LIG    1       14.052  -2.233  -1.165  0.00  0.00    +0.277 C 
ENDBRANCH   6   9
ENDBRANCH   2   3
BRANCH   2  11
ATOM     11  C   LIG    1       10.556  -6.787   3.715  0.00  0.00    -0.016 A 
ATOM     12  C   LIG    1        9.865  -7.155   4.890  0.00  0.00    +0.008 A 
ATOM     13  C   LIG    1       10.085  -8.370   5.545  0.00  0.00    +0.001 A 
ATOM     14  C   LIG    1       11.164  -9.157   5.189  0.00  0.00    +0.000 A 
ATOM     15  C   LIG    1       11.945  -8.780   4.109  0.00  0.00    +0.001 A 
ATOM     16  C   LIG    1       11.576  -7.677   3.328  0.00  0.00    +0.008 A 
ENDBRANCH   2  11
BRANCH   1  17
ATOM     17  C   LIG    1        8.155  -4.109   2.011  0.00  0.00    +0.350 C 
ATOM     18  O   LIG    1        8.500  -3.652   0.978  0.00  0.00    -0.244 OA
BRANCH  17  19
ATOM     19  O   LIG    1        6.985  -3.769   2.654  0.00  0.00    -0.460 OA
BRANCH  19  20
ATOM     20  C   LIG    1        6.421  -2.480   2.361  0.00  0.00    +0.236 C 
BRANCH  20  21
ATOM     21  C   LIG    1        6.148  -2.095   0.893  0.00  0.00    +0.026 C 
BRANCH  21  22
ATOM     22  C   LIG    1        5.143  -2.991   0.146  0.00  0.00    +0.003 C 
ATOM     23  C   LIG    1        5.496  -4.465   0.052  0.00  0.00    +0.004 C 
ENDBRANCH  21  22
BRANCH  21  24
ATOM     24  C   LIG    1        5.733  -0.613   0.776  0.00  0.00    +0.007 C 
BRANCH  24  25
ATOM     25  C   LIG    1        4.405  -0.237   1.436  0.00  0.00    +0.000 C 
BRANCH  25  27
ATOM     26  C   LIG    1        3.916   1.656  -0.204  0.00  0.00    +0.004 C 
ATOM     27  C   LIG    1        4.076   1.247   1.254  0.00  0.00    -0.003 C 
ENDBRANCH  25  27
ENDBRANCH  24  25
ENDBRANCH  21  24
ENDBRANCH  20  21
ENDBRANCH  19  20
ENDBRANCH  17  19
ENDBRANCH   1  17
BRANCH   1  28
ATOM     28  C   LIG    1        7.948  -6.119   3.268  0.00  0.00    +0.107 C 
ATOM     29  N   LIG    1        7.200  -6.888   3.685  0.00  0.00    -0.191 NA
ENDBRANCH   1  28
TORSDOF 12
