REMARK  Name = *****
REMARK                            x       y       z     vdW  Elec       q    Type
REMARK                         _______ _______ _______ _____ _____    ______ ____
ROOT
ATOM      1  C   LIG    1        5.303   0.080   3.209  0.00  0.00    -0.024 C 
ATOM      2  C   LIG    1        5.380   1.384   3.734  0.00  0.00    +0.015 C 
ATOM      3  C   LIG    1        5.842   1.589   5.049  0.00  0.00    +0.003 C 
ATOM      4  C   LIG    1        6.207   0.478   5.807  0.00  0.00    +0.047 C 
ATOM      5  N   LIG    1        6.609   0.942   7.037  0.00  0.00    -0.360 NA
ATOM      6  H   LIG    1        6.930   0.355   7.794  0.00  0.00    +0.165 HD
ATOM      7  C   LIG    1        6.516   2.307   7.081  0.00  0.00    +0.087 C 
ATOM      8  C   LIG    1        6.148  -0.829   5.311  0.00  0.00    +0.026 C 
ATOM      9  C   LIG    1        6.053   2.750   5.857  0.00  0.00    -0.021 C 
ATOM     10  C   LIG    1        5.692  -1.007   4.001  0.00  0.00    +0.007 C 
ENDROOT
BRANCH   1  11
ATOM     11  C   LIG    1        4.801  -0.133   1.807  0.00  0.00    +0.220 C 
BRANCH  11  12
ATOM     12  S   LIG    1        6.178  -0.044   0.651  0.00  0.00    +0.033 S 
ATOM     13  O   LIG    1        6.708   1.298   0.590  0.00  0.00    -0.158 OA
ATOM     14  O   LIG    1        7.041  -1.198   0.824  0.00  0.00    -0.158 OA
BRANCH  12  16
ATOM     15  C   LIG    1        4.582   0.776  -1.368  0.00  0.00    +0.127 C 
ATOM     16  N   LIG    1        5.394  -0.317  -0.827  0.00  0.00    -0.197 NA
ATOM     17  H   LIG    1        6.053  -0.737  -1.486  0.00  0.00    +0.147 HD
ENDBRANCH  12  16
ENDBRANCH  11  12
ENDBRANCH   1  11
BRANCH   9  18
ATOM     18  C   LIG    1        5.836   4.177   5.454  0.00  0.00    +0.052 C 
BRANCH  18  19
ATOM     19  C   LIG    1        4.416   4.669   5.783  0.00  0.00    +0.088 C 
BRANCH  19  20
ATOM     20  N   LIG    1        4.147   6.071   5.394  0.00  0.00    -0.308 NA
ATOM     21  C   LIG    1        5.048   7.013   6.060  0.00  0.00    +0.104 C 
ATOM     22  C   LIG    1        2.757   6.412   5.713  0.00  0.00    +0.104 C 
ENDBRANCH  19  20
ENDBRANCH  18  19
ENDBRANCH   9  18
TORSDOF 6
