REMARK  Name = *****
REMARK                            x       y       z     vdW  Elec       q    Type
REMARK                         _______ _______ _______ _____ _____    ______ ____
ROOT
ATOM      1  C   LIG    1        1.123  -0.126   0.571  0.00  0.00    +0.027 C 
ATOM      2  C   LIG    1        2.554  -0.513   0.145  0.00  0.00    +0.086 C 
ATOM      3  N   LIG    1        2.619  -1.782  -0.626  0.00  0.00    -0.298 NA
ATOM      4  C   LIG    1        2.002  -2.921   0.042  0.00  0.00    +0.105 C 
ATOM      5  C   LIG    1        2.099  -1.602  -1.991  0.00  0.00    +0.112 C 
ATOM      6  C   LIG    1        2.783  -0.427  -2.704  0.00  0.00    +0.176 C 
ATOM      7  O   LIG    1        2.647   0.796  -1.972  0.00  0.00    -0.369 OA
ATOM      8  C   LIG    1        3.193   0.688  -0.641  0.00  0.00    +0.165 C 
ENDROOT
BRANCH   8   9
ATOM      9  C   LIG    1        4.714   0.795  -0.678  0.00  0.00    -0.017 A 
ATOM     10  C   LIG    1        5.292   2.049  -0.948  0.00  0.00    +0.006 A 
ATOM     11  C   LIG    1        6.679   2.209  -0.987  0.00  0.00    +0.000 A 
ATOM     12  C   LIG    1        7.511   1.117  -0.770  0.00  0.00    +0.000 A 
ATOM     13  C   LIG    1        6.958  -0.137  -0.518  0.00  0.00    +0.000 A 
ATOM     14  C   LIG    1        5.570  -0.296  -0.472  0.00  0.00    +0.006 A 
ENDBRANCH   8   9
TORSDOF 1
