REMARK  Name = *****
REMARK                            x       y       z     vdW  Elec       q    Type
REMARK                         _______ _______ _______ _____ _____    ______ ____
ROOT
ATOM      1  N   LIG    1        5.427   1.243   0.600  0.00  0.00    -0.293 NA
ATOM      2  C   LIG    1        4.913   0.993  -0.811  0.00  0.00    +0.094 C 
ATOM      3  C   LIG    1        5.228   2.375  -0.749  0.00  0.00    +0.096 C 
ATOM      4  C   LIG    1        7.066   1.967  -0.385  0.00  0.00    +0.075 C 
ATOM      5  C   LIG    1        7.508   1.120   1.224  0.00  0.00    +0.253 C 
ATOM      6  O   LIG    1        8.932   0.962   0.988  0.00  0.00    -0.476 OA
ATOM      7  C   LIG    1        8.926   0.529  -0.366  0.00  0.00    +0.167 A 
ATOM      8  C   LIG    1        9.675  -0.540  -0.809  0.00  0.00    +0.159 A 
ATOM      9  C   LIG    1        9.199  -1.267  -1.901  0.00  0.00    +0.049 A 
ATOM     10  C   LIG    1        7.908  -1.004  -2.417  0.00  0.00    +0.008 A 
ATOM     11  C   LIG    1        7.162   0.068  -1.918  0.00  0.00    -0.038 A 
ATOM     12  C   LIG    1        6.473   1.653   2.708  0.00  0.00    +0.174 C 
ATOM     13  O   LIG    1        6.866   1.452   3.864  0.00  0.00    -0.293 OA
ATOM     14  C   LIG    1        4.847   2.591   2.431  0.00  0.00    +0.081 C 
ATOM     15  C   LIG    1        7.813   0.950  -1.095  0.00  0.00    +0.014 A 
ATOM     16  C   LIG    1        7.499   3.287  -0.114  0.00  0.00    +0.034 C 
ATOM     17  C   LIG    1        4.121   2.947   0.725  0.00  0.00    +0.045 C 
ATOM     18  C   LIG    1        5.649   0.185  -1.967  0.00  0.00    +0.057 C 
ATOM     19  C   LIG    1        6.361   2.989   0.853  0.00  0.00    +0.086 C 
ENDROOT
BRANCH   3  20
ATOM     20  O   LIG    1        5.013   3.149  -1.903  0.00  0.00    -0.386 OA
ATOM     21  H   LIG    1        4.051   3.236  -2.022  0.00  0.00    +0.210 HD
ENDBRANCH   3  20
BRANCH   8  22
ATOM     22  O   LIG    1       10.776  -0.969  -0.137  0.00  0.00    -0.503 OA
ATOM     23  H   LIG    1       10.860  -0.380   0.637  0.00  0.00    +0.292 HD
ENDBRANCH   8  22
BRANCH   1  24
ATOM     24  C   LIG    1        4.658   0.237   1.472  0.00  0.00    +0.111 C 
BRANCH  24  26
ATOM     25  C   LIG    1        5.274  -2.188   1.023  0.00  0.00    +0.005 C 
ATOM     26  C   LIG    1        4.471  -1.131   0.844  0.00  0.00    -0.019 C 
ENDBRANCH  24  26
ENDBRANCH   1  24
TORSDOF 4
