REMARK  Name = *****
REMARK                            x       y       z     vdW  Elec       q    Type
REMARK                         _______ _______ _______ _____ _____    ______ ____
ROOT
ATOM      1  N   LIG    1       10.479  -0.210  -1.105  0.00  0.00    -0.297 N 
ATOM      2  C   LIG    1       11.075  -1.455  -1.547  0.00  0.00    +0.048 A 
ATOM      3  C   LIG    1       11.768  -2.311  -0.665  0.00  0.00    +0.034 A 
ATOM      4  C   LIG    1       12.239  -3.548  -1.124  0.00  0.00    +0.017 A 
ATOM      5  C   LIG    1       12.083  -3.905  -2.466  0.00  0.00    +0.001 A 
ATOM      6  C   LIG    1       11.465  -3.030  -3.356  0.00  0.00    +0.002 A 
ATOM      7  S   LIG    1       12.075  -1.841   1.035  0.00  0.00    -0.086 S 
ATOM      8  C   LIG    1       11.980  -0.060   0.868  0.00  0.00    +0.034 A 
ATOM      9  C   LIG    1       12.727   0.740   1.747  0.00  0.00    +0.017 A 
ATOM     10  C   LIG    1       12.728   2.129   1.593  0.00  0.00    +0.001 A 
ATOM     11  C   LIG    1       11.998   2.729   0.579  0.00  0.00    +0.002 A 
ATOM     12  C   LIG    1       11.242   1.940  -0.293  0.00  0.00    +0.024 A 
ATOM     13  C   LIG    1       10.951  -1.813  -2.899  0.00  0.00    +0.024 A 
ATOM     14  C   LIG    1       11.213   0.545  -0.140  0.00  0.00    +0.048 A 
ENDROOT
BRANCH   1  15
ATOM     15  C   LIG    1        9.127  -0.598  -0.567  0.00  0.00    +0.129 C 
BRANCH  15  16
ATOM     16  C   LIG    1        8.133   0.544  -0.200  0.00  0.00    +0.071 C 
ATOM     17  C   LIG    1        7.777   1.374  -1.444  0.00  0.00    +0.026 C 
BRANCH  16  18
ATOM     18  N   LIG    1        6.879   0.125   0.514  0.00  0.00    -0.299 NA
BRANCH  18  20
ATOM     19  C   LIG    1        6.412  -2.283  -0.305  0.00  0.00    +0.020 C 
ATOM     20  C   LIG    1        5.989  -0.819  -0.182  0.00  0.00    +0.081 C 
ENDBRANCH  18  20
BRANCH  18  21
ATOM     21  C   LIG    1        7.119  -0.190   1.932  0.00  0.00    +0.081 C 
ATOM     22  C   LIG    1        5.861  -0.263   2.803  0.00  0.00    +0.020 C 
ENDBRANCH  18  21
ENDBRANCH  16  18
ENDBRANCH  15  16
ENDBRANCH   1  15
TORSDOF 5
