REMARK  Name = *****
REMARK                            x       y       z     vdW  Elec       q    Type
REMARK                         _______ _______ _______ _____ _____    ______ ____
ROOT
ATOM      1  C   LIG    1        9.848   2.226  -5.075  0.00  0.00    -0.021 C 
ATOM      2  C   LIG    1       11.200   2.327  -5.013  0.00  0.00    -0.035 C 
ATOM      3  C   LIG    1       11.891   3.546  -4.425  0.00  0.00    +0.059 C 
ATOM      4  C   LIG    1       12.978   4.185  -5.323  0.00  0.00    +0.085 C 
ATOM      5  C   LIG    1       13.698   5.280  -4.561  0.00  0.00    -0.011 C 
ATOM      6  C   LIG    1       13.783   5.288  -3.228  0.00  0.00    +0.009 C 
ATOM      7  C   LIG    1       13.208   4.214  -2.415  0.00  0.00    +0.051 C 
ATOM      8  S   LIG    1       14.266   3.045  -5.921  0.00  0.00    -0.116 S 
ATOM      9  C   LIG    1       13.380   1.503  -6.057  0.00  0.00    +0.016 A 
ATOM     10  C   LIG    1       14.125   0.461  -6.650  0.00  0.00    +0.015 A 
ATOM     11  C   LIG    1       13.602  -0.821  -6.788  0.00  0.00    +0.001 A 
ATOM     12  C   LIG    1       12.332  -1.088  -6.304  0.00  0.00    +0.001 A 
ATOM     13  C   LIG    1       11.585  -0.064  -5.713  0.00  0.00    +0.009 A 
ATOM     14  C   LIG    1       12.325   3.367  -2.985  0.00  0.00    -0.005 C 
ATOM     15  C   LIG    1       12.067   1.262  -5.610  0.00  0.00    -0.008 A 
ENDROOT
BRANCH   7  16
ATOM     16  C   LIG    1       13.573   4.147  -0.950  0.00  0.00    +0.417 C 
ATOM     17  F   LIG    1       14.173   2.973  -0.629  0.00  0.00    -0.166 F 
ATOM     18  F   LIG    1       12.469   4.250  -0.162  0.00  0.00    -0.166 F 
ATOM     19  F   LIG    1       14.416   5.139  -0.559  0.00  0.00    -0.166 F 
ENDBRANCH   7  16
BRANCH   1  20
ATOM     20  C   LIG    1        8.805   3.147  -4.482  0.00  0.00    +0.043 C 
BRANCH  20  21
ATOM     21  C   LIG    1        7.843   3.774  -5.517  0.00  0.00    +0.088 C 
BRANCH  21  25
ATOM     22  N   LIG    1        4.086   3.309  -5.625  0.00  0.00    -0.298 NA
ATOM     23  C   LIG    1        5.048   2.619  -4.739  0.00  0.00    +0.100 C 
ATOM     24  C   LIG    1        6.206   1.921  -5.484  0.00  0.00    +0.100 C 
ATOM     25  N   LIG    1        7.019   2.835  -6.308  0.00  0.00    -0.300 NA
ATOM     26  C   LIG    1        6.107   3.573  -7.216  0.00  0.00    +0.100 C 
ATOM     27  C   LIG    1        4.844   4.194  -6.548  0.00  0.00    +0.100 C 
BRANCH  22  28
ATOM     28  C   LIG    1        3.220   2.381  -6.390  0.00  0.00    +0.112 C 
BRANCH  28  29
ATOM     29  C   LIG    1        2.371   1.448  -5.507  0.00  0.00    +0.171 C 
BRANCH  29  30
ATOM     30  O   LIG    1        1.591   2.205  -4.585  0.00  0.00    -0.394 OA
ATOM     31  H   LIG    1        2.128   2.995  -4.374  0.00  0.00    +0.209 HD
ENDBRANCH  29  30
ENDBRANCH  28  29
ENDBRANCH  22  28
ENDBRANCH  21  25
ENDBRANCH  20  21
ENDBRANCH   1  20
TORSDOF 7
