REMARK  Name = *****
REMARK                            x       y       z     vdW  Elec       q    Type
REMARK                         _______ _______ _______ _____ _____    ______ ____
ROOT
ATOM      1  C   LIG    1        4.590   0.317   1.611  0.00  0.00    +0.152 A 
ATOM      2  N   LIG    1        5.493  -0.726   1.714  0.00  0.00    -0.280 N 
ATOM      3  C   LIG    1        5.344  -2.004   2.297  0.00  0.00    +0.059 A 
ATOM      4  C   LIG    1        5.994  -3.124   1.750  0.00  0.00    +0.026 A 
ATOM      5  C   LIG    1        6.684  -3.087   0.418  0.00  0.00    +0.075 C 
ATOM      6  N   LIG    1        7.550  -2.200   0.066  0.00  0.00    -0.275 NA
ATOM      7  C   LIG    1        7.857  -1.087   0.966  0.00  0.00    +0.218 C 
ATOM      8  C   LIG    1        5.914  -4.362   2.409  0.00  0.00    +0.032 A 
ATOM      9  C   LIG    1        5.169  -4.483   3.579  0.00  0.00    +0.042 A 
ATOM     10 CL   LIG    1        5.050  -6.010   4.361  0.00  0.00    -0.084 Cl
ATOM     11  C   LIG    1        4.511  -3.380   4.114  0.00  0.00    +0.022 A 
ATOM     12  C   LIG    1        4.603  -2.139   3.481  0.00  0.00    +0.028 A 
ATOM     13  C   LIG    1        6.653  -0.241   1.150  0.00  0.00    +0.160 A 
ATOM     14  N   LIG    1        6.515   1.041   0.888  0.00  0.00    -0.132 NA
ATOM     15  N   LIG    1        5.223   1.391   1.176  0.00  0.00    -0.133 NA
ENDROOT
BRANCH   5  16
ATOM     16  C   LIG    1        6.314  -4.142  -0.586  0.00  0.00    +0.001 A 
ATOM     17  C   LIG    1        7.269  -4.595  -1.502  0.00  0.00    +0.010 A 
ATOM     18  C   LIG    1        6.930  -5.577  -2.437  0.00  0.00    +0.001 A 
ATOM     19  C   LIG    1        5.638  -6.103  -2.465  0.00  0.00    +0.000 A 
ATOM     20  C   LIG    1        4.677  -5.640  -1.568  0.00  0.00    +0.001 A 
ATOM     21  C   LIG    1        5.009  -4.654  -0.638  0.00  0.00    +0.010 A 
ENDBRANCH   5  16
BRANCH   1  22
ATOM     22  C   LIG    1        3.105   0.205   1.759  0.00  0.00    +0.160 C 
BRANCH  22  24
ATOM     23  C   LIG    1        1.075  -0.976   1.232  0.00  0.00    +0.105 C 
ATOM     24  N   LIG    1        2.511  -0.882   0.948  0.00  0.00    -0.301 NA
ATOM     25  C   LIG    1        2.703  -0.643  -0.490  0.00  0.00    +0.105 C 
ENDBRANCH  22  24
ENDBRANCH   1  22
TORSDOF 3
