REMARK  Name = *****
REMARK                            x       y       z     vdW  Elec       q    Type
REMARK                         _______ _______ _______ _____ _____    ______ ____
ROOT
ATOM      1  C   LIG    1       11.164  -2.471  -1.094  0.00  0.00    +0.137 A 
ATOM      2  C   LIG    1       10.113  -3.030  -1.812  0.00  0.00    +0.052 A 
ATOM      3  C   LIG    1        8.909  -2.333  -1.994  0.00  0.00    -0.011 A 
ATOM      4  C   LIG    1        8.769  -1.064  -1.418  0.00  0.00    +0.052 A 
ATOM      5  C   LIG    1        9.811  -0.532  -0.662  0.00  0.00    +0.137 A 
ATOM      6  C   LIG    1       11.016  -1.220  -0.498  0.00  0.00    +0.092 A 
ENDROOT
BRANCH   1   7
ATOM      7  O   LIG    1       12.411  -3.115  -0.937  0.00  0.00    -0.411 OA
BRANCH   7  10
ATOM      8  C   LIG    1       14.930  -3.935  -0.417  0.00  0.00    +0.135 C 
ATOM      9  N   LIG    1       14.204  -4.456  -1.556  0.00  0.00    -0.273 N 
ATOM     10  C   LIG    1       12.900  -4.078  -1.834  0.00  0.00    +0.408 C 
ATOM     11  O   LIG    1       12.272  -4.543  -2.782  0.00  0.00    -0.226 OA
ATOM     12  C   LIG    1       14.767  -5.595  -2.257  0.00  0.00    +0.135 C 
ENDBRANCH   7  10
ENDBRANCH   1   7
BRANCH   3  13
ATOM     13  C   LIG    1        7.818  -2.897  -2.884  0.00  0.00    +0.158 C 
BRANCH  13  14
ATOM     14  O   LIG    1        7.759  -4.314  -2.722  0.00  0.00    -0.386 OA
ATOM     15  H   LIG    1        8.337  -4.701  -3.402  0.00  0.00    +0.210 HD
ENDBRANCH  13  14
BRANCH  13  16
ATOM     16  C   LIG    1        8.096  -2.490  -4.354  0.00  0.00    +0.117 C 
BRANCH  16  17
ATOM     17  N   LIG    1        7.080  -2.933  -5.332  0.00  0.00    -0.308 NA
ATOM     18  H   LIG    1        6.167  -2.585  -5.031  0.00  0.00    +0.122 HD
BRANCH  17  19
ATOM     19  C   LIG    1        7.341  -2.482  -6.721  0.00  0.00    +0.011 C 
ATOM     20  C   LIG    1        7.417  -0.948  -6.804  0.00  0.00    +0.027 C 
ATOM     21  C   LIG    1        6.174  -2.946  -7.621  0.00  0.00    +0.027 C 
ATOM     22  C   LIG    1        8.646  -3.088  -7.270  0.00  0.00    +0.027 C 
ENDBRANCH  17  19
ENDBRANCH  16  17
ENDBRANCH  13  16
ENDBRANCH   3  13
BRANCH   5  23
ATOM     23  O   LIG    1        9.764   0.762  -0.106  0.00  0.00    -0.411 OA
BRANCH  23  24
ATOM     24  C   LIG    1        8.632   1.281   0.530  0.00  0.00    +0.408 C 
ATOM     25  N   LIG    1        8.946   2.455   1.209  0.00  0.00    -0.273 N 
ATOM     26  C   LIG    1       10.098   3.271   0.872  0.00  0.00    +0.135 C 
ATOM     27  C   LIG    1        8.005   2.994   2.170  0.00  0.00    +0.135 C 
ATOM     28  O   LIG    1        7.537   0.758   0.542  0.00  0.00    -0.226 OA
ENDBRANCH  23  24
ENDBRANCH   5  23
TORSDOF 9
