REMARK  Name = *****
REMARK                            x       y       z     vdW  Elec       q    Type
REMARK                         _______ _______ _______ _____ _____    ______ ____
ROOT
ATOM      1  C   LIG    1        4.700  -3.549  -0.721  0.00  0.00    +0.061 A 
ATOM      2  C   LIG    1        3.411  -3.843  -1.179  0.00  0.00    +0.152 A 
ATOM      3  C   LIG    1        2.852  -5.088  -0.914  0.00  0.00    +0.141 A 
ATOM      4  N   LIG    1        3.501  -6.080  -0.266  0.00  0.00    -0.261 NA
ATOM      5  C   LIG    1        4.753  -5.804   0.146  0.00  0.00    +0.112 A 
ATOM      6  C   LIG    1        5.372  -4.577  -0.042  0.00  0.00    +0.045 A 
ENDROOT
BRANCH   2   7
ATOM      7  S   LIG    1        2.438  -2.756  -2.169  0.00  0.00    +0.106 S 
ATOM      8  O   LIG    1        3.182  -1.518  -2.343  0.00  0.00    -0.146 OA
ATOM      9  O   LIG    1        1.121  -2.712  -1.560  0.00  0.00    -0.146 OA
BRANCH   7  10
ATOM     10  N   LIG    1        2.345  -3.541  -3.570  0.00  0.00    -0.076 NA
ATOM     11  C   LIG    1        2.760  -3.079  -4.691  0.00  0.00    +0.299 C 
BRANCH  11  12
ATOM     12  N   LIG    1        2.698  -3.725  -5.878  0.00  0.00    -0.296 N 
ATOM     13  H   LIG    1        2.971  -3.184  -6.689  0.00  0.00    +0.151 HD
BRANCH  12  14
ATOM     14  C   LIG    1        2.144  -5.045  -6.094  0.00  0.00    +0.068 C 
ATOM     15  C   LIG    1        3.239  -5.971  -6.615  0.00  0.00    +0.027 C 
ATOM     16  C   LIG    1        0.993  -4.948  -7.089  0.00  0.00    +0.027 C 
ENDBRANCH  12  14
ENDBRANCH  11  12
BRANCH  11  17
ATOM     17  O   LIG    1        3.331  -1.880  -4.880  0.00  0.00    -0.481 OA
ATOM     18  H   LIG    1        3.419  -1.374  -4.049  0.00  0.00    +0.295 HD
ENDBRANCH  11  17
ENDBRANCH   7  10
ENDBRANCH   2   7
BRANCH   1  19
ATOM     19  N   LIG    1        5.317  -2.298  -0.910  0.00  0.00    -0.313 N 
ATOM     20  H   LIG    1        4.703  -1.551  -1.245  0.00  0.00    +0.152 HD
BRANCH  19  24
ATOM     21  C   LIG    1       10.066  -3.322  -2.011  0.00  0.00    +0.044 C 
ATOM     22  C   LIG    1        9.021  -2.385  -1.483  0.00  0.00    -0.049 A 
ATOM     23  C   LIG    1        7.676  -2.786  -1.443  0.00  0.00    +0.026 A 
ATOM     24  C   LIG    1        6.675  -1.927  -0.974  0.00  0.00    +0.032 A 
ATOM     25  C   LIG    1        7.047  -0.656  -0.519  0.00  0.00    +0.023 A 
ATOM     26  C   LIG    1        8.382  -0.249  -0.541  0.00  0.00    +0.002 A 
ATOM     27  C   LIG    1        9.366  -1.111  -1.023  0.00  0.00    +0.003 A 
ENDBRANCH  19  24
ENDBRANCH   1  19
TORSDOF 7
