REMARK  Name = *****
REMARK                            x       y       z     vdW  Elec       q    Type
REMARK                         _______ _______ _______ _____ _____    ______ ____
ROOT
ATOM      1  C   LIG    1       -1.781   2.811   2.611  0.00  0.00    +0.002 C 
ATOM      2  C   LIG    1       -1.375   1.366   3.084  0.00  0.00    -0.022 C 
ATOM      3  C   LIG    1       -1.157   1.552   4.602  0.00  0.00    +0.021 C 
ATOM      4  C   LIG    1       -0.466   0.405   5.323  0.00  0.00    -0.066 C 
ATOM      5  C   LIG    1        0.264  -0.605   4.469  0.00  0.00    +0.031 C 
ATOM      6  C   LIG    1        0.772  -0.120   3.111  0.00  0.00    +0.005 C 
ATOM      7  C   LIG    1       -0.654   0.235   6.646  0.00  0.00    -0.001 C 
ATOM      8  C   LIG    1       -0.423   2.895   4.695  0.00  0.00    +0.009 C 
ATOM      9  C   LIG    1       -2.415   0.286   2.754  0.00  0.00    +0.012 C 
ATOM     10  C   LIG    1       -0.029   0.981   2.413  0.00  0.00    +0.008 C 
ATOM     11  C   LIG    1       -0.936   3.739   3.520  0.00  0.00    +0.005 C 
ENDROOT
BRANCH   7  12
ATOM     12  C   LIG    1       -0.192  -0.898   7.431  0.00  0.00    -0.001 C 
ATOM     13  C   LIG    1       -0.976  -1.697   8.174  0.00  0.00    -0.065 C 
ATOM     14  C   LIG    1       -2.482  -1.569   8.299  0.00  0.00    +0.062 C 
ATOM     15  C   LIG    1       -3.170  -2.845   7.798  0.00  0.00    +0.121 C 
ATOM     16  C   LIG    1       -2.695  -4.074   8.572  0.00  0.00    +0.063 C 
ATOM     17  C   LIG    1       -1.168  -4.204   8.626  0.00  0.00    +0.121 C 
ATOM     18  C   LIG    1       -0.429  -2.888   8.938  0.00  0.00    +0.062 C 
BRANCH  15  19
ATOM     19  O   LIG    1       -2.957  -3.034   6.399  0.00  0.00    -0.391 OA
ATOM     20  H   LIG    1       -2.021  -2.850   6.203  0.00  0.00    +0.210 HD
ENDBRANCH  15  19
BRANCH  17  21
ATOM     21  O   LIG    1       -0.829  -5.180   9.617  0.00  0.00    -0.391 OA
ATOM     22  H   LIG    1       -1.225  -4.904  10.463  0.00  0.00    +0.210 HD
ENDBRANCH  17  21
ENDBRANCH   7  12
BRANCH   1  24
ATOM     23  C   LIG    1       -3.502   4.568   1.906  0.00  0.00    +0.012 C 
ATOM     24  C   LIG    1       -3.300   3.196   2.577  0.00  0.00    +0.012 C 
BRANCH  24  25
ATOM     25  C   LIG    1       -3.996   3.196   3.925  0.00  0.00    -0.027 C 
ATOM     26  C   LIG    1       -5.057   2.432   4.227  0.00  0.00    -0.025 C 
BRANCH  26  27
ATOM     27  C   LIG    1       -5.703   2.378   5.607  0.00  0.00    +0.039 C 
ATOM     28  C   LIG    1       -4.909   1.392   6.474  0.00  0.00    +0.014 C 
BRANCH  27  29
ATOM     29  C   LIG    1       -7.239   2.061   5.575  0.00  0.00    +0.067 C 
ATOM     30  C   LIG    1       -7.863   2.175   6.974  0.00  0.00    +0.041 C 
ATOM     31  C   LIG    1       -7.581   0.678   5.002  0.00  0.00    +0.041 C 
BRANCH  29  32
ATOM     32  O   LIG    1       -7.910   3.050   4.779  0.00  0.00    -0.389 OA
ATOM     33  H   LIG    1       -7.472   3.087   3.911  0.00  0.00    +0.210 HD
ENDBRANCH  29  32
ENDBRANCH  27  29
ENDBRANCH  26  27
ENDBRANCH  24  25
ENDBRANCH   1  24
TORSDOF 8
