REMARK  Name = *****
REMARK                            x       y       z     vdW  Elec       q    Type
REMARK                         _______ _______ _______ _____ _____    ______ ____
ROOT
ATOM      1  C   LIG    1       13.088  -5.257  -1.360  0.00  0.00    -0.011 A 
ATOM      2  C   LIG    1       13.484  -5.734  -2.654  0.00  0.00    -0.012 A 
ATOM      3  C   LIG    1       12.786  -6.831  -3.202  0.00  0.00    -0.009 A 
ATOM      4  C   LIG    1       13.069  -7.201  -4.551  0.00  0.00    +0.021 A 
ATOM      5  C   LIG    1       14.012  -6.559  -5.357  0.00  0.00    +0.055 A 
ATOM      6  C   LIG    1       14.804  -5.587  -4.764  0.00  0.00    +0.013 A 
ATOM      7  C   LIG    1       11.769  -7.533  -2.475  0.00  0.00    -0.007 A 
ATOM      8  C   LIG    1       11.507  -7.153  -1.131  0.00  0.00    +0.002 A 
ATOM      9  C   LIG    1       10.517  -7.862  -0.405  0.00  0.00    +0.050 A 
ATOM     10  C   LIG    1        9.743  -8.870  -0.983  0.00  0.00    +0.040 A 
ATOM     11  C   LIG    1        9.981  -9.216  -2.299  0.00  0.00    +0.043 A 
ATOM     12 CL   LIG    1        8.996 -10.393  -3.065  0.00  0.00    -0.084 Cl
ATOM     13 CL   LIG    1       10.159  -7.479   1.257  0.00  0.00    -0.083 Cl
ATOM     14  C   LIG    1       10.992  -8.587  -3.001  0.00  0.00    +0.029 A 
ATOM     15  C   LIG    1       14.551  -5.180  -3.429  0.00  0.00    +0.009 A 
ATOM     16  C   LIG    1       12.208  -6.063  -0.623  0.00  0.00    +0.016 A 
ENDROOT
BRANCH   5  17
ATOM     17  C   LIG    1       14.095  -6.918  -6.819  0.00  0.00    +0.417 C 
ATOM     18  F   LIG    1       15.312  -7.395  -7.193  0.00  0.00    -0.166 F 
ATOM     19  F   LIG    1       13.842  -5.847  -7.622  0.00  0.00    -0.166 F 
ATOM     20  F   LIG    1       13.193  -7.870  -7.191  0.00  0.00    -0.166 F 
ENDBRANCH   5  17
BRANCH   1  21
ATOM     21  C   LIG    1       13.524  -3.927  -0.772  0.00  0.00    +0.146 C 
BRANCH  21  22
ATOM     22  O   LIG    1       14.595  -4.148   0.141  0.00  0.00    -0.387 OA
ATOM     23  H   LIG    1       15.172  -3.365   0.092  0.00  0.00    +0.210 HD
ENDBRANCH  21  22
BRANCH  21  24
ATOM     24  C   LIG    1       12.462  -2.973  -0.115  0.00  0.00    +0.051 C 
BRANCH  24  25
ATOM     25  C   LIG    1       11.776  -3.327   1.239  0.00  0.00    +0.087 C 
BRANCH  25  26
ATOM     26  N   LIG    1       10.696  -2.468   1.802  0.00  0.00    -0.302 NA
BRANCH  26  27
ATOM     27  C   LIG    1       10.109  -3.111   3.036  0.00  0.00    +0.084 C 
BRANCH  27  28
ATOM     28  C   LIG    1       10.939  -3.288   4.351  0.00  0.00    +0.015 C 
BRANCH  28  30
ATOM     29  C   LIG    1       12.233  -2.224   6.319  0.00  0.00    +0.004 C 
ATOM     30  C   LIG    1       11.382  -2.009   5.072  0.00  0.00    -0.002 C 
ENDBRANCH  28  30
ENDBRANCH  27  28
ENDBRANCH  26  27
BRANCH  26  31
ATOM     31  C   LIG    1       10.989  -1.046   2.030  0.00  0.00    +0.084 C 
BRANCH  31  32
ATOM     32  C   LIG    1       11.412  -0.149   0.860  0.00  0.00    +0.015 C 
BRANCH  32  33
ATOM     33  C   LIG    1       11.873   1.252   1.274  0.00  0.00    -0.002 C 
ATOM     34  C   LIG    1       10.771   2.170   1.755  0.00  0.00    +0.004 C 
ENDBRANCH  32  33
ENDBRANCH  31  32
ENDBRANCH  26  31
ENDBRANCH  25  26
ENDBRANCH  24  25
ENDBRANCH  21  24
ENDBRANCH   1  21
TORSDOF 12
