REMARK  Name = *****
REMARK                            x       y       z     vdW  Elec       q    Type
REMARK                         _______ _______ _______ _____ _____    ______ ____
ROOT
ATOM      1  C   LIG    1       10.832  -7.577  -0.544  0.00  0.00    +0.024 C 
ATOM      2  C   LIG    1       10.161  -8.938  -0.175  0.00  0.00    +0.027 C 
ATOM      3  C   LIG    1       11.327  -9.930  -0.352  0.00  0.00    +0.121 C 
ATOM      4  C   LIG    1       12.081  -9.451  -1.581  0.00  0.00    +0.063 C 
ATOM      5  C   LIG    1       11.812  -7.953  -1.692  0.00  0.00    +0.120 C 
ENDROOT
BRANCH   5   6
ATOM      6  O   LIG    1       11.220  -7.725  -2.970  0.00  0.00    -0.391 OA
ATOM      7  H   LIG    1       10.817  -6.842  -2.985  0.00  0.00    +0.210 HD
ENDBRANCH   5   6
BRANCH   3   8
ATOM      8  O   LIG    1       10.983 -11.285  -0.556  0.00  0.00    -0.391 OA
ATOM      9  H   LIG    1       10.741 -11.675   0.300  0.00  0.00    +0.210 HD
ENDBRANCH   3   8
BRANCH   1  10
ATOM     10  C   LIG    1       11.621  -6.931   0.636  0.00  0.00    +0.014 C 
BRANCH  10  11
ATOM     11  C   LIG    1       10.762  -6.423   1.807  0.00  0.00    +0.075 C 
BRANCH  11  12
ATOM     12  C   LIG    1       11.588  -5.739   2.900  0.00  0.00    +0.133 C 
ATOM     13  O   LIG    1       12.062  -6.417   3.818  0.00  0.00    -0.297 OA
BRANCH  12  14
ATOM     14  C   LIG    1       11.754  -4.213   2.917  0.00  0.00    +0.074 C 
BRANCH  14  15
ATOM     15  C   LIG    1       11.703  -3.565   1.534  0.00  0.00    +0.007 C 
BRANCH  15  16
ATOM     16  C   LIG    1       11.978  -2.052   1.434  0.00  0.00    +0.000 C 
BRANCH  16  17
ATOM     17  C   LIG    1       13.359  -1.618   1.949  0.00  0.00    -0.000 C 
BRANCH  17  18
ATOM     18  C   LIG    1       13.642  -0.110   1.812  0.00  0.00    -0.000 C 
BRANCH  18  20
ATOM     19  C   LIG    1       15.322   0.092   3.780  0.00  0.00    +0.004 C 
ATOM     20  C   LIG    1       15.047   0.302   2.296  0.00  0.00    -0.003 C 
ENDBRANCH  18  20
ENDBRANCH  17  18
ENDBRANCH  16  17
ENDBRANCH  15  16
ENDBRANCH  14  15
ENDBRANCH  12  14
ENDBRANCH  11  12
ENDBRANCH  10  11
ENDBRANCH   1  10
BRANCH   2  21
ATOM     21  C   LIG    1        8.931  -9.259  -1.048  0.00  0.00    +0.033 C 
BRANCH  21  22
ATOM     22  C   LIG    1        8.265 -10.595  -0.815  0.00  0.00    -0.031 C 
ATOM     23  C   LIG    1        7.697 -11.081   0.303  0.00  0.00    -0.031 C 
BRANCH  23  24
ATOM     24  C   LIG    1        6.893 -12.359   0.258  0.00  0.00    +0.027 C 
BRANCH  24  25
ATOM     25  C   LIG    1        7.392 -13.515   1.130  0.00  0.00    +0.015 C 
BRANCH  25  26
ATOM     26  C   LIG    1        6.499 -14.750   1.020  0.00  0.00    +0.121 C 
BRANCH  26  27
ATOM     27  C   LIG    1        6.476 -15.360  -0.374  0.00  0.00    +0.305 C 
ATOM     28  O   LIG    1        7.271 -16.157  -0.778  0.00  0.00    -0.251 OA
BRANCH  27  29
ATOM     29  O   LIG    1        5.442 -14.876  -1.132  0.00  0.00    -0.481 OA
ATOM     30  H   LIG    1        4.881 -14.227  -0.685  0.00  0.00    +0.295 HD
ENDBRANCH  27  29
ENDBRANCH  26  27
ENDBRANCH  25  26
ENDBRANCH  24  25
ENDBRANCH  23  24
ENDBRANCH  21  22
ENDBRANCH   2  21
TORSDOF 18
