REMARK  Name = *****
REMARK                            x       y       z     vdW  Elec       q    Type
REMARK                         _______ _______ _______ _____ _____    ______ ____
ROOT
ATOM      1  C   LIG    1        5.423  -0.069  -3.175  0.00  0.00    +0.113 A 
ATOM      2  C   LIG    1        5.610  -1.153  -4.037  0.00  0.00    +0.031 A 
ATOM      3  C   LIG    1        6.041  -0.924  -5.345  0.00  0.00    +0.024 A 
ATOM      4  C   LIG    1        6.241   0.379  -5.815  0.00  0.00    +0.025 A 
ATOM      5  C   LIG    1        6.104   1.447  -4.921  0.00  0.00    +0.024 A 
ATOM      6  C   LIG    1        5.673   1.233  -3.609  0.00  0.00    +0.031 A 
ENDROOT
BRANCH   1   7
ATOM      7  S   LIG    1        4.874  -0.380  -1.504  0.00  0.00    +0.102 S 
ATOM      8  O   LIG    1        4.838   0.907  -0.834  0.00  0.00    -0.146 OA
ATOM      9  O   LIG    1        3.677  -1.189  -1.638  0.00  0.00    -0.146 OA
BRANCH   7  12
ATOM     10  C   LIG    1        7.080  -2.523   0.926  0.00  0.00    +0.110 C 
ATOM     11  C   LIG    1        5.998  -1.695   0.308  0.00  0.00    +0.204 C 
ATOM     12  N   LIG    1        6.084  -1.270  -0.900  0.00  0.00    -0.096 NA
BRANCH  11  13
ATOM     13  O   LIG    1        4.956  -1.459   1.122  0.00  0.00    -0.495 OA
ATOM     14  H   LIG    1        5.051  -1.859   2.002  0.00  0.00    +0.293 HD
ENDBRANCH  11  13
ENDBRANCH   7  12
ENDBRANCH   1   7
BRANCH   4  15
ATOM     15  N   LIG    1        6.790   0.591  -7.085  0.00  0.00    -0.358 N 
ATOM     16  H   LIG    1        6.563  -0.138  -7.755  0.00  0.00    +0.142 HD
ATOM     17  H   LIG    1        6.609   1.518  -7.458  0.00  0.00    +0.142 HD
ENDBRANCH   4  15
TORSDOF 4
