REMARK  Name = *****
REMARK                            x       y       z     vdW  Elec       q    Type
REMARK                         _______ _______ _______ _____ _____    ______ ____
ROOT
ATOM      1  C   LIG    1        3.129   1.278   0.618  0.00  0.00    +0.178 C 
ATOM      2  C   LIG    1        3.043   2.546  -0.226  0.00  0.00    +0.179 C 
ATOM      3  C   LIG    1        3.225   3.619   0.833  0.00  0.00    +0.207 C 
ATOM      4  C   LIG    1        2.431   3.021   1.997  0.00  0.00    +0.221 C 
ATOM      5  O   LIG    1        2.617   1.603   1.933  0.00  0.00    -0.336 OA
ENDROOT
BRANCH   2   6
ATOM      6  O   LIG    1        4.065   2.607  -1.216  0.00  0.00    -0.386 OA
ATOM      7  H   LIG    1        4.047   3.518  -1.567  0.00  0.00    +0.210 HD
ENDBRANCH   2   6
BRANCH   3   8
ATOM      8  O   LIG    1        2.734   4.880   0.383  0.00  0.00    -0.384 OA
ATOM      9  H   LIG    1        1.759   4.832   0.485  0.00  0.00    +0.210 HD
ENDBRANCH   3   8
BRANCH   4  10
ATOM     10  O   LIG    1        1.039   3.274   1.802  0.00  0.00    -0.361 OA
ATOM     11  H   LIG    1        0.632   2.424   2.056  0.00  0.00    +0.213 HD
ENDBRANCH   4  10
BRANCH   1  12
ATOM     12  C   LIG    1        2.354   0.102   0.025  0.00  0.00    +0.190 C 
BRANCH  12  13
ATOM     13  O   LIG    1        0.977   0.435  -0.157  0.00  0.00    -0.392 OA
ATOM     14  H   LIG    1        0.544  -0.359  -0.521  0.00  0.00    +0.209 HD
ENDBRANCH  12  13
ENDBRANCH   1  12
BRANCH   4  15
ATOM     15  C   LIG    1        2.858   3.596   3.356  0.00  0.00    +0.223 C 
BRANCH  15  16
ATOM     16  O   LIG    1        2.080   3.051   4.428  0.00  0.00    -0.390 OA
ATOM     17  H   LIG    1        1.149   3.222   4.196  0.00  0.00    +0.210 HD
ENDBRANCH  15  16
ENDBRANCH   4  15
TORSDOF 7
