REMARK  Name = *****
REMARK                            x       y       z     vdW  Elec       q    Type
REMARK                         _______ _______ _______ _____ _____    ______ ____
ROOT
ATOM      1  C   LIG    1        2.442   0.018   0.049  0.00  0.00    +0.025 A 
ATOM      2  C   LIG    1        3.194  -1.160   0.060  0.00  0.00    +0.023 A 
ATOM      3  C   LIG    1        4.575  -1.128  -0.155  0.00  0.00    +0.017 A 
ATOM      4  C   LIG    1        5.222   0.097  -0.326  0.00  0.00    +0.059 A 
ATOM      5  C   LIG    1        4.488   1.287  -0.299  0.00  0.00    +0.017 A 
ATOM      6  C   LIG    1        3.107   1.242  -0.086  0.00  0.00    +0.023 A 
ENDROOT
BRANCH   1   7
ATOM      7  N   LIG    1        1.086  -0.010   0.393  0.00  0.00    -0.358 N 
ATOM      8  H   LIG    1        0.625  -0.888   0.171  0.00  0.00    +0.142 HD
ATOM      9  H   LIG    1        0.558   0.790   0.058  0.00  0.00    +0.142 HD
ENDBRANCH   1   7
BRANCH   4  10
ATOM     10  C   LIG    1        6.686   0.100  -0.541  0.00  0.00    +0.337 C 
ATOM     11  O   LIG    1        7.259  -0.714  -1.244  0.00  0.00    -0.245 OA
BRANCH  10  12
ATOM     12  O   LIG    1        7.319   1.060   0.166  0.00  0.00    -0.477 OA
ATOM     13  H   LIG    1        6.756   1.514   0.822  0.00  0.00    +0.295 HD
ENDBRANCH  10  12
ENDBRANCH   4  10
TORSDOF 3
