REMARK  Name = *****
REMARK                            x       y       z     vdW  Elec       q    Type
REMARK                         _______ _______ _______ _____ _____    ______ ____
ROOT
ATOM      1  C   LIG    1        7.341   6.223   3.017  0.00  0.00    -0.007 C 
ATOM      2  C   LIG    1        6.099   6.890   2.876  0.00  0.00    -0.031 C 
ENDROOT
BRANCH   1   6
ATOM      3  C   LIG    1        7.935   2.262   1.182  0.00  0.00    +0.121 A 
ATOM      4  C   LIG    1        7.414   3.309   0.436  0.00  0.00    +0.046 A 
ATOM      5  C   LIG    1        7.404   4.623   0.962  0.00  0.00    +0.012 A 
ATOM      6  C   LIG    1        7.597   4.868   2.329  0.00  0.00    -0.017 A 
ATOM      7  C   LIG    1        8.110   3.772   3.053  0.00  0.00    +0.012 A 
ATOM      8  C   LIG    1        8.378   2.540   2.460  0.00  0.00    +0.046 A 
BRANCH   3   9
ATOM      9  O   LIG    1        8.001   1.019   0.608  0.00  0.00    -0.490 OA
BRANCH   9  10
ATOM     10  C   LIG    1        8.106  -0.081   1.526  0.00  0.00    +0.257 C 
BRANCH  10  11
ATOM     11  C   LIG    1        9.552  -0.408   1.928  0.00  0.00    +0.197 C 
BRANCH  11  12
ATOM     12  O   LIG    1        9.578  -1.466   2.882  0.00  0.00    -0.392 OA
ATOM     13  H   LIG    1        9.120  -1.155   3.683  0.00  0.00    +0.209 HD
ENDBRANCH  11  12
ENDBRANCH  10  11
ENDBRANCH   9  10
ENDBRANCH   3   9
ENDBRANCH   1   6
BRANCH   1  14
ATOM     14  C   LIG    1        8.534   6.723   3.943  0.00  0.00    -0.017 A 
ATOM     15  C   LIG    1        8.572   7.857   4.727  0.00  0.00    +0.008 A 
ATOM     16  C   LIG    1        9.583   8.217   5.627  0.00  0.00    +0.001 A 
ATOM     17  C   LIG    1       10.729   7.418   5.701  0.00  0.00    +0.000 A 
ATOM     18  C   LIG    1       10.803   6.325   4.900  0.00  0.00    +0.001 A 
ATOM     19  C   LIG    1        9.759   5.985   4.017  0.00  0.00    +0.008 A 
ENDBRANCH   1  14
BRANCH   2  20
ATOM     20  C   LIG    1        4.854   6.509   2.015  0.00  0.00    -0.021 A 
ATOM     21  C   LIG    1        4.669   5.374   1.224  0.00  0.00    +0.008 A 
ATOM     22  C   LIG    1        3.664   5.255   0.245  0.00  0.00    +0.001 A 
ATOM     23  C   LIG    1        2.698   6.214   0.110  0.00  0.00    +0.000 A 
ATOM     24  C   LIG    1        2.695   7.255   1.022  0.00  0.00    +0.001 A 
ATOM     25  C   LIG    1        3.718   7.320   1.976  0.00  0.00    +0.008 A 
ENDBRANCH   2  20
BRANCH   2  26
ATOM     26  C   LIG    1        5.694   8.180   3.686  0.00  0.00    +0.052 C 
BRANCH  26  27
ATOM     27  C   LIG    1        5.763   9.639   3.114  0.00  0.00    +0.113 C 
ATOM     28 CL   LIG    1        4.366  10.316   2.217  0.00  0.00    -0.125 Cl
ENDBRANCH  26  27
ENDBRANCH   2  26
TORSDOF 9
