REMARK  Name = *****
REMARK                            x       y       z     vdW  Elec       q    Type
REMARK                         _______ _______ _______ _____ _____    ______ ____
ROOT
ATOM      1  C   LIG    1        8.840  -1.435  -5.581  0.00  0.00    -0.017 C 
ATOM      2  C   LIG    1        9.707  -1.625  -6.596  0.00  0.00    -0.013 C 
ATOM      3  C   LIG    1       10.945  -2.397  -6.285  0.00  0.00    -0.003 A 
ATOM      4  C   LIG    1       11.376  -3.389  -7.183  0.00  0.00    +0.021 A 
ATOM      5  C   LIG    1       12.522  -4.140  -6.888  0.00  0.00    +0.016 A 
ATOM      6  C   LIG    1       13.225  -3.930  -5.698  0.00  0.00    +0.013 A 
ATOM      7  C   LIG    1       12.801  -2.956  -4.786  0.00  0.00    +0.056 A 
ATOM      8  S   LIG    1       10.462  -3.797  -8.670  0.00  0.00    -0.088 S 
ATOM      9  C   LIG    1        9.612  -2.256  -9.007  0.00  0.00    +0.021 A 
ATOM     10  C   LIG    1        9.202  -2.015 -10.327  0.00  0.00    +0.015 A 
ATOM     11  C   LIG    1        8.616  -0.798 -10.672  0.00  0.00    +0.001 A 
ATOM     12  C   LIG    1        8.465   0.195  -9.710  0.00  0.00    +0.001 A 
ATOM     13  C   LIG    1        8.846  -0.049  -8.386  0.00  0.00    +0.009 A 
ATOM     14  C   LIG    1       11.682  -2.171  -5.108  0.00  0.00    +0.022 A 
ATOM     15  C   LIG    1        9.368  -1.296  -8.009  0.00  0.00    -0.004 A 
ENDROOT
BRANCH   7  16
ATOM     16  C   LIG    1       13.489  -2.764  -3.457  0.00  0.00    +0.417 C 
ATOM     17  F   LIG    1       12.644  -2.957  -2.406  0.00  0.00    -0.166 F 
ATOM     18  F   LIG    1       13.994  -1.509  -3.303  0.00  0.00    -0.166 F 
ATOM     19  F   LIG    1       14.533  -3.616  -3.254  0.00  0.00    -0.166 F 
ENDBRANCH   7  16
BRANCH   1  20
ATOM     20  C   LIG    1        7.444  -0.862  -5.610  0.00  0.00    +0.043 C 
BRANCH  20  21
ATOM     21  C   LIG    1        6.492  -1.467  -4.542  0.00  0.00    +0.088 C 
BRANCH  21  25
ATOM     22  N   LIG    1        4.877   0.309  -1.610  0.00  0.00    -0.298 NA
ATOM     23  C   LIG    1        5.886   0.877  -2.523  0.00  0.00    +0.100 C 
ATOM     24  C   LIG    1        7.167   0.032  -2.688  0.00  0.00    +0.100 C 
ATOM     25  N   LIG    1        6.926  -1.353  -3.132  0.00  0.00    -0.300 NA
ATOM     26  C   LIG    1        5.934  -1.963  -2.215  0.00  0.00    +0.100 C 
ATOM     27  C   LIG    1        4.655  -1.117  -1.951  0.00  0.00    +0.100 C 
BRANCH  22  28
ATOM     28  C   LIG    1        5.205   0.465  -0.180  0.00  0.00    +0.112 C 
BRANCH  28  29
ATOM     29  C   LIG    1        5.439   1.916   0.279  0.00  0.00    +0.171 C 
BRANCH  29  30
ATOM     30  O   LIG    1        5.704   1.949   1.679  0.00  0.00    -0.394 OA
ATOM     31  H   LIG    1        6.041   2.840   1.877  0.00  0.00    +0.209 HD
ENDBRANCH  29  30
ENDBRANCH  28  29
ENDBRANCH  22  28
ENDBRANCH  21  25
ENDBRANCH  20  21
ENDBRANCH   1  20
TORSDOF 7
