REMARK  Name = *****
REMARK                            x       y       z     vdW  Elec       q    Type
REMARK                         _______ _______ _______ _____ _____    ______ ____
ROOT
ATOM      1  N   LIG    1        7.469  -1.233  -1.026  0.00  0.00    -0.075 NA
ATOM      2  C   LIG    1        8.632  -1.690  -0.725  0.00  0.00    +0.313 C 
ENDROOT
BRANCH   1   3
ATOM      3  S   LIG    1        6.940   0.190  -0.519  0.00  0.00    +0.103 S 
ATOM      4  O   LIG    1        7.434   0.414   0.829  0.00  0.00    -0.146 OA
ATOM      5  O   LIG    1        7.183   1.194  -1.539  0.00  0.00    -0.146 OA
BRANCH   3  10
ATOM      6  C   LIG    1        0.894  -0.265  -0.322  0.00  0.00    +0.044 C 
ATOM      7  C   LIG    1        2.395  -0.248  -0.347  0.00  0.00    -0.050 A 
ATOM      8  C   LIG    1        3.079  -0.421  -1.559  0.00  0.00    +0.005 A 
ATOM      9  C   LIG    1        4.471  -0.321  -1.605  0.00  0.00    +0.029 A 
ATOM     10  C   LIG    1        5.178  -0.031  -0.434  0.00  0.00    +0.113 A 
ATOM     11  C   LIG    1        4.513   0.120   0.783  0.00  0.00    +0.029 A 
ATOM     12  C   LIG    1        3.122   0.015   0.822  0.00  0.00    +0.005 A 
ENDBRANCH   3  10
ENDBRANCH   1   3
BRANCH   2  13
ATOM     13  N   LIG    1        9.161  -2.888  -1.136  0.00  0.00    -0.231 N 
ATOM     14  H   LIG    1       10.041  -3.113  -0.679  0.00  0.00    +0.171 HD
BRANCH  13  15
ATOM     15  N   LIG    1        8.248  -3.956  -1.387  0.00  0.00    -0.226 NA
ATOM     16  C   LIG    1        8.767  -4.724  -2.523  0.00  0.00    +0.105 C 
ATOM     17  C   LIG    1        7.918  -5.924  -2.956  0.00  0.00    +0.017 C 
ATOM     18  C   LIG    1        8.030  -7.105  -1.999  0.00  0.00    +0.001 C 
ATOM     19  C   LIG    1        7.108  -7.034  -0.789  0.00  0.00    +0.001 C 
ATOM     20  C   LIG    1        6.844  -5.649  -0.207  0.00  0.00    +0.017 C 
ATOM     21  C   LIG    1        8.060  -4.724  -0.147  0.00  0.00    +0.105 C 
ENDBRANCH  13  15
ENDBRANCH   2  13
BRANCH   2  22
ATOM     22  O   LIG    1        9.524  -1.067   0.074  0.00  0.00    -0.480 OA
ATOM     23  H   LIG    1        9.143  -0.283   0.515  0.00  0.00    +0.295 HD
ENDBRANCH   2  22
TORSDOF 5
