REMARK  Name = *****
REMARK                            x       y       z     vdW  Elec       q    Type
REMARK                         _______ _______ _______ _____ _____    ______ ____
ROOT
ATOM      1  C   LIG    1       -2.850  -1.128  -0.665  0.00  0.00    +0.015 C 
ATOM      2  C   LIG    1       -1.984  -0.004   0.741  0.00  0.00    +0.053 C 
ATOM      3  C   LIG    1       -2.496   0.694   2.057  0.00  0.00    +0.137 C 
ATOM      4  O   LIG    1       -3.666   0.803   2.413  0.00  0.00    -0.297 OA
ATOM      5  C   LIG    1       -1.498   1.583   2.686  0.00  0.00    +0.078 C 
ATOM      6  C   LIG    1       -0.300   1.220   1.863  0.00  0.00    +0.002 C 
ATOM      7  C   LIG    1        0.082  -0.370   2.470  0.00  0.00    +0.005 C 
ATOM      8  C   LIG    1       -0.543  -1.716   1.741  0.00  0.00    +0.004 C 
ATOM      9  C   LIG    1       -1.186  -1.836   0.109  0.00  0.00    -0.004 C 
ATOM     10  C   LIG    1       -1.362   0.014  -1.035  0.00  0.00    -0.001 C 
ATOM     11  C   LIG    1       -3.209   0.739  -1.258  0.00  0.00    +0.005 C 
ATOM     12  C   LIG    1       -4.638  -0.098  -0.200  0.00  0.00    +0.010 C 
ATOM     13  C   LIG    1       -4.528  -1.935   0.457  0.00  0.00    -0.003 C 
ATOM     14  C   LIG    1       -5.424  -2.775  -0.478  0.00  0.00    +0.014 C 
ATOM     15  C   LIG    1       -4.361  -1.996   2.035  0.00  0.00    +0.121 C 
ATOM     16  C   LIG    1       -4.441  -3.440   2.393  0.00  0.00    +0.032 C 
ATOM     17  C   LIG    1       -3.394  -4.065   1.418  0.00  0.00    +0.007 C 
ATOM     18  C   LIG    1       -2.848  -2.950   0.339  0.00  0.00    +0.001 C 
ATOM     19  C   LIG    1       -0.588   1.326   0.088  0.00  0.00    -0.025 C 
ATOM     20  C   LIG    1       -0.575   2.672  -0.534  0.00  0.00    +0.012 C 
ATOM     21  C   LIG    1       -0.057   0.067   0.138  0.00  0.00    +0.018 C 
ENDROOT
BRANCH  15  22
ATOM     22  O   LIG    1       -5.097  -1.150   2.866  0.00  0.00    -0.391 OA
ATOM     23  H   LIG    1       -4.616  -0.285   2.836  0.00  0.00    +0.210 HD
ENDBRANCH  15  22
TORSDOF 1
