REMARK  Name = *****
REMARK                            x       y       z     vdW  Elec       q    Type
REMARK                         _______ _______ _______ _____ _____    ______ ____
ROOT
ATOM      1  C   LIG    1        6.755  -0.420   2.734  0.00  0.00    -0.013 C 
ATOM      2  C   LIG    1        7.896  -0.565   3.452  0.00  0.00    -0.014 C 
ATOM      3  C   LIG    1        7.774  -1.047   4.853  0.00  0.00    -0.014 A 
ATOM      4  C   LIG    1        8.489  -2.163   5.340  0.00  0.00    -0.039 A 
ATOM      5  C   LIG    1        8.317  -2.534   6.692  0.00  0.00    +0.004 A 
ATOM      6  C   LIG    1        7.458  -1.835   7.540  0.00  0.00    +0.000 A 
ATOM      7  C   LIG    1        6.764  -0.734   7.060  0.00  0.00    +0.001 A 
ATOM      8  C   LIG    1        9.487  -2.989   4.547  0.00  0.00    +0.040 C 
ATOM      9  C   LIG    1        9.471  -2.925   3.015  0.00  0.00    +0.040 C 
ATOM     10  C   LIG    1        9.950  -1.589   2.502  0.00  0.00    -0.039 A 
ATOM     11  C   LIG    1       11.150  -1.481   1.785  0.00  0.00    +0.004 A 
ATOM     12  C   LIG    1       11.606  -0.233   1.357  0.00  0.00    +0.000 A 
ATOM     13  C   LIG    1       10.878   0.918   1.655  0.00  0.00    +0.001 A 
ATOM     14  C   LIG    1        9.681   0.820   2.363  0.00  0.00    +0.009 A 
ATOM     15  C   LIG    1        6.927  -0.340   5.732  0.00  0.00    +0.009 A 
ATOM     16  C   LIG    1        9.199  -0.432   2.767  0.00  0.00    -0.014 A 
ENDROOT
BRANCH   1  17
ATOM     17  C   LIG    1        6.628  -0.056   1.275  0.00  0.00    +0.078 C 
BRANCH  17  18
ATOM     18  C   LIG    1        6.627  -1.302   0.390  0.00  0.00    +0.134 C 
BRANCH  18  20
ATOM     19  C   LIG    1        6.507  -2.323  -1.846  0.00  0.00    +0.189 C 
ATOM     20  N   LIG    1        6.511  -1.014  -1.101  0.00  0.00    +0.213 N 
ATOM     21  O   LIG    1        5.338  -0.355  -1.364  0.00  0.00    -0.776 OA
ATOM     22  C   LIG    1        7.672  -0.188  -1.585  0.00  0.00    +0.189 C 
ENDBRANCH  18  20
ENDBRANCH  17  18
ENDBRANCH   1  17
TORSDOF 3
