REMARK  Name = *****
REMARK                            x       y       z     vdW  Elec       q    Type
REMARK                         _______ _______ _______ _____ _____    ______ ____
ROOT
ATOM      1  C   LIG    1        2.410  -0.404   1.485  0.00  0.00    +0.123 C 
ATOM      2  N   LIG    1        2.809  -0.742   0.298  0.00  0.00    -0.178 NA
ATOM      3  C   LIG    1        4.140  -0.637  -0.032  0.00  0.00    +0.352 C 
ATOM      4  O   LIG    1        4.547  -1.004  -1.132  0.00  0.00    -0.244 OA
ATOM      5  N   LIG    1        5.021  -0.120   0.918  0.00  0.00    -0.272 N 
ATOM      6  C   LIG    1        4.599   0.202   2.190  0.00  0.00    +0.096 C 
ATOM      7  C   LIG    1        3.318   0.089   2.537  0.00  0.00    +0.061 C 
ENDROOT
BRANCH   5   8
ATOM      8  C   LIG    1        6.430  -0.029   0.549  0.00  0.00    +0.235 C 
ATOM      9  O   LIG    1        7.055   1.013   1.312  0.00  0.00    -0.340 OA
ATOM     10  C   LIG    1        8.478   0.876   1.242  0.00  0.00    +0.203 C 
ATOM     11  S   LIG    1        8.908  -0.839   0.829  0.00  0.00    -0.123 S 
ATOM     12  C   LIG    1        7.177  -1.339   0.809  0.00  0.00    +0.126 C 
BRANCH  10  13
ATOM     13  C   LIG    1        9.071   1.288   2.599  0.00  0.00    +0.198 C 
BRANCH  13  14
ATOM     14  O   LIG    1        8.682   0.397   3.652  0.00  0.00    -0.392 OA
ATOM     15  H   LIG    1        8.917  -0.500   3.348  0.00  0.00    +0.209 HD
ENDBRANCH  13  14
ENDBRANCH  10  13
ENDBRANCH   5   8
BRANCH   1  16
ATOM     16  N   LIG    1        1.075  -0.531   1.752  0.00  0.00    -0.343 N 
ATOM     17  H   LIG    1        0.591  -1.081   1.048  0.00  0.00    +0.144 HD
ATOM     18  H   LIG    1        0.811  -0.764   2.700  0.00  0.00    +0.144 HD
ENDBRANCH   1  16
TORSDOF 4
