REMARK  Name = *****
REMARK                            x       y       z     vdW  Elec       q    Type
REMARK                         _______ _______ _______ _____ _____    ______ ____
ROOT
ATOM      1  C   LIG    1        3.855   0.260  -0.161  0.00  0.00    +0.085 A 
ATOM      2  C   LIG    1        4.755   1.304   0.017  0.00  0.00    +0.088 A 
ATOM      3  S   LIG    1        6.313   0.637   0.348  0.00  0.00    -0.066 S 
ATOM      4  C   LIG    1        5.787  -0.983   0.261  0.00  0.00    +0.103 A 
ATOM      5  C   LIG    1        4.417  -1.060   0.043  0.00  0.00    +0.004 A 
ENDROOT
BRANCH   1   7
ATOM      6  N   LIG    1        1.363   0.503  -0.843  0.00  0.00    -0.191 NA
ATOM      7  C   LIG    1        2.493   0.441  -0.558  0.00  0.00    +0.102 C 
ENDBRANCH   1   7
BRANCH   4   8
ATOM      8  C   LIG    1        6.746  -2.064   0.459  0.00  0.00    +0.344 C 
ATOM      9  O   LIG    1        6.479  -3.158   0.934  0.00  0.00    -0.244 OA
BRANCH   8  10
ATOM     10  O   LIG    1        8.007  -1.741   0.066  0.00  0.00    -0.477 OA
ATOM     11  H   LIG    1        8.080  -0.839  -0.305  0.00  0.00    +0.295 HD
ENDBRANCH   8  10
ENDBRANCH   4   8
BRANCH   2  12
ATOM     12  N   LIG    1        4.536   2.667  -0.090  0.00  0.00    -0.302 N 
BRANCH  12  13
ATOM     13  C   LIG    1        5.676   3.587  -0.385  0.00  0.00    +0.226 C 
BRANCH  13  14
ATOM     14  C   LIG    1        6.268   3.312  -1.770  0.00  0.00    +0.322 C 
ATOM     15  O   LIG    1        7.433   3.005  -1.976  0.00  0.00    -0.249 OA
BRANCH  14  16
ATOM     16  O   LIG    1        5.361   3.436  -2.773  0.00  0.00    -0.479 OA
ATOM     17  H   LIG    1        4.467   3.651  -2.442  0.00  0.00    +0.295 HD
ENDBRANCH  14  16
ENDBRANCH  13  14
ENDBRANCH  12  13
BRANCH  12  18
ATOM     18  C   LIG    1        3.422   3.306   0.649  0.00  0.00    +0.226 C 
BRANCH  18  19
ATOM     19  C   LIG    1        3.772   3.658   2.091  0.00  0.00    +0.322 C 
ATOM     20  O   LIG    1        4.253   4.731   2.425  0.00  0.00    -0.249 OA
BRANCH  19  21
ATOM     21  O   LIG    1        3.532   2.665   2.979  0.00  0.00    -0.479 OA
ATOM     22  H   LIG    1        3.196   1.838   2.585  0.00  0.00    +0.295 HD
ENDBRANCH  19  21
ENDBRANCH  18  19
ENDBRANCH  12  18
ENDBRANCH   2  12
BRANCH   5  23
ATOM     23  C   LIG    1        3.609  -2.336  -0.073  0.00  0.00    +0.158 C 
BRANCH  23  24
ATOM     24  C   LIG    1        3.577  -2.816  -1.509  0.00  0.00    +0.309 C 
ATOM     25  O   LIG    1        4.560  -3.244  -2.095  0.00  0.00    -0.251 OA
BRANCH  24  26
ATOM     26  O   LIG    1        2.389  -2.655  -2.133  0.00  0.00    -0.480 OA
ATOM     27  H   LIG    1        1.666  -2.237  -1.625  0.00  0.00    +0.295 HD
ENDBRANCH  24  26
ENDBRANCH  23  24
ENDBRANCH   5  23
TORSDOF 13
