REMARK  Name = *****
REMARK                            x       y       z     vdW  Elec       q    Type
REMARK                         _______ _______ _______ _____ _____    ______ ____
ROOT
ATOM      1  C   LIG    1       10.617  -2.445  -1.227  0.00  0.00    -0.046 A 
ATOM      2  C   LIG    1       11.281  -3.633  -1.581  0.00  0.00    +0.005 A 
ATOM      3  C   LIG    1       12.613  -3.629  -1.967  0.00  0.00    +0.029 A 
ATOM      4  C   LIG    1       13.301  -2.425  -2.024  0.00  0.00    +0.113 A 
ATOM      5  C   LIG    1       12.665  -1.220  -1.704  0.00  0.00    +0.029 A 
ATOM      6  C   LIG    1       11.323  -1.233  -1.308  0.00  0.00    +0.005 A 
ENDROOT
BRANCH   4   7
ATOM      7  S   LIG    1       15.018  -2.436  -2.484  0.00  0.00    +0.103 S 
ATOM      8  O   LIG    1       15.533  -3.759  -2.168  0.00  0.00    -0.146 OA
ATOM      9  O   LIG    1       15.628  -1.273  -1.885  0.00  0.00    -0.146 OA
BRANCH   7  10
ATOM     10  N   LIG    1       14.939  -2.274  -4.079  0.00  0.00    -0.076 NA
ATOM     11  C   LIG    1       15.478  -1.297  -4.712  0.00  0.00    +0.299 C 
BRANCH  11  12
ATOM     12  N   LIG    1       15.378  -1.071  -6.045  0.00  0.00    -0.295 N 
ATOM     13  H   LIG    1       15.936  -0.280  -6.348  0.00  0.00    +0.151 HD
BRANCH  12  14
ATOM     14  C   LIG    1       15.210  -2.144  -7.015  0.00  0.00    +0.075 C 
ATOM     15  C   LIG    1       14.348  -1.673  -8.192  0.00  0.00    +0.022 C 
ATOM     16  C   LIG    1       15.050  -0.624  -9.052  0.00  0.00    +0.002 C 
ATOM     17  C   LIG    1       16.406  -1.123  -9.541  0.00  0.00    +0.000 C 
ATOM     18  C   LIG    1       17.290  -1.598  -8.391  0.00  0.00    +0.002 C 
ATOM     19  C   LIG    1       16.581  -2.626  -7.506  0.00  0.00    +0.022 C 
ENDBRANCH  12  14
ENDBRANCH  11  12
BRANCH  11  20
ATOM     20  O   LIG    1       16.228  -0.329  -4.160  0.00  0.00    -0.481 OA
ATOM     21  H   LIG    1       16.335  -0.452  -3.194  0.00  0.00    +0.295 HD
ENDBRANCH  11  20
ENDBRANCH   7  10
ENDBRANCH   4   7
BRANCH   1  22
ATOM     22  C   LIG    1        9.177  -2.452  -0.744  0.00  0.00    +0.054 C 
BRANCH  22  23
ATOM     23  C   LIG    1        8.546  -3.852  -0.712  0.00  0.00    +0.109 C 
BRANCH  23  25
ATOM     24  C   LIG    1        6.094  -3.625  -0.954  0.00  0.00    +0.264 C 
ATOM     25  N   LIG    1        7.205  -3.882  -0.180  0.00  0.00    -0.310 N 
ATOM     26  H   LIG    1        7.045  -4.196   0.774  0.00  0.00    +0.149 HD
ATOM     27  O   LIG    1        6.149  -3.256  -2.123  0.00  0.00    -0.269 OA
BRANCH  24  32
ATOM     28  C   LIG    1        1.094  -4.921   1.401  0.00  0.00    +0.067 C 
ATOM     29  C   LIG    1        2.402  -4.520   0.793  0.00  0.00    +0.056 A 
ATOM     30  N   LIG    1        2.392  -4.035  -0.474  0.00  0.00    -0.256 NA
ATOM     31  C   LIG    1        3.606  -3.716  -0.996  0.00  0.00    +0.144 A 
ATOM     32  C   LIG    1        4.784  -3.863  -0.281  0.00  0.00    +0.143 A 
ATOM     33  N   LIG    1        4.806  -4.308   1.009  0.00  0.00    -0.247 NA
ATOM     34  C   LIG    1        3.589  -4.627   1.517  0.00  0.00    +0.134 A 
ENDBRANCH  24  32
ENDBRANCH  23  25
ENDBRANCH  22  23
ENDBRANCH   1  22
TORSDOF 9
