REMARK  Name = *****
REMARK                            x       y       z     vdW  Elec       q    Type
REMARK                         _______ _______ _______ _____ _____    ______ ____
ROOT
ATOM      1  C   LIG    1        7.715   3.040   0.816  0.00  0.00    +0.064 C 
ATOM      2  C   LIG    1        7.626   1.579   1.343  0.00  0.00    +0.117 C 
ATOM      3  C   LIG    1        6.370   1.369   2.240  0.00  0.00    +0.062 C 
ATOM      4  C   LIG    1        6.351   2.313   3.456  0.00  0.00    +0.151 C 
ATOM      5  C   LIG    1        6.891   3.701   3.182  0.00  0.00    -0.011 A 
ATOM      6  C   LIG    1        6.728   4.663   4.202  0.00  0.00    +0.056 A 
ATOM      7  C   LIG    1        6.986   5.981   3.912  0.00  0.00    +0.167 A 
ATOM      8  O   LIG    1        6.835   7.029   4.764  0.00  0.00    -0.453 OA
ATOM      9  C   LIG    1        7.182   8.130   3.899  0.00  0.00    +0.466 C 
ATOM     10  O   LIG    1        7.512   7.720   2.555  0.00  0.00    -0.453 OA
ATOM     11  C   LIG    1        7.382   6.370   2.660  0.00  0.00    +0.167 A 
ATOM     12  C   LIG    1        7.603   5.455   1.650  0.00  0.00    +0.054 A 
ATOM     13  C   LIG    1        7.428   4.079   1.917  0.00  0.00    -0.030 A 
ENDROOT
BRANCH   1  18
ATOM     14  C   LIG    1       11.210   4.217  -0.409  0.00  0.00    +0.165 A 
ATOM     15  C   LIG    1       11.215   3.809  -1.756  0.00  0.00    +0.203 A 
ATOM     16  C   LIG    1       10.098   3.096  -2.245  0.00  0.00    +0.165 A 
ATOM     17  C   LIG    1        8.991   2.850  -1.399  0.00  0.00    +0.053 A 
ATOM     18  C   LIG    1        8.962   3.281  -0.060  0.00  0.00    -0.032 A 
ATOM     19  C   LIG    1       10.101   3.945   0.417  0.00  0.00    +0.053 A 
BRANCH  14  21
ATOM     20  C   LIG    1       12.611   4.782   1.432  0.00  0.00    +0.277 C 
ATOM     21  O   LIG    1       12.288   4.927   0.056  0.00  0.00    -0.491 OA
ENDBRANCH  14  21
BRANCH  15  22
ATOM     22  O   LIG    1       12.255   3.985  -2.632  0.00  0.00    -0.488 OA
ATOM     23  C   LIG    1       13.282   4.933  -2.402  0.00  0.00    +0.277 C 
ENDBRANCH  15  22
BRANCH  16  24
ATOM     24  O   LIG    1        9.921   2.583  -3.513  0.00  0.00    -0.491 OA
ATOM     25  C   LIG    1       10.980   2.721  -4.457  0.00  0.00    +0.277 C 
ENDBRANCH  16  24
ENDBRANCH   1  18
BRANCH   2  26
ATOM     26  C   LIG    1        8.881   1.141   2.074  0.00  0.00    +0.309 C 
ATOM     27  O   LIG    1        9.185   1.347   3.258  0.00  0.00    -0.251 OA
BRANCH  26  28
ATOM     28  O   LIG    1        9.661   0.358   1.297  0.00  0.00    -0.480 OA
ATOM     29  H   LIG    1       10.398   0.075   1.883  0.00  0.00    +0.295 HD
ENDBRANCH  26  28
ENDBRANCH   2  26
BRANCH   4  30
ATOM     30  O   LIG    1        7.005   1.729   4.577  0.00  0.00    -0.387 OA
ATOM     31  H   LIG    1        7.955   1.659   4.366  0.00  0.00    +0.210 HD
ENDBRANCH   4  30
BRANCH   3  32
ATOM     32  C   LIG    1        5.058   1.546   1.456  0.00  0.00    +0.163 C 
BRANCH  32  33
ATOM     33  O   LIG    1        5.047   0.691   0.323  0.00  0.00    -0.395 OA
ATOM     34  H   LIG    1        4.166   0.765  -0.085  0.00  0.00    +0.209 HD
ENDBRANCH  32  33
ENDBRANCH   3  32
TORSDOF 9
