REMARK  Name = *****
REMARK                            x       y       z     vdW  Elec       q    Type
REMARK                         _______ _______ _______ _____ _____    ______ ____
ROOT
ATOM      1  C   LIG    1        9.850 -15.215  -1.351  0.00  0.00    +0.201 C 
ATOM      2  C   LIG    1       11.371 -15.179  -1.656  0.00  0.00    +0.042 C 
ATOM      3  C   LIG    1       12.191 -14.816  -0.403  0.00  0.00    +0.025 C 
ATOM      4  C   LIG    1       11.955 -16.477  -2.230  0.00  0.00    +0.025 C 
ATOM      5  S   LIG    1       11.634 -13.800  -2.880  0.00  0.00    -0.127 S 
ATOM      6  C   LIG    1        9.942 -13.098  -2.672  0.00  0.00    +0.165 C 
ATOM      7  C   LIG    1        9.792 -11.841  -1.777  0.00  0.00    +0.190 C 
ATOM      8  C   LIG    1        9.496 -12.871  -0.661  0.00  0.00    +0.240 C 
ATOM      9  O   LIG    1        9.547 -12.923   0.553  0.00  0.00    -0.273 OA
ATOM     10  N   LIG    1        9.337 -13.871  -1.575  0.00  0.00    -0.271 N 
ENDROOT
BRANCH   7  11
ATOM     11  N   LIG    1       10.990 -10.976  -1.606  0.00  0.00    -0.300 N 
ATOM     12  H   LIG    1       11.913 -11.393  -1.546  0.00  0.00    +0.150 HD
ATOM     13  C   LIG    1       10.866  -9.601  -1.534  0.00  0.00    +0.235 C 
ATOM     14  O   LIG    1        9.771  -9.038  -1.597  0.00  0.00    -0.274 OA
BRANCH  13  15
ATOM     15  C   LIG    1       12.199  -8.819  -1.424  0.00  0.00    +0.168 C 
BRANCH  15  16
ATOM     16  C   LIG    1       12.740  -8.468  -2.799  0.00  0.00    -0.022 A 
ATOM     17  C   LIG    1       12.025  -7.639  -3.682  0.00  0.00    +0.006 A 
ATOM     18  C   LIG    1       12.541  -7.328  -4.942  0.00  0.00    +0.000 A 
ATOM     19  C   LIG    1       13.774  -7.841  -5.337  0.00  0.00    +0.000 A 
ATOM     20  C   LIG    1       14.493  -8.664  -4.474  0.00  0.00    +0.000 A 
ATOM     21  C   LIG    1       13.982  -8.975  -3.213  0.00  0.00    +0.006 A 
ENDBRANCH  15  16
BRANCH  15  22
ATOM     22  N   LIG    1       11.995  -7.612  -0.601  0.00  0.00    -0.316 NA
ATOM     23  H   LIG    1       12.754  -6.957  -0.780  0.00  0.00    +0.119 HD
ATOM     24  H   LIG    1       11.139  -7.158  -0.930  0.00  0.00    +0.119 HD
ENDBRANCH  15  22
ENDBRANCH  13  15
ENDBRANCH   7  11
BRANCH   1  25
ATOM     25  C   LIG    1        9.027 -16.149  -2.251  0.00  0.00    +0.332 C 
ATOM     26  O   LIG    1        8.551 -15.847  -3.338  0.00  0.00    -0.249 OA
BRANCH  25  27
ATOM     27  O   LIG    1        8.947 -17.384  -1.693  0.00  0.00    -0.423 OA
BRANCH  27  28
ATOM     28  C   LIG    1        8.625 -18.463  -2.591  0.00  0.00    +0.370 C 
ATOM     29  C   LIG    1        7.318 -19.106  -2.145  0.00  0.00    +0.100 C 
BRANCH  28  30
ATOM     30  O   LIG    1        9.736 -19.355  -2.488  0.00  0.00    -0.394 OA
BRANCH  30  31
ATOM     31  C   LIG    1        9.841 -20.290  -3.450  0.00  0.00    +0.513 C 
ATOM     32  O   LIG    1        8.947 -20.674  -4.185  0.00  0.00    -0.203 OA
BRANCH  31  33
ATOM     33  O   LIG    1       11.139 -20.673  -3.494  0.00  0.00    -0.434 OA
BRANCH  33  35
ATOM     34  C   LIG    1       11.580 -21.046  -5.863  0.00  0.00    +0.048 C 
ATOM     35  C   LIG    1       11.464 -21.657  -4.478  0.00  0.00    +0.232 C 
ENDBRANCH  33  35
ENDBRANCH  31  33
ENDBRANCH  30  31
ENDBRANCH  28  30
ENDBRANCH  27  28
ENDBRANCH  25  27
ENDBRANCH   1  25
TORSDOF 11
