REMARK  Name = *****
REMARK                            x       y       z     vdW  Elec       q    Type
REMARK                         _______ _______ _______ _____ _____    ______ ____
ROOT
ATOM      1  C   LIG    1        8.912   3.418  -2.244  0.00  0.00    +0.044 C 
ATOM      2  C   LIG    1        8.428   2.562  -3.440  0.00  0.00    +0.122 C 
ATOM      3  C   LIG    1        7.557   3.514  -4.276  0.00  0.00    +0.036 C 
ATOM      4  C   LIG    1        6.993   4.539  -3.283  0.00  0.00    -0.001 C 
ATOM      5  C   LIG    1        7.445   5.986  -3.508  0.00  0.00    +0.034 C 
ATOM      6  C   LIG    1        7.684   6.515  -2.118  0.00  0.00    -0.073 C 
ATOM      7  C   LIG    1        7.985   7.793  -1.845  0.00  0.00    -0.027 C 
ATOM      8  C   LIG    1        7.579   5.418  -1.099  0.00  0.00    +0.035 C 
ATOM      9  C   LIG    1        7.577   4.147  -1.922  0.00  0.00    +0.006 C 
ENDROOT
BRANCH   1  11
ATOM     10  C   LIG    1       11.179   3.821  -3.329  0.00  0.00    +0.000 C 
ATOM     11  C   LIG    1       10.146   4.255  -2.576  0.00  0.00    -0.022 C 
BRANCH  10  12
ATOM     12  C   LIG    1       12.435   4.569  -3.718  0.00  0.00    +0.141 C 
BRANCH  12  13
ATOM     13  C   LIG    1       12.941   4.179  -5.136  0.00  0.00    +0.030 C 
ATOM     14  C   LIG    1       11.929   4.551  -6.234  0.00  0.00    +0.011 C 
BRANCH  13  15
ATOM     15  C   LIG    1       14.284   4.852  -5.474  0.00  0.00    +0.095 C 
BRANCH  15  18
ATOM     16  C   LIG    1       17.400   3.597  -3.032  0.00  0.00    +0.106 C 
ATOM     17  C   LIG    1       16.291   3.997  -3.879  0.00  0.00    -0.106 C 
ATOM     18  C   LIG    1       15.371   4.376  -4.596  0.00  0.00    -0.102 C 
ENDBRANCH  15  18
ENDBRANCH  13  15
ENDBRANCH  12  13
BRANCH  12  19
ATOM     19  O   LIG    1       12.216   5.972  -3.653  0.00  0.00    -0.388 OA
ATOM     20  H   LIG    1       11.390   6.156  -4.132  0.00  0.00    +0.210 HD
ENDBRANCH  12  19
ENDBRANCH  10  12
ENDBRANCH   1  11
BRANCH   2  21
ATOM     21  O   LIG    1        7.639   1.470  -2.964  0.00  0.00    -0.391 OA
ATOM     22  H   LIG    1        7.423   0.920  -3.737  0.00  0.00    +0.210 HD
ENDBRANCH   2  21
BRANCH   7  23
ATOM     23  C   LIG    1        8.348   8.321  -0.487  0.00  0.00    +0.028 C 
BRANCH  23  24
ATOM     24  C   LIG    1        7.142   8.844   0.305  0.00  0.00    +0.015 C 
BRANCH  24  25
ATOM     25  C   LIG    1        7.508   9.310   1.716  0.00  0.00    +0.121 C 
BRANCH  25  26
ATOM     26  C   LIG    1        8.466  10.462   1.667  0.00  0.00    +0.307 C 
ATOM     27  O   LIG    1        9.637  10.341   1.328  0.00  0.00    -0.251 OA
BRANCH  26  28
ATOM     28  O   LIG    1        7.860  11.633   1.995  0.00  0.00    -0.457 OA
BRANCH  28  29
ATOM     29  C   LIG    1        8.621  12.799   1.669  0.00  0.00    +0.311 C 
BRANCH  29  30
ATOM     30  C   LIG    1        8.654  13.010   0.158  0.00  0.00    +0.200 C 
ATOM     31  O   LIG    1        7.614  13.078  -0.499  0.00  0.00    -0.288 OA
BRANCH  30  32
ATOM     32  C   LIG    1        9.968  13.145  -0.526  0.00  0.00    +0.021 A 
ATOM     33  C   LIG    1       11.127  12.560  -0.004  0.00  0.00    +0.011 A 
ATOM     34  C   LIG    1       12.346  12.675  -0.661  0.00  0.00    +0.001 A 
ATOM     35  C   LIG    1       12.424  13.403  -1.841  0.00  0.00    +0.000 A 
ATOM     36  C   LIG    1       11.276  13.994  -2.374  0.00  0.00    +0.001 A 
ATOM     37  C   LIG    1       10.044  13.856  -1.728  0.00  0.00    +0.011 A 
ENDBRANCH  30  32
ENDBRANCH  29  30
ENDBRANCH  28  29
ENDBRANCH  26  28
ENDBRANCH  25  26
ENDBRANCH  24  25
ENDBRANCH  23  24
ENDBRANCH   7  23
TORSDOF 15
