REMARK  Name = *****
REMARK                            x       y       z     vdW  Elec       q    Type
REMARK                         _______ _______ _______ _____ _____    ______ ____
ROOT
ATOM      1  C   LIG    1       -9.601   4.280   2.098  0.00  0.00    +0.044 C 
ATOM      2  C   LIG    1       -8.731   5.539   2.281  0.00  0.00    +0.006 C 
ATOM      3  C   LIG    1       -8.268   5.436   3.738  0.00  0.00    -0.001 C 
ATOM      4  C   LIG    1       -7.873   6.853   4.154  0.00  0.00    +0.034 C 
ATOM      5  C   LIG    1       -8.624   7.751   3.200  0.00  0.00    -0.073 C 
ATOM      6  C   LIG    1       -8.617   9.099   3.224  0.00  0.00    -0.027 C 
ATOM      7  C   LIG    1       -9.472   4.862   4.493  0.00  0.00    +0.036 C 
ATOM      8  C   LIG    1       -9.387   6.920   2.188  0.00  0.00    +0.035 C 
ATOM      9  C   LIG    1      -10.249   4.015   3.479  0.00  0.00    +0.122 C 
ENDROOT
BRANCH   1  11
ATOM     10  C   LIG    1      -10.751   3.119   0.204  0.00  0.00    +0.000 C 
ATOM     11  C   LIG    1      -10.529   4.244   0.909  0.00  0.00    -0.022 C 
BRANCH  10  12
ATOM     12  C   LIG    1      -11.666   3.002  -0.988  0.00  0.00    +0.141 C 
BRANCH  12  13
ATOM     13  C   LIG    1      -11.192   1.938  -2.004  0.00  0.00    +0.030 C 
ATOM     14  C   LIG    1       -9.761   2.216  -2.491  0.00  0.00    +0.011 C 
BRANCH  13  15
ATOM     15  C   LIG    1      -12.169   1.825  -3.192  0.00  0.00    +0.095 C 
BRANCH  15  18
ATOM     16  C   LIG    1      -10.661  -1.357  -5.290  0.00  0.00    +0.106 C 
ATOM     17  C   LIG    1      -11.345  -0.241  -4.645  0.00  0.00    -0.106 C 
ATOM     18  C   LIG    1      -11.796   0.697  -4.041  0.00  0.00    -0.102 C 
ENDBRANCH  15  18
ENDBRANCH  13  15
ENDBRANCH  12  13
BRANCH  12  19
ATOM     19  O   LIG    1      -12.954   2.628  -0.505  0.00  0.00    -0.388 OA
ATOM     20  H   LIG    1      -12.824   1.985   0.213  0.00  0.00    +0.210 HD
ENDBRANCH  12  19
ENDBRANCH  10  12
ENDBRANCH   1  11
BRANCH   9  21
ATOM     21  O   LIG    1      -11.633   4.333   3.546  0.00  0.00    -0.391 OA
ATOM     22  H   LIG    1      -11.739   5.285   3.387  0.00  0.00    +0.210 HD
ENDBRANCH   9  21
BRANCH   6  23
ATOM     23  C   LIG    1       -7.891   9.960   4.235  0.00  0.00    +0.028 C 
BRANCH  23  24
ATOM     24  C   LIG    1       -7.440  11.319   3.673  0.00  0.00    +0.015 C 
BRANCH  24  25
ATOM     25  C   LIG    1       -6.724  12.155   4.741  0.00  0.00    +0.121 C 
BRANCH  25  26
ATOM     26  C   LIG    1       -6.262  13.497   4.218  0.00  0.00    +0.307 C 
ATOM     27  O   LIG    1       -6.874  14.186   3.413  0.00  0.00    -0.251 OA
BRANCH  26  28
ATOM     28  O   LIG    1       -5.125  13.885   4.867  0.00  0.00    -0.457 OA
BRANCH  28  29
ATOM     29  C   LIG    1       -4.698  15.206   4.539  0.00  0.00    +0.311 C 
BRANCH  29  30
ATOM     30  C   LIG    1       -3.956  15.339   3.205  0.00  0.00    +0.200 C 
ATOM     31  O   LIG    1       -3.632  14.371   2.518  0.00  0.00    -0.288 OA
BRANCH  30  32
ATOM     32  C   LIG    1       -3.510  16.707   2.809  0.00  0.00    +0.021 A 
ATOM     33  C   LIG    1       -2.326  16.849   2.073  0.00  0.00    +0.011 A 
ATOM     34  C   LIG    1       -1.841  18.125   1.769  0.00  0.00    +0.001 A 
ATOM     35  C   LIG    1       -2.547  19.258   2.174  0.00  0.00    +0.000 A 
ATOM     36  C   LIG    1       -3.745  19.120   2.869  0.00  0.00    +0.001 A 
ATOM     37  C   LIG    1       -4.225  17.849   3.191  0.00  0.00    +0.011 A 
ENDBRANCH  30  32
ENDBRANCH  29  30
ENDBRANCH  28  29
ENDBRANCH  26  28
ENDBRANCH  25  26
ENDBRANCH  24  25
ENDBRANCH  23  24
ENDBRANCH   6  23
TORSDOF 15
