REMARK  Name = *****
REMARK                            x       y       z     vdW  Elec       q    Type
REMARK                         _______ _______ _______ _____ _____    ______ ____
ROOT
ATOM      1  C   LIG    1        4.488  -1.071  -0.412  0.00  0.00    +0.130 C 
ATOM      2  C   LIG    1        4.897  -2.296   0.397  0.00  0.00    +0.238 C 
ATOM      3  O   LIG    1        5.008  -2.266   1.620  0.00  0.00    -0.274 OA
ATOM      4  N   LIG    1        5.037  -3.491  -0.290  0.00  0.00    -0.228 N 
ATOM      5  C   LIG    1        5.213  -4.690   0.520  0.00  0.00    +0.143 C 
ATOM      6  C   LIG    1        5.230  -3.603  -1.658  0.00  0.00    +0.317 C 
ATOM      7  O   LIG    1        5.495  -4.673  -2.197  0.00  0.00    -0.252 OA
ATOM      8  N   LIG    1        5.135  -2.427  -2.390  0.00  0.00    -0.228 N 
ATOM      9  C   LIG    1        5.393  -2.553  -3.818  0.00  0.00    +0.143 C 
ATOM     10  C   LIG    1        4.963  -1.162  -1.859  0.00  0.00    +0.238 C 
ATOM     11  O   LIG    1        5.100  -0.145  -2.555  0.00  0.00    -0.274 OA
ENDROOT
BRANCH   1  12
ATOM     12  C   LIG    1        5.045   0.260   0.251  0.00  0.00    +0.010 C 
ATOM     13  C   LIG    1        4.517   0.541   1.672  0.00  0.00    +0.009 C 
BRANCH  12  14
ATOM     14  C   LIG    1        6.602   0.294   0.231  0.00  0.00    +0.001 C 
ATOM     15  C   LIG    1        7.223   1.546   0.842  0.00  0.00    +0.004 C 
ENDBRANCH  12  14
ENDBRANCH   1  12
BRANCH   1  16
ATOM     16  C   LIG    1        2.919  -1.102  -0.468  0.00  0.00    +0.052 C 
BRANCH  16  18
ATOM     17  C   LIG    1        1.370   0.889  -0.735  0.00  0.00    +0.004 C 
ATOM     18  C   LIG    1        2.229  -0.003  -1.247  0.00  0.00    -0.033 C 
ENDBRANCH  16  18
ENDBRANCH   1  16
TORSDOF 4
