REMARK  Name = *****
REMARK                            x       y       z     vdW  Elec       q    Type
REMARK                         _______ _______ _______ _____ _____    ______ ____
ROOT
ATOM      1  C   LIG    1      -10.840  -6.181   2.133  0.00  0.00    +0.132 C 
ATOM      2  C   LIG    1       -9.546  -6.425   1.282  0.00  0.00    +0.011 C 
ATOM      3  C   LIG    1       -9.616  -7.937   0.854  0.00  0.00    +0.015 C 
ATOM      4  C   LIG    1       -8.389  -6.100   2.287  0.00  0.00    +0.002 C 
ATOM      5  C   LIG    1       -7.797  -4.645   2.288  0.00  0.00    +0.000 C 
ATOM      6  C   LIG    1       -7.457  -4.155   0.862  0.00  0.00    +0.018 C 
ATOM      7  C   LIG    1       -8.680  -4.312  -0.067  0.00  0.00    +0.009 C 
ATOM      8  C   LIG    1       -6.992  -2.684   0.845  0.00  0.00    -0.066 C 
ATOM      9  C   LIG    1       -6.288  -2.229  -0.426  0.00  0.00    +0.038 C 
ATOM     10  C   LIG    1       -5.763  -0.798  -0.370  0.00  0.00    +0.079 C 
ATOM     11  C   LIG    1       -6.802   0.028   0.331  0.00  0.00    +0.138 C 
ATOM     12  O   LIG    1       -7.455   0.901  -0.235  0.00  0.00    -0.297 OA
ATOM     13  C   LIG    1       -6.992  -0.334   1.783  0.00  0.00    +0.105 C 
ATOM     14  C   LIG    1       -7.238  -1.823   1.865  0.00  0.00    -0.063 C 
ATOM     15  C   LIG    1       -7.893  -2.247   3.147  0.00  0.00    +0.031 C 
ATOM     16  C   LIG    1       -8.638  -3.553   2.973  0.00  0.00    +0.009 C 
ATOM     17  C   LIG    1       -8.924  -6.471   3.680  0.00  0.00    +0.008 C 
ATOM     18  C   LIG    1       -9.318  -5.698  -0.064  0.00  0.00    +0.011 C 
ATOM     19  C   LIG    1      -10.414  -6.756   3.505  0.00  0.00    +0.049 C 
ENDROOT
BRANCH   1  21
ATOM     20  C   LIG    1      -11.742  -3.688   1.958  0.00  0.00    +0.007 C 
ATOM     21  C   LIG    1      -11.316  -4.785   2.131  0.00  0.00    -0.070 C 
ENDBRANCH   1  21
BRANCH   1  22
ATOM     22  O   LIG    1      -11.957  -6.943   1.675  0.00  0.00    -0.376 OA
ATOM     23  H   LIG    1      -12.749  -6.546   2.082  0.00  0.00    +0.211 HD
ENDBRANCH   1  22
TORSDOF 2
