REMARK  Name = *****
REMARK                            x       y       z     vdW  Elec       q    Type
REMARK                         _______ _______ _______ _____ _____    ______ ____
ROOT
ATOM      1  CA  ILE A  1        4.629  -1.427   0.360  0.00  0.00    +0.164 C 
ENDROOT
BRANCH   1   2
ATOM      2  N   ILE A  1        5.670  -2.267  -0.267  0.00  0.00    -0.318 NA
ATOM      3  H1  ILE A  1        5.271  -2.908  -0.953  0.00  0.00    +0.119 HD
ATOM      4  H2  ILE A  1        6.469  -1.764  -0.633  0.00  0.00    +0.119 HD
ENDBRANCH   1   2
BRANCH   1   5
ATOM      5  CB  ILE A  1        5.188  -0.355   1.339  0.00  0.00    +0.013 C 
ATOM      6  CG2 ILE A  1        6.095   0.668   0.643  0.00  0.00    +0.009 C 
BRANCH   5   8
ATOM      7  CD1 ILE A  1        6.301  -0.033   3.648  0.00  0.00    +0.004 C 
ATOM      8  CG1 ILE A  1        5.897  -1.012   2.548  0.00  0.00    +0.002 C 
ENDBRANCH   5   8
ENDBRANCH   1   5
BRANCH   1   9
ATOM      9  C   ILE A  1        3.707  -0.787  -0.697  0.00  0.00    +0.322 C 
ATOM     10  O   ILE A  1        2.543  -0.459  -0.491  0.00  0.00    -0.249 OA
BRANCH   9  11
ATOM     11  OXT ILE A  1        4.306  -0.586  -1.895  0.00  0.00    -0.479 OA
ATOM     12  HXT ILE A  1        5.231  -0.891  -1.872  0.00  0.00    +0.295 HD
ENDBRANCH   9  11
ENDBRANCH   1   9
TORSDOF 5
