REMARK  Name = *****
REMARK                            x       y       z     vdW  Elec       q    Type
REMARK                         _______ _______ _______ _____ _____    ______ ____
ROOT
ATOM      1  N   LIG    1        7.360  -0.907  -1.194  0.00  0.00    -0.261 N 
ATOM      2  C   LIG    1        8.712  -0.995  -1.558  0.00  0.00    +0.075 C 
ATOM      3  C   LIG    1        9.391  -2.225  -1.222  0.00  0.00    +0.102 C 
ATOM      4  C   LIG    1       10.621  -2.547  -1.697  0.00  0.00    +0.120 C 
ATOM      5  N   LIG    1       11.279  -1.590  -2.482  0.00  0.00    -0.299 N 
ATOM      6  C   LIG    1       10.789  -0.303  -2.665  0.00  0.00    +0.257 C 
ATOM      7  O   LIG    1       11.451   0.614  -3.160  0.00  0.00    -0.267 OA
ATOM      8  C   LIG    1       12.608  -1.849  -3.030  0.00  0.00    +0.153 C 
ATOM      9  C   LIG    1        8.647  -3.201  -0.382  0.00  0.00    +0.268 C 
ATOM     10  O   LIG    1        9.218  -3.872   0.464  0.00  0.00    -0.267 OA
ATOM     11  N   LIG    1        7.287  -3.243  -0.667  0.00  0.00    -0.257 N 
ATOM     12  C   LIG    1        9.362  -0.064  -2.292  0.00  0.00    +0.039 C 
ATOM     13  C   LIG    1        8.786   1.148  -2.972  0.00  0.00    +0.051 C 
ATOM     14  C   LIG    1        6.576  -2.068  -0.947  0.00  0.00    +0.337 C 
ATOM     15  O   LIG    1        5.345  -2.042  -0.884  0.00  0.00    -0.246 OA
ENDROOT
BRANCH   1  18
ATOM     16  C   LIG    1        4.928   1.974  -0.998  0.00  0.00    +0.035 A 
ATOM     17  C   LIG    1        5.521   0.757  -1.389  0.00  0.00    +0.049 A 
ATOM     18  C   LIG    1        6.745   0.346  -0.829  0.00  0.00    +0.053 A 
ATOM     19  C   LIG    1        7.363   1.154   0.138  0.00  0.00    +0.026 A 
ATOM     20  C   LIG    1        6.751   2.332   0.558  0.00  0.00    +0.004 A 
ATOM     21  C   LIG    1        5.546   2.733  -0.012  0.00  0.00    +0.023 A 
BRANCH  16  24
ATOM     22  C   LIG    1        1.944   3.777  -2.453  0.00  0.00    +0.109 C 
ATOM     23  C   LIG    1        3.103   3.602  -1.514  0.00  0.00    +0.214 C 
ATOM     24  N   LIG    1        3.741   2.368  -1.657  0.00  0.00    -0.286 N 
ATOM     25  H   LIG    1        3.345   1.725  -2.317  0.00  0.00    +0.155 HD
ATOM     26  O   LIG    1        3.433   4.529  -0.771  0.00  0.00    -0.276 OA
ENDBRANCH  16  24
ENDBRANCH   1  18
BRANCH  11  27
ATOM     27  C   LIG    1        6.520  -4.345  -0.098  0.00  0.00    +0.095 C 
ATOM     28  C   LIG    1        5.618  -5.224  -0.934  0.00  0.00    +0.027 C 
ATOM     29  C   LIG    1        6.871  -5.793  -0.346  0.00  0.00    +0.027 C 
ENDBRANCH  11  27
BRANCH   4  30
ATOM     30  N   LIG    1       11.240  -3.766  -1.400  0.00  0.00    -0.298 N 
ATOM     31  H   LIG    1       10.994  -4.082  -0.448  0.00  0.00    +0.154 HD
BRANCH  30  32
ATOM     32  C   LIG    1       11.123  -4.914  -2.245  0.00  0.00    +0.068 A 
ATOM     33  C   LIG    1       11.355  -6.188  -1.700  0.00  0.00    +0.145 A 
ATOM     34  F   LIG    1       11.563  -6.310  -0.380  0.00  0.00    -0.203 F 
ATOM     35  C   LIG    1       11.361  -7.338  -2.485  0.00  0.00    +0.054 A 
ATOM     36  C   LIG    1       11.167  -7.220  -3.857  0.00  0.00    +0.016 A 
ATOM     37  I   LIG    1       11.221  -8.910  -5.062  0.00  0.00    -0.044 I 
ATOM     38  C   LIG    1       10.948  -5.969  -4.433  0.00  0.00    +0.016 A 
ATOM     39  C   LIG    1       10.920  -4.825  -3.628  0.00  0.00    +0.027 A 
ENDBRANCH  30  32
ENDBRANCH   4  30
TORSDOF 5
