REMARK  Name = *****
REMARK                            x       y       z     vdW  Elec       q    Type
REMARK                         _______ _______ _______ _____ _____    ______ ____
ROOT
ATOM      1  C   LIG    1        5.348  -0.737   2.727  0.00  0.00    +0.144 C 
ENDROOT
BRANCH   1   2
ATOM      2  C   LIG    1        5.412  -1.477   1.347  0.00  0.00    +0.072 C 
ATOM      3  N   LIG    1        6.798  -1.939   1.073  0.00  0.00    -0.312 NA
ATOM      4  H   LIG    1        7.409  -1.120   1.021  0.00  0.00    +0.122 HD
ATOM      5  C   LIG    1        6.899  -2.682  -0.187  0.00  0.00    +0.081 C 
ATOM      6  C   LIG    1        6.427  -1.859  -1.381  0.00  0.00    +0.015 C 
ATOM      7  C   LIG    1        4.996  -1.394  -1.172  0.00  0.00    +0.003 C 
ATOM      8  C   LIG    1        4.876  -0.660   0.155  0.00  0.00    +0.020 C 
ENDBRANCH   1   2
BRANCH   1   9
ATOM      9  C   LIG    1        6.253   0.483   2.881  0.00  0.00    -0.032 A 
ATOM     10  C   LIG    1        6.002   1.686   2.201  0.00  0.00    +0.004 A 
ATOM     11  C   LIG    1        6.830   2.794   2.373  0.00  0.00    +0.000 A 
ATOM     12  C   LIG    1        7.904   2.730   3.255  0.00  0.00    +0.000 A 
ATOM     13  C   LIG    1        8.161   1.551   3.950  0.00  0.00    +0.000 A 
ATOM     14  C   LIG    1        7.347   0.432   3.759  0.00  0.00    +0.004 A 
ENDBRANCH   1   9
BRANCH   1  15
ATOM     15  C   LIG    1        3.908  -0.383   3.128  0.00  0.00    +0.316 C 
ATOM     16  O   LIG    1        3.069   0.131   2.407  0.00  0.00    -0.250 OA
BRANCH  15  18
ATOM     17  C   LIG    1        2.454  -0.183   4.951  0.00  0.00    +0.280 C 
ATOM     18  O   LIG    1        3.714  -0.653   4.461  0.00  0.00    -0.468 OA
ENDBRANCH  15  18
ENDBRANCH   1  15
TORSDOF 4
