REMARK  Name = *****
REMARK                            x       y       z     vdW  Elec       q    Type
REMARK                         _______ _______ _______ _____ _____    ______ ____
ROOT
ATOM      1  C   LIG    1        3.168   2.458  -4.034  0.00  0.00    +0.220 C 
ATOM      2  C   LIG    1        2.648   1.599  -5.185  0.00  0.00    +0.271 C 
ATOM      3  O   LIG    1        3.154   0.566  -5.598  0.00  0.00    -0.270 OA
ATOM      4  N   LIG    1        1.494   2.180  -5.654  0.00  0.00    -0.233 N 
ATOM      5  C   LIG    1        1.609   3.578  -5.391  0.00  0.00    +0.269 C 
ATOM      6  C   LIG    1        2.226   4.233  -6.664  0.00  0.00    +0.156 C 
ATOM      7  N   LIG    1        1.783   3.649  -7.935  0.00  0.00    -0.290 N 
ATOM      8  C   LIG    1        1.460   2.315  -8.085  0.00  0.00    +0.237 C 
ATOM      9  O   LIG    1        1.511   1.760  -9.184  0.00  0.00    -0.274 OA
ATOM     10  C   LIG    1        2.077   4.518  -9.051  0.00  0.00    +0.108 C 
ATOM     11  C   LIG    1        2.483   5.838  -8.398  0.00  0.00    +0.021 C 
ATOM     12  C   LIG    1        2.005   5.717  -6.940  0.00  0.00    +0.031 C 
ATOM     13  C   LIG    1        0.796   1.676  -6.844  0.00  0.00    +0.171 C 
ATOM     14  O   LIG    1        2.452   3.711  -4.243  0.00  0.00    -0.298 OA
ENDROOT
BRANCH   1  15
ATOM     15  N   LIG    1        2.805   1.943  -2.705  0.00  0.00    -0.280 N 
ATOM     16  H   LIG    1        3.261   2.345  -1.904  0.00  0.00    +0.152 HD
ATOM     17  C   LIG    1        1.716   1.102  -2.493  0.00  0.00    +0.220 C 
ATOM     18  O   LIG    1        1.010   0.685  -3.407  0.00  0.00    -0.275 OA
BRANCH  17  19
ATOM     19  C   LIG    1        1.315   0.793  -0.975  0.00  0.00    +0.090 C 
ATOM     20  C   LIG    1       -0.097   1.561  -0.999  0.00  0.00    +0.097 C 
ATOM     21  N   LIG    1       -1.119   0.594  -0.716  0.00  0.00    -0.301 NA
ATOM     22  C   LIG    1       -2.147   1.079   0.193  0.00  0.00    +0.105 C 
ATOM     23  C   LIG    1       -0.310  -0.449  -0.141  0.00  0.00    +0.068 C 
ATOM     24  C   LIG    1        0.753  -1.259  -1.517  0.00  0.00    +0.038 C 
ATOM     25  C   LIG    1        2.626  -1.084  -1.518  0.00  0.00    -0.033 C 
ATOM     26  C   LIG    1        3.328  -0.428  -0.219  0.00  0.00    +0.006 C 
ATOM     27  C   LIG    1        4.636  -0.683   0.083  0.00  0.00    +0.047 C 
ATOM     28  N   LIG    1        4.838  -0.167   1.357  0.00  0.00    -0.360 NA
ATOM     29  H   LIG    1        5.724  -0.221   1.837  0.00  0.00    +0.165 HD
ATOM     30  C   LIG    1        3.656   0.260   1.987  0.00  0.00    +0.087 C 
ATOM     31  C   LIG    1        5.409  -1.435  -0.813  0.00  0.00    +0.026 C 
ATOM     32  C   LIG    1        4.796  -1.974  -1.998  0.00  0.00    +0.002 C 
ATOM     33  C   LIG    1        2.600   0.096   1.121  0.00  0.00    -0.021 C 
ATOM     34  C   LIG    1        3.437  -1.828  -2.364  0.00  0.00    +0.005 C 
ATOM     35  C   LIG    1        0.792   0.236   1.333  0.00  0.00    +0.056 C 
ATOM     36  C   LIG    1        1.284  -1.102  -0.275  0.00  0.00    +0.023 C 
ENDBRANCH  17  19
ENDBRANCH   1  15
BRANCH   1  38
ATOM     37  C   LIG    1        5.610   1.548  -3.992  0.00  0.00    +0.012 C 
ATOM     38  C   LIG    1        4.705   2.772  -4.179  0.00  0.00    +0.043 C 
ATOM     39  C   LIG    1        5.228   3.889  -3.260  0.00  0.00    +0.012 C 
ENDBRANCH   1  38
BRANCH   5  40
ATOM     40  O   LIG    1        0.355   4.128  -5.061  0.00  0.00    -0.348 OA
ATOM     41  H   LIG    1        0.063   3.578  -4.313  0.00  0.00    +0.214 HD
ENDBRANCH   5  40
BRANCH  13  42
ATOM     42  C   LIG    1       -0.728   1.957  -6.854  0.00  0.00    +0.067 C 
BRANCH  42  43
ATOM     43  C   LIG    1       -1.457   1.349  -8.037  0.00  0.00    -0.045 C 
ATOM     44  C   LIG    1       -1.540   2.054  -9.249  0.00  0.00    +0.003 C 
ATOM     45  C   LIG    1       -2.098   1.465 -10.383  0.00  0.00    +0.000 C 
ATOM     46  C   LIG    1       -2.614   0.175 -10.313  0.00  0.00    +0.000 C 
ATOM     47  C   LIG    1       -2.576  -0.522  -9.105  0.00  0.00    +0.000 C 
ATOM     48  C   LIG    1       -1.996   0.059  -7.973  0.00  0.00    +0.003 C 
ENDBRANCH  42  43
ENDBRANCH  13  42
TORSDOF 6
