REMARK  Name = *****
REMARK                            x       y       z     vdW  Elec       q    Type
REMARK                         _______ _______ _______ _____ _____    ______ ____
ROOT
ATOM      1  C   LIG    1        6.002   3.374  -1.419  0.00  0.00    -0.021 C 
ATOM      2  C   LIG    1        6.671   3.406  -2.688  0.00  0.00    +0.003 C 
ATOM      3  C   LIG    1        6.965   4.737  -2.971  0.00  0.00    +0.047 C 
ATOM      4  C   LIG    1        7.630   5.141  -4.134  0.00  0.00    +0.026 C 
ATOM      5  C   LIG    1        8.034   4.142  -5.026  0.00  0.00    +0.007 C 
ATOM      6  C   LIG    1        7.774   2.788  -4.781  0.00  0.00    -0.025 C 
ATOM      7  N   LIG    1        6.492   5.494  -1.924  0.00  0.00    -0.360 NA
ATOM      8  H   LIG    1        6.571   6.496  -1.861  0.00  0.00    +0.165 HD
ATOM      9  C   LIG    1        7.066   2.420  -3.618  0.00  0.00    +0.015 C 
ATOM     10  C   LIG    1        5.921   4.682  -0.981  0.00  0.00    +0.087 C 
ENDROOT
BRANCH   1  11
ATOM     11  C   LIG    1        5.462   2.178  -0.692  0.00  0.00    +0.052 C 
BRANCH  11  12
ATOM     12  C   LIG    1        6.474   1.549   0.288  0.00  0.00    +0.088 C 
BRANCH  12  14
ATOM     13  C   LIG    1        7.007  -0.184   1.890  0.00  0.00    +0.104 C 
ATOM     14  N   LIG    1        5.973   0.346   0.994  0.00  0.00    -0.308 NA
ATOM     15  C   LIG    1        4.751   0.610   1.756  0.00  0.00    +0.104 C 
ENDBRANCH  12  14
ENDBRANCH  11  12
ENDBRANCH   1  11
BRANCH   6  16
ATOM     16  C   LIG    1        8.262   1.724  -5.737  0.00  0.00    +0.180 C 
BRANCH  16  17
ATOM     17  N   LIG    1        9.712   1.684  -5.799  0.00  0.00    -0.248 NA
ATOM     18  N   LIG    1       10.399   2.411  -6.708  0.00  0.00    -0.158 NA
ATOM     19  C   LIG    1       11.657   2.084  -6.407  0.00  0.00    +0.244 C 
ATOM     20  N   LIG    1       11.799   1.169  -5.402  0.00  0.00    -0.223 NA
ATOM     21  C   LIG    1       10.559   0.932  -5.044  0.00  0.00    +0.219 C 
ENDBRANCH  16  17
ENDBRANCH   6  16
TORSDOF 5
