REMARK  Name = *****
REMARK                            x       y       z     vdW  Elec       q    Type
REMARK                         _______ _______ _______ _____ _____    ______ ____
ROOT
ATOM      1  N   LIG    1        2.330  -1.970   1.123  0.00  0.00    -0.230 N 
ATOM      2  H   LIG    1        2.129  -2.161   2.098  0.00  0.00    +0.173 HD
ATOM      3  C   LIG    1        2.113  -2.897   0.117  0.00  0.00    +0.260 C 
ATOM      4  O   LIG    1        2.532  -2.821  -1.033  0.00  0.00    -0.269 OA
ENDROOT
BRANCH   1   7
ATOM      5  C   LIG    1        0.942   0.424   0.518  0.00  0.00    +0.030 C 
ATOM      6  C   LIG    1        2.448   0.358   0.248  0.00  0.00    +0.096 C 
ATOM      7  N   LIG    1        3.106  -0.832   0.864  0.00  0.00    -0.247 N 
ATOM      8  C   LIG    1        3.808  -0.323   1.987  0.00  0.00    +0.051 A 
ATOM      9  C   LIG    1        3.877   1.072   1.994  0.00  0.00    -0.023 A 
ATOM     10  C   LIG    1        4.568   1.768   2.975  0.00  0.00    +0.005 A 
ATOM     11  C   LIG    1        5.195   1.037   3.984  0.00  0.00    +0.000 A 
ATOM     12  C   LIG    1        5.128  -0.364   3.992  0.00  0.00    +0.002 A 
ATOM     13  C   LIG    1        4.439  -1.051   2.986  0.00  0.00    +0.025 A 
ATOM     14  C   LIG    1        3.163   1.619   0.805  0.00  0.00    +0.061 C 
ENDBRANCH   1   7
BRANCH   3  15
ATOM     15  C   LIG    1        1.288  -4.077   0.517  0.00  0.00    +0.040 A 
ATOM     16  C   LIG    1        0.286  -3.974   1.492  0.00  0.00    +0.043 A 
ATOM     17  C   LIG    1       -0.460  -5.108   1.871  0.00  0.00    +0.124 A 
ATOM     18  C   LIG    1       -0.223  -6.339   1.259  0.00  0.00    +0.067 A 
ATOM     19 CL   LIG    1       -1.066  -7.793   1.652  0.00  0.00    -0.082 Cl
ATOM     20  C   LIG    1        0.753  -6.428   0.257  0.00  0.00    +0.022 A 
ATOM     21  C   LIG    1        1.504  -5.306  -0.113  0.00  0.00    +0.014 A 
BRANCH  17  22
ATOM     22  S   LIG    1       -1.647  -4.913   3.164  0.00  0.00    +0.057 S 
ATOM     23  O   LIG    1       -1.804  -3.502   3.433  0.00  0.00    -0.153 OA
ATOM     24  O   LIG    1       -1.356  -5.857   4.221  0.00  0.00    -0.153 OA
BRANCH  22  25
ATOM     25  N   LIG    1       -3.097  -5.380   2.470  0.00  0.00    -0.203 NA
ATOM     26  H   LIG    1       -3.767  -4.611   2.509  0.00  0.00    +0.144 HD
ATOM     27  H   LIG    1       -3.431  -6.233   2.924  0.00  0.00    +0.144 HD
ENDBRANCH  22  25
ENDBRANCH  17  22
ENDBRANCH   3  15
TORSDOF 4
