REMARK  Name = *****
REMARK                            x       y       z     vdW  Elec       q    Type
REMARK                         _______ _______ _______ _____ _____    ______ ____
ROOT
ATOM      1  C   LIG    1       11.429  -3.250  -4.453  0.00  0.00    +0.034 A 
ATOM      2  C   LIG    1       10.570  -2.152  -4.426  0.00  0.00    +0.038 A 
ATOM      3  C   LIG    1       10.678  -1.173  -3.412  0.00  0.00    +0.060 A 
ATOM      4  C   LIG    1       11.714  -1.274  -2.465  0.00  0.00    +0.131 A 
ATOM      5  C   LIG    1       12.588  -2.364  -2.527  0.00  0.00    +0.048 A 
ATOM      6  C   LIG    1       12.431  -3.357  -3.491  0.00  0.00    +0.027 A 
ENDROOT
BRANCH   1   8
ATOM      7  C   LIG    1       11.422  -5.585  -5.215  0.00  0.00    +0.217 C 
ATOM      8  N   LIG    1       11.295  -4.231  -5.456  0.00  0.00    -0.285 N 
ATOM      9  H   LIG    1       10.831  -3.946  -6.320  0.00  0.00    +0.155 HD
ATOM     10  O   LIG    1       11.677  -6.093  -4.106  0.00  0.00    -0.276 OA
BRANCH   7  11
ATOM     11  C   LIG    1       11.238  -6.437  -6.452  0.00  0.00    +0.096 C 
BRANCH  11  13
ATOM     12  C   LIG    1       10.571  -8.703  -7.330  0.00  0.00    +0.004 C 
ATOM     13  C   LIG    1       10.583  -7.778  -6.127  0.00  0.00    +0.006 C 
ENDBRANCH  11  13
ENDBRANCH   7  11
ENDBRANCH   1   8
BRANCH   3  14
ATOM     14  C   LIG    1        9.608  -0.122  -3.380  0.00  0.00    +0.164 C 
ATOM     15  O   LIG    1        8.508  -0.394  -3.873  0.00  0.00    -0.292 OA
ATOM     16  C   LIG    1        9.859   1.274  -2.861  0.00  0.00    +0.091 C 
ENDBRANCH   3  14
BRANCH   4  17
ATOM     17  O   LIG    1       11.799  -0.319  -1.497  0.00  0.00    -0.489 OA
BRANCH  17  18
ATOM     18  C   LIG    1       12.877  -0.371  -0.565  0.00  0.00    +0.261 C 
BRANCH  18  19
ATOM     19  C   LIG    1       12.774   0.818   0.402  0.00  0.00    +0.166 C 
BRANCH  19  20
ATOM     20  O   LIG    1       13.856   0.795   1.335  0.00  0.00    -0.387 OA
ATOM     21  H   LIG    1       13.763  -0.028   1.844  0.00  0.00    +0.210 HD
ENDBRANCH  19  20
BRANCH  19  22
ATOM     22  C   LIG    1       11.428   0.874   1.152  0.00  0.00    +0.115 C 
BRANCH  22  23
ATOM     23  N   LIG    1       11.183  -0.302   2.013  0.00  0.00    -0.311 NA
ATOM     24  H   LIG    1       11.897  -0.333   2.740  0.00  0.00    +0.122 HD
BRANCH  23  25
ATOM     25  C   LIG    1        9.867  -0.231   2.681  0.00  0.00    +0.048 C 
ATOM     26  C   LIG    1        9.693  -1.425   3.627  0.00  0.00    +0.024 C 
ATOM     27  C   LIG    1        8.707  -0.214   1.684  0.00  0.00    +0.024 C 
ENDBRANCH  23  25
ENDBRANCH  22  23
ENDBRANCH  19  22
ENDBRANCH  18  19
ENDBRANCH  17  18
ENDBRANCH   4  17
TORSDOF 11
