REMARK  Name = *****
REMARK                            x       y       z     vdW  Elec       q    Type
REMARK                         _______ _______ _______ _____ _____    ______ ____
ROOT
ATOM      1  C   LIG    1       -5.370   6.411  -4.190  0.00  0.00    +0.176 C 
ATOM      2  O   LIG    1       -6.380   5.554  -3.601  0.00  0.00    -0.461 OA
ATOM      3  C   LIG    1       -6.035   4.217  -3.539  0.00  0.00    +0.308 C 
ATOM      4  O   LIG    1       -5.211   3.631  -4.208  0.00  0.00    -0.251 OA
ATOM      5  C   LIG    1       -6.925   3.610  -2.453  0.00  0.00    +0.129 C 
ATOM      6  C   LIG    1       -6.417   3.751  -0.992  0.00  0.00    +0.040 C 
ATOM      7  C   LIG    1       -5.931   5.123  -0.536  0.00  0.00    -0.004 C 
ATOM      8  C   LIG    1       -6.704   5.652   0.404  0.00  0.00    -0.015 C 
ATOM      9  C   LIG    1       -7.591   4.626   1.020  0.00  0.00    +0.023 C 
ATOM     10  C   LIG    1       -7.013   4.213   2.390  0.00  0.00    +0.006 C 
ATOM     11  C   LIG    1       -7.724   2.986   2.956  0.00  0.00    +0.018 C 
ATOM     12  C   LIG    1       -6.793   2.623   4.128  0.00  0.00    +0.039 C 
ATOM     13  C   LIG    1       -5.356   2.847   3.615  0.00  0.00    +0.120 C 
ATOM     14  C   LIG    1       -7.839   1.898   1.911  0.00  0.00    -0.027 C 
ATOM     15  C   LIG    1       -7.745   2.123   0.588  0.00  0.00    -0.026 C 
ATOM     16  C   LIG    1       -5.540   3.752   2.395  0.00  0.00    +0.036 C 
ATOM     17  C   LIG    1       -4.561   5.594  -0.916  0.00  0.00    +0.165 C 
ATOM     18  O   LIG    1       -4.019   4.959  -1.819  0.00  0.00    -0.292 OA
ATOM     19  C   LIG    1       -3.740   6.622  -0.101  0.00  0.00    +0.086 C 
ATOM     20  C   LIG    1       -4.422   7.604   0.847  0.00  0.00    +0.018 C 
ATOM     21  C   LIG    1       -2.729   7.394  -0.999  0.00  0.00    +0.132 C 
ATOM     22  C   LIG    1       -3.339   8.558  -1.837  0.00  0.00    +0.032 C 
ATOM     23  C   LIG    1       -3.900   8.266  -3.234  0.00  0.00    +0.006 C 
ATOM     24  C   LIG    1       -7.625   3.496  -0.026  0.00  0.00    +0.027 C 
ATOM     25  C   LIG    1       -5.302   7.650  -3.252  0.00  0.00    +0.045 C 
ENDROOT
BRANCH   1  27
ATOM     26  C   LIG    1       -5.819   5.649  -6.568  0.00  0.00    +0.007 C 
ATOM     27  C   LIG    1       -5.757   6.828  -5.608  0.00  0.00    +0.041 C 
ENDBRANCH   1  27
BRANCH  13  28
ATOM     28  O   LIG    1       -4.775   1.585   3.274  0.00  0.00    -0.371 OA
BRANCH  28  29
ATOM     29  C   LIG    1       -3.364   1.561   2.998  0.00  0.00    +0.150 C 
ATOM     30  C   LIG    1       -2.861   0.095   3.051  0.00  0.00    +0.178 C 
ATOM     31  C   LIG    1       -3.799  -0.748   2.158  0.00  0.00    +0.178 C 
ATOM     32  C   LIG    1       -3.949  -0.207   0.709  0.00  0.00    +0.152 C 
ATOM     33  C   LIG    1       -3.452   1.241   0.434  0.00  0.00    +0.020 C 
ATOM     34  C   LIG    1       -2.399   1.277  -0.681  0.00  0.00    +0.010 C 
ATOM     35  C   LIG    1       -2.970   2.098   1.620  0.00  0.00    +0.040 C 
BRANCH  30  36
ATOM     36  O   LIG    1       -1.492  -0.037   2.625  0.00  0.00    -0.375 OA
ATOM     37  C   LIG    1       -0.560   0.595   3.495  0.00  0.00    +0.194 C 
ENDBRANCH  30  36
BRANCH  31  38
ATOM     38  O   LIG    1       -3.450  -2.149   2.055  0.00  0.00    -0.374 OA
ATOM     39  C   LIG    1       -3.357  -2.823   3.300  0.00  0.00    +0.194 C 
ENDBRANCH  31  38
BRANCH  32  40
ATOM     40  O   LIG    1       -5.351  -0.162   0.319  0.00  0.00    -0.377 OA
ATOM     41  C   LIG    1       -6.070  -1.381   0.397  0.00  0.00    +0.194 C 
ENDBRANCH  32  40
ENDBRANCH  28  29
ENDBRANCH  13  28
BRANCH  21  42
ATOM     42  O   LIG    1       -1.887   6.566  -1.811  0.00  0.00    -0.347 OA
BRANCH  42  43
ATOM     43  C   LIG    1       -1.172   5.540  -1.098  0.00  0.00    +0.251 C 
ATOM     44  O   LIG    1       -0.333   6.142  -0.128  0.00  0.00    -0.347 OA
ATOM     45  C   LIG    1        0.543   5.242   0.577  0.00  0.00    +0.135 C 
ATOM     46  C   LIG    1        1.155   6.161   1.630  0.00  0.00    +0.039 C 
ATOM     47  C   LIG    1        1.543   4.570  -0.435  0.00  0.00    +0.085 C 
ATOM     48  C   LIG    1        0.644   3.812  -1.451  0.00  0.00    +0.026 C 
ATOM     49  C   LIG    1       -0.367   4.745  -2.111  0.00  0.00    +0.063 C 
BRANCH  47  50
ATOM     50  N   LIG    1        2.603   3.666   0.118  0.00  0.00    -0.303 NA
ATOM     51  C   LIG    1        3.418   3.057  -0.952  0.00  0.00    +0.105 C 
ATOM     52  C   LIG    1        3.544   4.364   1.004  0.00  0.00    +0.105 C 
ENDBRANCH  47  50
ENDBRANCH  42  43
ENDBRANCH  21  42
TORSDOF 9
