REMARK  Name = *****
REMARK                            x       y       z     vdW  Elec       q    Type
REMARK                         _______ _______ _______ _____ _____    ______ ____
ROOT
ATOM      1  C   LIG    1        7.802  -0.761  -4.580  0.00  0.00    +0.124 A 
ATOM      2  C   LIG    1        8.357   0.155  -5.505  0.00  0.00    +0.000 A 
ATOM      3  C   LIG    1        7.463   0.990  -6.391  0.00  0.00    +0.073 C 
ATOM      4  C   LIG    1        8.162   2.225  -6.971  0.00  0.00    +0.148 C 
ATOM      5  C   LIG    1        9.508   1.856  -7.596  0.00  0.00    +0.147 C 
ATOM      6  C   LIG    1       10.435   1.216  -6.564  0.00  0.00    +0.069 C 
ATOM      7  C   LIG    1        9.759   0.248  -5.617  0.00  0.00    -0.038 A 
ATOM      8  C   LIG    1       10.581  -0.533  -4.792  0.00  0.00    +0.004 A 
ATOM      9  C   LIG    1       10.022  -1.445  -3.896  0.00  0.00    +0.004 A 
ATOM     10  C   LIG    1        8.643  -1.568  -3.810  0.00  0.00    +0.046 A 
ENDROOT
BRANCH   5  11
ATOM     11  O   LIG    1        9.277   0.983  -8.715  0.00  0.00    -0.389 OA
ATOM     12  H   LIG    1       10.145   0.706  -9.056  0.00  0.00    +0.210 HD
ENDBRANCH   5  11
BRANCH   4  13
ATOM     13  O   LIG    1        7.333   2.817  -7.979  0.00  0.00    -0.389 OA
ATOM     14  H   LIG    1        7.443   2.242  -8.764  0.00  0.00    +0.210 HD
ENDBRANCH   4  13
BRANCH   1  15
ATOM     15  O   LIG    1        6.433  -0.832  -4.503  0.00  0.00    -0.489 OA
BRANCH  15  16
ATOM     16  C   LIG    1        5.916  -1.193  -3.213  0.00  0.00    +0.261 C 
BRANCH  16  17
ATOM     17  C   LIG    1        4.518  -0.592  -3.018  0.00  0.00    +0.166 C 
BRANCH  17  18
ATOM     18  O   LIG    1        3.968  -0.984  -1.753  0.00  0.00    -0.387 OA
ATOM     19  H   LIG    1        4.419  -0.458  -1.072  0.00  0.00    +0.210 HD
ENDBRANCH  17  18
BRANCH  17  20
ATOM     20  C   LIG    1        4.533   0.947  -3.140  0.00  0.00    +0.116 C 
BRANCH  20  21
ATOM     21  N   LIG    1        5.405   1.592  -2.137  0.00  0.00    -0.309 NA
ATOM     22  H   LIG    1        5.088   1.367  -1.198  0.00  0.00    +0.122 HD
BRANCH  21  24
ATOM     23  C   LIG    1        6.083   3.499  -3.601  0.00  0.00    +0.027 C 
ATOM     24  C   LIG    1        5.502   3.062  -2.248  0.00  0.00    +0.011 C 
ATOM     25  C   LIG    1        4.135   3.724  -2.013  0.00  0.00    +0.027 C 
ATOM     26  C   LIG    1        6.467   3.538  -1.142  0.00  0.00    +0.027 C 
ENDBRANCH  21  24
ENDBRANCH  20  21
ENDBRANCH  17  20
ENDBRANCH  16  17
ENDBRANCH  15  16
ENDBRANCH   1  15
TORSDOF 9
