REMARK  Name = *****
REMARK                            x       y       z     vdW  Elec       q    Type
REMARK                         _______ _______ _______ _____ _____    ______ ____
ROOT
ATOM      1  N   LIG    1        9.059   0.114  -6.417  0.00  0.00    -0.298 N 
ATOM      2  C   LIG    1        9.598  -0.845  -7.331  0.00  0.00    +0.049 A 
ATOM      3  C   LIG    1        9.627  -0.619  -8.720  0.00  0.00    +0.034 A 
ATOM      4  C   LIG    1       10.161  -1.578  -9.601  0.00  0.00    +0.018 A 
ATOM      5  C   LIG    1       10.694  -2.772  -9.130  0.00  0.00    +0.021 A 
ATOM      6  C   LIG    1       10.708  -3.003  -7.765  0.00  0.00    +0.043 A 
ATOM      7 CL   LIG    1       11.375  -4.468  -7.155  0.00  0.00    -0.084 Cl
ATOM      8  S   LIG    1        8.969   0.840  -9.485  0.00  0.00    -0.086 S 
ATOM      9  C   LIG    1        8.613   1.887  -8.099  0.00  0.00    +0.034 A 
ATOM     10  C   LIG    1        8.228   3.203  -8.412  0.00  0.00    +0.017 A 
ATOM     11  C   LIG    1        7.898   4.116  -7.416  0.00  0.00    +0.001 A 
ATOM     12  C   LIG    1        7.968   3.720  -6.091  0.00  0.00    +0.002 A 
ATOM     13  C   LIG    1        8.354   2.415  -5.777  0.00  0.00    +0.024 A 
ATOM     14  C   LIG    1       10.184  -2.056  -6.884  0.00  0.00    +0.044 A 
ATOM     15  C   LIG    1        8.662   1.441  -6.763  0.00  0.00    +0.048 A 
ENDROOT
BRANCH   1  16
ATOM     16  C   LIG    1        8.621  -0.394  -5.075  0.00  0.00    +0.112 C 
BRANCH  16  17
ATOM     17  C   LIG    1        7.212  -1.001  -5.124  0.00  0.00    +0.035 C 
BRANCH  17  18
ATOM     18  C   LIG    1        6.770  -1.539  -3.746  0.00  0.00    +0.086 C 
BRANCH  18  22
ATOM     19  N   LIG    1        3.807  -0.289  -1.612  0.00  0.00    -0.298 NA
ATOM     20  C   LIG    1        4.260   0.222  -2.925  0.00  0.00    +0.100 C 
ATOM     21  C   LIG    1        5.762   0.586  -2.967  0.00  0.00    +0.100 C 
ATOM     22  N   LIG    1        6.669  -0.538  -2.669  0.00  0.00    -0.300 NA
ATOM     23  C   LIG    1        6.239  -1.151  -1.386  0.00  0.00    +0.100 C 
ATOM     24  C   LIG    1        4.710  -1.386  -1.202  0.00  0.00    +0.100 C 
BRANCH  19  25
ATOM     25  C   LIG    1        3.718   0.823  -0.645  0.00  0.00    +0.112 C 
BRANCH  25  26
ATOM     26  C   LIG    1        3.046   0.501   0.697  0.00  0.00    +0.171 C 
BRANCH  26  27
ATOM     27  O   LIG    1        2.963   1.702   1.468  0.00  0.00    -0.394 OA
ATOM     28  H   LIG    1        2.323   1.540   2.182  0.00  0.00    +0.209 HD
ENDBRANCH  26  27
ENDBRANCH  25  26
ENDBRANCH  19  25
ENDBRANCH  18  22
ENDBRANCH  17  18
ENDBRANCH  16  17
ENDBRANCH   1  16
TORSDOF 7
