REMARK  Name = *****
REMARK                            x       y       z     vdW  Elec       q    Type
REMARK                         _______ _______ _______ _____ _____    ______ ____
ROOT
ATOM      1  CA  HYP A  1        2.941  -0.553   1.306  0.00  0.00    +0.166 C 
ATOM      2  N   HYP A  1        2.494   0.024   2.592  0.00  0.00    -0.302 NA
ATOM      3  H   HYP A  1        2.749   0.986   2.793  0.00  0.00    +0.123 HD
ATOM      4  CD  HYP A  1        2.650  -0.986   3.633  0.00  0.00    +0.113 C 
ATOM      5  CG  HYP A  1        2.262  -2.260   2.888  0.00  0.00    +0.130 C 
ATOM      6  CB  HYP A  1        2.861  -2.070   1.500  0.00  0.00    +0.062 C 
ENDROOT
BRANCH   1   8
ATOM      7  O   HYP A  1        4.823  -0.328  -0.217  0.00  0.00    -0.249 OA
ATOM      8  C   HYP A  1        4.358  -0.138   0.898  0.00  0.00    +0.322 C 
BRANCH   8   9
ATOM      9  OXT HYP A  1        5.088   0.421   1.891  0.00  0.00    -0.479 OA
ATOM     10  HXT HYP A  1        4.587   0.444   2.725  0.00  0.00    +0.295 HD
ENDBRANCH   8   9
ENDBRANCH   1   8
BRANCH   5  11
ATOM     11  OD  HYP A  1        0.840  -2.347   2.782  0.00  0.00    -0.391 OA
ATOM     12  HD  HYP A  1        0.530  -1.459   2.522  0.00  0.00    +0.210 HD
ENDBRANCH   5  11
TORSDOF 3
