REMARK  Name = *****
REMARK                            x       y       z     vdW  Elec       q    Type
REMARK                         _______ _______ _______ _____ _____    ______ ____
ROOT
ATOM      1  C   LIG    1       -6.290  -0.398  -2.488  0.00  0.00    +0.112 C 
ATOM      2  C   LIG    1       -7.245   0.580  -1.771  0.00  0.00    +0.101 C 
ATOM      3  N   LIG    1       -8.664   0.259  -1.993  0.00  0.00    -0.297 NA
ATOM      4  C   LIG    1       -9.542   1.292  -1.454  0.00  0.00    +0.105 C 
ATOM      5  C   LIG    1       -9.023  -1.111  -1.540  0.00  0.00    +0.091 C 
ATOM      6  C   LIG    1       -7.973  -2.159  -1.986  0.00  0.00    -0.025 C 
ATOM      7  C   LIG    1       -8.360  -3.564  -1.767  0.00  0.00    -0.011 C 
ATOM      8  C   LIG    1       -9.169  -3.737  -0.633  0.00  0.00    +0.011 C 
ATOM      9  C   LIG    1       -9.696  -2.760   0.248  0.00  0.00    -0.020 C 
ATOM     10  C   LIG    1      -10.400  -3.438   1.218  0.00  0.00    +0.090 C 
ATOM     11  N   LIG    1      -10.299  -4.788   0.942  0.00  0.00    -0.349 NA
ATOM     12  C   LIG    1      -10.824  -5.844   1.779  0.00  0.00    +0.149 C 
ATOM     13  C   LIG    1       -9.590  -4.992  -0.226  0.00  0.00    +0.050 C 
ATOM     14  C   LIG    1       -9.259  -6.135  -0.965  0.00  0.00    +0.026 C 
ATOM     15  C   LIG    1       -8.474  -5.954  -2.119  0.00  0.00    +0.003 C 
ATOM     16  C   LIG    1       -8.014  -4.691  -2.511  0.00  0.00    +0.009 C 
ATOM     17  C   LIG    1       -9.429  -1.306  -0.021  0.00  0.00    +0.060 C 
ATOM     18  C   LIG    1       -6.746  -1.831  -2.424  0.00  0.00    -0.007 C 
ENDROOT
BRANCH   1  21
ATOM     19  N   LIG    1       -7.043  -0.061  -4.828  0.00  0.00    -0.310 N 
ATOM     20  H   LIG    1       -7.943  -0.355  -4.451  0.00  0.00    +0.149 HD
ATOM     21  C   LIG    1       -5.998  -0.019  -3.940  0.00  0.00    +0.221 C 
ATOM     22  O   LIG    1       -4.851   0.301  -4.292  0.00  0.00    -0.275 OA
BRANCH  19  23
ATOM     23  CA  LIG    1       -6.955   0.215  -6.273  0.00  0.00    +0.098 C 
BRANCH  23  25
ATOM     24  C   LIG    1       -6.603  -2.227  -6.966  0.00  0.00    +0.005 C 
ATOM     25  C   LIG    1       -6.068  -0.798  -7.027  0.00  0.00    +0.021 C 
ENDBRANCH  23  25
BRANCH  23  26
ATOM     26  C   LIG    1       -6.561   1.684  -6.574  0.00  0.00    +0.177 C 
BRANCH  26  27
ATOM     27  O   LIG    1       -5.245   2.049  -6.180  0.00  0.00    -0.393 OA
ATOM     28  H   LIG    1       -4.956   1.429  -5.475  0.00  0.00    +0.209 HD
ENDBRANCH  26  27
ENDBRANCH  23  26
ENDBRANCH  19  23
ENDBRANCH   1  21
TORSDOF 5
