REMARK  Name = *****
REMARK                            x       y       z     vdW  Elec       q    Type
REMARK                         _______ _______ _______ _____ _____    ______ ____
ROOT
ATOM      1  C   LIG    1        5.755   1.578  -0.711  0.00  0.00    +0.132 C 
ATOM      2  C   LIG    1        5.909   0.066  -1.084  0.00  0.00    +0.014 C 
ATOM      3  C   LIG    1        4.423  -0.420  -1.155  0.00  0.00    +0.002 C 
ATOM      4  C   LIG    1        3.735  -0.379  -2.552  0.00  0.00    -0.003 C 
ATOM      5  C   LIG    1        4.651  -0.871  -3.701  0.00  0.00    -0.000 C 
ATOM      6  C   LIG    1        5.916  -0.016  -3.705  0.00  0.00    +0.005 C 
ATOM      7  C   LIG    1        4.879  -2.405  -3.611  0.00  0.00    +0.019 C 
ATOM      8  C   LIG    1        3.516  -3.069  -3.694  0.00  0.00    -0.064 C 
ATOM      9  C   LIG    1        3.118  -3.857  -4.707  0.00  0.00    +0.026 C 
ATOM     10  C   LIG    1        3.995  -4.064  -5.898  0.00  0.00    +0.080 C 
ATOM     11  C   LIG    1        5.221  -3.177  -6.008  0.00  0.00    +0.059 C 
ATOM     12  N   LIG    1        3.774  -4.894  -6.872  0.00  0.00    -0.092 NA
ATOM     13  C   LIG    1        2.583  -2.690  -2.575  0.00  0.00    +0.031 C 
ATOM     14  C   LIG    1        5.855  -3.000  -4.639  0.00  0.00    +0.014 C 
ATOM     15  C   LIG    1        2.401  -1.169  -2.554  0.00  0.00    +0.008 C 
ATOM     16  C   LIG    1        3.648   0.482  -0.161  0.00  0.00    +0.008 C 
ATOM     17  C   LIG    1        6.704  -0.143  -2.411  0.00  0.00    +0.011 C 
ATOM     18  C   LIG    1        4.568   1.630   0.252  0.00  0.00    +0.049 C 
ENDROOT
BRANCH   1  20
ATOM     19  C   LIG    1        7.933   2.667   0.294  0.00  0.00    +0.007 C 
ATOM     20  C   LIG    1        6.949   2.175  -0.160  0.00  0.00    -0.070 C 
ENDBRANCH   1  20
BRANCH  12  21
ATOM     21  O   LIG    1        2.609  -5.644  -6.673  0.00  0.00    -0.409 OA
ATOM     22  H   LIG    1        2.593  -6.213  -7.465  0.00  0.00    +0.328 HD
ENDBRANCH  12  21
BRANCH   2  23
ATOM     23  C   LIG    1        6.706  -0.786  -0.019  0.00  0.00    +0.007 C 
ATOM     24  C   LIG    1        6.263  -0.803   1.436  0.00  0.00    +0.004 C 
ENDBRANCH   2  23
BRANCH   1  25
ATOM     25  O   LIG    1        5.374   2.332  -1.864  0.00  0.00    -0.376 OA
ATOM     26  H   LIG    1        5.404   3.271  -1.614  0.00  0.00    +0.211 HD
ENDBRANCH   1  25
TORSDOF 4
