REMARK  Name = *****
REMARK                            x       y       z     vdW  Elec       q    Type
REMARK                         _______ _______ _______ _____ _____    ______ ____
ROOT
ATOM      1  C   LIG    1        5.148   1.858  -2.053  0.00  0.00    +0.175 C 
ENDROOT
BRANCH   1   2
ATOM      2  N   LIG    1        4.380   1.060  -1.012  0.00  0.00    -0.311 NA
ATOM      3  H   LIG    1        4.575   0.069  -1.186  0.00  0.00    +0.119 HD
ATOM      4  H   LIG    1        4.848   1.215  -0.107  0.00  0.00    +0.119 HD
ENDBRANCH   1   2
BRANCH   1   5
ATOM      5  C   LIG    1        6.661   1.935  -1.769  0.00  0.00    +0.371 C 
ATOM      6  F   LIG    1        7.192   0.681  -1.753  0.00  0.00    -0.207 F 
ATOM      7  F   LIG    1        6.856   2.413  -0.508  0.00  0.00    -0.207 F 
ENDBRANCH   1   5
BRANCH   1   8
ATOM      8  C   LIG    1        4.670   3.321  -1.970  0.00  0.00    +0.331 C 
ATOM      9  O   LIG    1        5.080   4.231  -2.658  0.00  0.00    -0.249 OA
BRANCH   8  10
ATOM     10  O   LIG    1        3.705   3.482  -1.019  0.00  0.00    -0.479 OA
ATOM     11  H   LIG    1        3.503   2.583  -0.664  0.00  0.00    +0.295 HD
ENDBRANCH   8  10
ENDBRANCH   1   8
BRANCH   1  12
ATOM     12  C   LIG    1        4.840   1.340  -3.477  0.00  0.00    +0.040 C 
BRANCH  12  13
ATOM     13  C   LIG    1        5.259  -0.110  -3.775  0.00  0.00    +0.017 C 
BRANCH  13  14
ATOM     14  C   LIG    1        4.913  -0.541  -5.203  0.00  0.00    +0.078 C 
BRANCH  14  15
ATOM     15  N   LIG    1        5.598   0.293  -6.182  0.00  0.00    -0.330 NA
ATOM     16  H   LIG    1        6.607   0.177  -6.094  0.00  0.00    +0.118 HD
ATOM     17  H   LIG    1        5.357  -0.016  -7.123  0.00  0.00    +0.118 HD
ENDBRANCH  14  15
ENDBRANCH  13  14
ENDBRANCH  12  13
ENDBRANCH   1  12
TORSDOF 8
