REMARK  Name = *****
REMARK                            x       y       z     vdW  Elec       q    Type
REMARK                         _______ _______ _______ _____ _____    ______ ____
ROOT
ATOM      1  C   LIG    1        5.820   1.504  -0.029  0.00  0.00    +0.000 C 
ATOM      2  C   LIG    1        6.530   0.245   0.371  0.00  0.00    +0.000 A 
ATOM      3  C   LIG    1        7.804  -0.017  -0.142  0.00  0.00    +0.000 A 
ATOM      4  C   LIG    1        8.457  -1.221   0.153  0.00  0.00    +0.000 A 
ATOM      5  C   LIG    1        7.805  -2.203   0.921  0.00  0.00    +0.000 A 
ATOM      6  C   LIG    1        6.502  -1.984   1.394  0.00  0.00    +0.000 A 
ATOM      7  C   LIG    1        5.902  -0.730   1.157  0.00  0.00    +0.000 A 
ENDROOT
BRANCH   4   8
ATOM      8  N   LIG    1        9.769  -1.415  -0.350  0.00  0.00    +0.000 N 
ATOM      9  N   LIG    1       10.488  -2.529  -0.033  0.00  0.00    +0.000 NA
ATOM     10  C   LIG    1       11.657  -2.298  -0.624  0.00  0.00    +0.000 A 
ATOM     11  C   LIG    1       11.587  -1.028  -1.343  0.00  0.00    +0.000 A 
ATOM     12  C   LIG    1       12.655  -0.514  -2.083  0.00  0.00    +0.000 A 
ATOM     13  C   LIG    1       13.806  -1.318  -2.060  0.00  0.00    +0.000 A 
ATOM     14  C   LIG    1       13.892  -2.547  -1.358  0.00  0.00    +0.000 A 
ATOM     15  C   LIG    1       12.822  -3.084  -0.620  0.00  0.00    +0.000 A 
ATOM     16  N   LIG    1       10.366  -0.502  -1.141  0.00  0.00    +0.000 NA
ENDBRANCH   4   8
BRANCH   5  17
ATOM     17  O   LIG    1        8.376  -3.412   1.226  0.00  0.00    +0.000 OA
ATOM     18  H   LIG    1        9.295  -3.421   0.877  0.00  0.00    +0.000 HD
ENDBRANCH   5  17
BRANCH   6  19
ATOM     19  C   LIG    1        5.701  -3.086   2.074  0.00  0.00    +0.000 C 
BRANCH  19  20
ATOM     20  C   LIG    1        4.877  -4.012   1.121  0.00  0.00    +0.000 C 
ATOM     21  C   LIG    1        3.865  -3.169   0.344  0.00  0.00    +0.000 C 
BRANCH  20  22
ATOM     22  C   LIG    1        5.784  -4.896   0.228  0.00  0.00    +0.000 C 
BRANCH  22  23
ATOM     23 SI   LIG    1        4.989  -6.144  -1.024  0.00  0.00    +0.000 Si
ATOM     24  C   LIG    1        6.419  -7.092  -1.823  0.00  0.00    +0.000 C 
BRANCH  23  25
ATOM     25  O   LIG    1        4.160  -5.300  -2.213  0.00  0.00    +0.000 OA
BRANCH  25  26
ATOM     26 SI   LIG    1        4.386  -4.167  -3.430  0.00  0.00    +0.000 Si
ATOM     27  C   LIG    1        2.745  -3.816  -4.290  0.00  0.00    +0.000 C 
ATOM     28  C   LIG    1        5.619  -4.729  -4.733  0.00  0.00    +0.000 C 
ATOM     29  C   LIG    1        5.034  -2.505  -2.822  0.00  0.00    +0.000 C 
ENDBRANCH  25  26
ENDBRANCH  23  25
BRANCH  23  30
ATOM     30  O   LIG    1        3.947  -7.193  -0.233  0.00  0.00    +0.000 OA
BRANCH  30  31
ATOM     31 SI   LIG    1        2.951  -8.518  -0.476  0.00  0.00    +0.000 Si
ATOM     32  C   LIG    1        3.878 -10.014  -1.157  0.00  0.00    +0.000 C 
ATOM     33  C   LIG    1        1.502  -8.118  -1.609  0.00  0.00    +0.000 C 
ATOM     34  C   LIG    1        2.149  -9.130   1.135  0.00  0.00    +0.000 C 
ENDBRANCH  30  31
ENDBRANCH  23  30
ENDBRANCH  22  23
ENDBRANCH  20  22
ENDBRANCH  19  20
ENDBRANCH   6  19
TORSDOF 10
