REMARK  Name = *****
REMARK                            x       y       z     vdW  Elec       q    Type
REMARK                         _______ _______ _______ _____ _____    ______ ____
ROOT
ATOM      1  C   LIG    1        3.610   0.051  -0.068  0.00  0.00    +0.145 C 
ATOM      2  C   LIG    1        4.256  -0.195   1.104  0.00  0.00    +0.076 C 
ATOM      3  S   LIG    1        3.403  -0.699   2.562  0.00  0.00    -0.107 S 
ATOM      4  C   LIG    1        4.816  -0.619   3.725  0.00  0.00    +0.093 C 
ATOM      5  C   LIG    1        6.101  -0.837   2.927  0.00  0.00    +0.094 C 
ATOM      6  S   LIG    1        5.970   0.066   1.360  0.00  0.00    -0.114 S 
ENDROOT
BRANCH   4   7
ATOM      7  C   LIG    1        4.663  -1.629   4.854  0.00  0.00    -0.015 A 
ATOM      8  C   LIG    1        4.588  -1.254   6.209  0.00  0.00    +0.047 A 
ATOM      9 CL   LIG    1        4.672   0.396   6.717  0.00  0.00    -0.083 Cl
ATOM     10  C   LIG    1        4.452  -2.217   7.216  0.00  0.00    +0.040 A 
ATOM     11  C   LIG    1        4.394  -3.567   6.886  0.00  0.00    +0.042 A 
ATOM     12 CL   LIG    1        4.231  -4.748   8.125  0.00  0.00    -0.084 Cl
ATOM     13  C   LIG    1        4.468  -3.968   5.558  0.00  0.00    +0.020 A 
ATOM     14  C   LIG    1        4.599  -3.009   4.553  0.00  0.00    +0.007 A 
ENDBRANCH   4   7
BRANCH   1  15
ATOM     15  N   LIG    1        4.223   0.321  -1.314  0.00  0.00    -0.296 N 
ATOM     16  C   LIG    1        5.444  -0.124  -1.800  0.00  0.00    +0.204 A 
ATOM     17  N   LIG    1        5.710   0.296  -3.014  0.00  0.00    -0.244 NA
ATOM     18  C   LIG    1        4.617   1.022  -3.384  0.00  0.00    +0.130 A 
ATOM     19  C   LIG    1        3.681   1.025  -2.381  0.00  0.00    +0.113 A 
ENDBRANCH   1  15
BRANCH   1  21
ATOM     20  N   LIG    1        1.052   0.051  -0.068  0.00  0.00    -0.189 NA
ATOM     21  C   LIG    1        2.204   0.051  -0.068  0.00  0.00    +0.119 C 
ENDBRANCH   1  21
TORSDOF 3
