REMARK  Name = *****
REMARK                            x       y       z     vdW  Elec       q    Type
REMARK                         _______ _______ _______ _____ _____    ______ ____
ROOT
ATOM      1  C   LIG    1        6.681   3.801   0.863  0.00  0.00    -0.011 A 
ATOM      2  C   LIG    1        8.079   3.791   0.716  0.00  0.00    +0.051 A 
ATOM      3  C   LIG    1        8.890   4.458   1.629  0.00  0.00    +0.121 A 
ATOM      4  C   LIG    1        8.343   5.138   2.711  0.00  0.00    +0.090 A 
ATOM      5  C   LIG    1        6.962   5.133   2.873  0.00  0.00    +0.121 A 
ATOM      6  C   LIG    1        6.132   4.468   1.972  0.00  0.00    +0.051 A 
ENDROOT
BRANCH   3   7
ATOM      7  O   LIG    1       10.238   4.434   1.418  0.00  0.00    -0.507 OA
ATOM      8  H   LIG    1       10.667   4.969   2.106  0.00  0.00    +0.292 HD
ENDBRANCH   3   7
BRANCH   5   9
ATOM      9  O   LIG    1        6.452   5.815   3.940  0.00  0.00    -0.507 OA
ATOM     10  H   LIG    1        5.483   5.742   3.920  0.00  0.00    +0.292 HD
ENDBRANCH   5   9
BRANCH   1  11
ATOM     11  C   LIG    1        5.810   3.120  -0.176  0.00  0.00    +0.158 C 
BRANCH  11  12
ATOM     12  O   LIG    1        4.562   3.822  -0.291  0.00  0.00    -0.386 OA
ATOM     13  H   LIG    1        4.795   4.722  -0.577  0.00  0.00    +0.210 HD
ENDBRANCH  11  12
BRANCH  11  14
ATOM     14  C   LIG    1        5.538   1.625   0.133  0.00  0.00    +0.117 C 
BRANCH  14  15
ATOM     15  N   LIG    1        4.748   1.007  -0.952  0.00  0.00    -0.311 NA
ATOM     16  H   LIG    1        3.885   1.550  -1.043  0.00  0.00    +0.122 HD
BRANCH  15  18
ATOM     17  C   LIG    1        3.464  -0.873  -1.824  0.00  0.00    +0.024 C 
ATOM     18  C   LIG    1        4.433  -0.409  -0.731  0.00  0.00    +0.048 C 
ATOM     19  C   LIG    1        5.689  -1.282  -0.761  0.00  0.00    +0.024 C 
ENDBRANCH  15  18
ENDBRANCH  14  15
ENDBRANCH  11  14
ENDBRANCH   1  11
TORSDOF 7
