REMARK  Name = *****
REMARK                            x       y       z     vdW  Elec       q    Type
REMARK                         _______ _______ _______ _____ _____    ______ ____
ROOT
ATOM      1  N   LIG    1        2.980  -0.798  -1.065  0.00  0.00    -0.344 NA
ATOM      2  C   LIG    1        3.595  -0.281  -2.237  0.00  0.00    +0.090 C 
ATOM      3  C   LIG    1        3.935  -1.187  -3.267  0.00  0.00    +0.052 C 
ATOM      4  C   LIG    1        4.561  -0.773  -4.444  0.00  0.00    +0.054 C 
ATOM      5  C   LIG    1        4.893   0.560  -4.613  0.00  0.00    +0.148 C 
ATOM      6  C   LIG    1        4.604   1.532  -3.642  0.00  0.00    +0.103 C 
ATOM      7  F   LIG    1        5.486   0.883  -5.772  0.00  0.00    -0.203 F 
ATOM      8  C   LIG    1        3.635  -2.631  -3.131  0.00  0.00    +0.203 C 
ATOM      9  O   LIG    1        3.872  -3.426  -4.039  0.00  0.00    -0.286 OA
ATOM     10  C   LIG    1        3.046  -3.107  -1.871  0.00  0.00    +0.122 C 
ATOM     11  C   LIG    1        3.923   1.080  -2.475  0.00  0.00    +0.171 C 
ATOM     12  F   LIG    1        3.611   2.010  -1.555  0.00  0.00    -0.201 F 
ATOM     13  C   LIG    1        2.777  -2.173  -0.950  0.00  0.00    +0.105 C 
ENDROOT
BRANCH   6  14
ATOM     14  N   LIG    1        4.973   2.901  -3.768  0.00  0.00    -0.323 NA
ATOM     15  C   LIG    1        3.836   3.755  -4.197  0.00  0.00    +0.123 C 
ATOM     16  C   LIG    1        4.253   5.257  -4.294  0.00  0.00    +0.068 C 
ATOM     17  C   LIG    1        3.130   6.085  -4.919  0.00  0.00    +0.025 C 
ATOM     18  N   LIG    1        5.482   5.489  -5.090  0.00  0.00    -0.310 NA
ATOM     19  H   LIG    1        5.310   5.176  -6.047  0.00  0.00    +0.122 HD
ATOM     20  C   LIG    1        6.568   4.665  -4.526  0.00  0.00    +0.100 C 
ATOM     21  C   LIG    1        6.217   3.165  -4.530  0.00  0.00    +0.120 C 
ENDBRANCH   6  14
BRANCH   1  23
ATOM     22  C   LIG    1        3.590   0.319   1.074  0.00  0.00    +0.027 C 
ATOM     23  C   LIG    1        2.519   0.100   0.015  0.00  0.00    +0.118 C 
ENDBRANCH   1  23
BRANCH  10  24
ATOM     24  C   LIG    1        2.734  -4.527  -1.597  0.00  0.00    +0.342 C 
ATOM     25  O   LIG    1        2.245  -4.915  -0.552  0.00  0.00    -0.245 OA
BRANCH  24  26
ATOM     26  O   LIG    1        3.030  -5.373  -2.612  0.00  0.00    -0.477 OA
ATOM     27  H   LIG    1        3.406  -4.930  -3.411  0.00  0.00    +0.295 HD
ENDBRANCH  24  26
ENDBRANCH  10  24
TORSDOF 4
