REMARK  Name = *****
REMARK                            x       y       z     vdW  Elec       q    Type
REMARK                         _______ _______ _______ _____ _____    ______ ____
ROOT
ATOM      1  C   LIG    1        1.096   0.062   0.034  0.00  0.00    +0.125 C 
ATOM      2  C   LIG    1        2.582   0.088  -0.089  0.00  0.00    +0.210 C 
ATOM      3  N   LIG    1        3.251  -1.118  -0.260  0.00  0.00    -0.171 NA
ATOM      4  O   LIG    1        2.617  -2.218  -0.313  0.00  0.00    -0.620 OA
ATOM      5  C   LIG    1        4.618  -1.121  -0.372  0.00  0.00    +0.357 C 
ATOM      6  CA  LIG    1        5.281   0.082  -0.309  0.00  0.00    +0.213 C 
ATOM      7  N   LIG    1        4.671   1.286  -0.142  0.00  0.00    -0.237 NA
ATOM      8  C   LIG    1        3.329   1.256  -0.035  0.00  0.00    +0.186 C 
ENDROOT
BRANCH   6   9
ATOM      9  C   LIG    1        6.761   0.117  -0.427  0.00  0.00    +0.361 C 
ATOM     10  O   LIG    1        7.465  -0.864  -0.581  0.00  0.00    -0.243 OA
BRANCH   9  11
ATOM     11  OXT LIG    1        7.217   1.389  -0.339  0.00  0.00    -0.476 OA
ATOM     12  HXT LIG    1        6.458   2.005  -0.216  0.00  0.00    +0.295 HD
ENDBRANCH   9  11
ENDBRANCH   6   9
TORSDOF 2
