REMARK  Name = *****
REMARK                            x       y       z     vdW  Elec       q    Type
REMARK                         _______ _______ _______ _____ _____    ______ ____
ROOT
ATOM      1  C   LIG    1        5.612  -0.770   1.376  0.00  0.00    +0.058 C 
ATOM      2  C   LIG    1        5.885  -0.462  -0.107  0.00  0.00    +0.024 C 
ENDROOT
BRANCH   1   3
ATOM      3  N   LIG    1        4.802   0.346   1.957  0.00  0.00    -0.292 NA
ATOM      4  C   LIG    1        4.668   0.296   3.414  0.00  0.00    +0.106 C 
BRANCH   3   5
ATOM      5  C   LIG    1        3.452   0.461   1.348  0.00  0.00    +0.173 C 
BRANCH   5   7
ATOM      6  C   LIG    1        2.304   2.844   1.725  0.00  0.00    +0.005 C 
ATOM      7  C   LIG    1        2.835   1.787   1.577  0.00  0.00    -0.090 C 
ENDBRANCH   5   7
ENDBRANCH   3   5
ENDBRANCH   1   3
BRANCH   1   8
ATOM      8  C   LIG    1        6.979  -1.205   2.072  0.00  0.00    +0.053 C 
BRANCH   8   9
ATOM      9  C   LIG    1        8.179  -0.267   2.148  0.00  0.00    -0.046 A 
ATOM     10  C   LIG    1        8.753   0.069   3.385  0.00  0.00    +0.003 A 
ATOM     11  C   LIG    1        9.809   0.989   3.471  0.00  0.00    +0.000 A 
ATOM     12  C   LIG    1       10.341   1.559   2.318  0.00  0.00    +0.000 A 
ATOM     13  C   LIG    1        9.866   1.148   1.079  0.00  0.00    +0.000 A 
ATOM     14  C   LIG    1        8.825   0.215   1.000  0.00  0.00    +0.003 A 
ENDBRANCH   8   9
ENDBRANCH   1   8
TORSDOF 5
