REMARK  Name = *****
REMARK                            x       y       z     vdW  Elec       q    Type
REMARK                         _______ _______ _______ _____ _____    ______ ____
ROOT
ATOM      1  C   LIG    1       10.699  -2.116  -8.085  0.00  0.00    +0.165 C 
ATOM      2  C   LIG    1       10.577  -0.690  -8.789  0.00  0.00    +0.012 C 
ATOM      3  C   LIG    1       11.956   0.025  -8.583  0.00  0.00    +0.007 C 
ATOM      4  C   LIG    1       12.094   1.112  -7.474  0.00  0.00    +0.037 C 
ATOM      5  C   LIG    1       10.879   2.056  -7.354  0.00  0.00    +0.153 C 
ATOM      6  C   LIG    1        9.611   1.176  -7.185  0.00  0.00    +0.154 C 
ATOM      7  F   LIG    1       10.756   2.674  -8.586  0.00  0.00    -0.238 F 
ATOM      8  C   LIG    1       11.089   3.234  -6.282  0.00  0.00    +0.047 C 
ATOM      9  C   LIG    1       12.502   3.883  -6.388  0.00  0.00    -0.020 C 
ATOM     10  C   LIG    1       12.829   4.881  -5.531  0.00  0.00    +0.054 C 
ATOM     11  C   LIG    1       12.628   4.467  -4.091  0.00  0.00    +0.179 C 
ATOM     12  C   LIG    1       11.647   3.374  -3.820  0.00  0.00    +0.047 C 
ATOM     13  O   LIG    1       13.179   5.073  -3.181  0.00  0.00    -0.288 OA
ATOM     14  C   LIG    1       13.647   2.943  -6.688  0.00  0.00    +0.194 C 
ATOM     15  F   LIG    1       13.969   2.221  -5.575  0.00  0.00    -0.241 F 
ATOM     16  C   LIG    1       10.028   4.346  -6.532  0.00  0.00    +0.023 C 
ATOM     17  C   LIG    1       10.930   2.817  -4.816  0.00  0.00    -0.009 C 
ATOM     18  C   LIG    1       13.350   1.955  -7.792  0.00  0.00    +0.048 C 
ATOM     19  C   LIG    1       12.923  -1.132  -8.315  0.00  0.00    +0.039 C 
ATOM     20  C   LIG    1       10.392  -0.932 -10.318  0.00  0.00    +0.015 C 
ATOM     21  C   LIG    1        9.402   0.223  -8.371  0.00  0.00    +0.044 C 
ATOM     22  C   LIG    1       12.112  -2.134  -7.498  0.00  0.00    +0.162 C 
ATOM     23  O   LIG    1       12.619  -3.449  -7.683  0.00  0.00    -0.343 OA
ATOM     24  C   LIG    1       11.845  -4.035  -8.726  0.00  0.00    +0.166 C 
ATOM     25  C   LIG    1       12.695  -4.211  -9.981  0.00  0.00    +0.073 C 
ATOM     26  C   LIG    1       11.353  -5.401  -8.268  0.00  0.00    +0.073 C 
ATOM     27  O   LIG    1       10.730  -3.193  -9.034  0.00  0.00    -0.332 OA
ENDROOT
BRANCH   1  28
ATOM     28  C   LIG    1        9.646  -2.404  -7.001  0.00  0.00    +0.205 C 
ATOM     29  O   LIG    1        9.730  -1.849  -5.896  0.00  0.00    -0.291 OA
BRANCH  28  30
ATOM     30  C   LIG    1        8.435  -3.333  -7.275  0.00  0.00    +0.309 C 
BRANCH  30  31
ATOM     31  O   LIG    1        8.142  -3.955  -8.523  0.00  0.00    -0.457 OA
BRANCH  31  33
ATOM     32  C   LIG    1        7.172  -5.788  -9.674  0.00  0.00    +0.136 C 
ATOM     33  C   LIG    1        7.939  -5.301  -8.482  0.00  0.00    +0.304 C 
ATOM     34  O   LIG    1        8.302  -6.055  -7.575  0.00  0.00    -0.251 OA
ENDBRANCH  31  33
ENDBRANCH  30  31
ENDBRANCH  28  30
ENDBRANCH   1  28
BRANCH   6  35
ATOM     35  O   LIG    1        8.416   1.955  -7.093  0.00  0.00    -0.389 OA
ATOM     36  H   LIG    1        8.320   2.452  -7.928  0.00  0.00    +0.210 HD
ENDBRANCH   6  35
TORSDOF 5
