REMARK  Name = *****
REMARK                            x       y       z     vdW  Elec       q    Type
REMARK                         _______ _______ _______ _____ _____    ______ ____
ROOT
ATOM      1  C   LIG    1        7.429   0.811  -1.687  0.00  0.00    -0.011 A 
ATOM      2  C   LIG    1        8.820   0.985  -1.782  0.00  0.00    +0.051 A 
ATOM      3  C   LIG    1        9.664  -0.122  -1.883  0.00  0.00    +0.121 A 
ATOM      4  C   LIG    1        9.155  -1.414  -1.886  0.00  0.00    +0.090 A 
ATOM      5  C   LIG    1        7.779  -1.591  -1.787  0.00  0.00    +0.121 A 
ATOM      6  C   LIG    1        6.917  -0.498  -1.680  0.00  0.00    +0.051 A 
ENDROOT
BRANCH   3   7
ATOM      7  O   LIG    1       11.006   0.111  -1.978  0.00  0.00    -0.507 OA
ATOM      8  H   LIG    1       11.459  -0.744  -2.057  0.00  0.00    +0.292 HD
ENDBRANCH   3   7
BRANCH   5   9
ATOM      9  O   LIG    1        7.304  -2.871  -1.800  0.00  0.00    -0.507 OA
ATOM     10  H   LIG    1        6.332  -2.833  -1.787  0.00  0.00    +0.292 HD
ENDBRANCH   5   9
BRANCH   1  11
ATOM     11  C   LIG    1        6.526   2.025  -1.585  0.00  0.00    +0.158 C 
BRANCH  11  12
ATOM     12  O   LIG    1        5.229   1.726  -2.118  0.00  0.00    -0.386 OA
ATOM     13  H   LIG    1        4.640   2.395  -1.715  0.00  0.00    +0.210 HD
ENDBRANCH  11  12
BRANCH  11  14
ATOM     14  C   LIG    1        6.362   2.525  -0.126  0.00  0.00    +0.117 C 
BRANCH  14  15
ATOM     15  N   LIG    1        5.406   3.658  -0.061  0.00  0.00    -0.311 NA
ATOM     16  H   LIG    1        5.750   4.410  -0.663  0.00  0.00    +0.122 HD
BRANCH  15  18
ATOM     17  C   LIG    1        4.331   5.420   1.260  0.00  0.00    +0.024 C 
ATOM     18  C   LIG    1        5.254   4.197   1.305  0.00  0.00    +0.048 C 
ATOM     19  C   LIG    1        4.673   3.168   2.277  0.00  0.00    +0.024 C 
ENDBRANCH  15  18
ENDBRANCH  14  15
ENDBRANCH  11  14
ENDBRANCH   1  11
TORSDOF 7
