REMARK  Name = *****
REMARK                            x       y       z     vdW  Elec       q    Type
REMARK                         _______ _______ _______ _____ _____    ______ ____
ROOT
ATOM      1  C   LIG    1       -5.818  -3.869  -1.017  0.00  0.00    +0.183 C 
ATOM      2  C   LIG    1       -7.315  -3.471  -1.119  0.00  0.00    +0.008 C 
ATOM      3  C   LIG    1       -7.484  -2.282  -2.109  0.00  0.00    +0.015 C 
ATOM      4  C   LIG    1       -7.655  -2.985   0.322  0.00  0.00    +0.002 C 
ATOM      5  C   LIG    1       -8.390  -3.988   1.243  0.00  0.00    -0.003 C 
ATOM      6  C   LIG    1       -9.475  -4.830   0.546  0.00  0.00    +0.002 C 
ATOM      7  C   LIG    1       -8.815  -5.548  -0.642  0.00  0.00    +0.005 C 
ATOM      8  C   LIG    1      -10.878  -4.139   0.310  0.00  0.00    -0.007 C 
ATOM      9  C   LIG    1      -11.903  -5.272   0.017  0.00  0.00    +0.016 C 
ATOM     10  C   LIG    1      -11.294  -3.321   1.546  0.00  0.00    -0.060 C 
ATOM     11  C   LIG    1      -12.552  -2.834   1.633  0.00  0.00    +0.046 C 
ATOM     12  C   LIG    1      -12.779  -1.888   0.474  0.00  0.00    +0.156 C 
ATOM     13  O   LIG    1      -13.483  -0.894   0.633  0.00  0.00    -0.293 OA
ATOM     14  C   LIG    1      -12.255  -2.304  -0.894  0.00  0.00    +0.080 C 
ATOM     15  C   LIG    1      -10.209  -2.498   2.211  0.00  0.00    +0.032 C 
ATOM     16  C   LIG    1      -10.948  -3.115  -0.848  0.00  0.00    +0.019 C 
ATOM     17  C   LIG    1       -8.965  -3.323   2.504  0.00  0.00    +0.008 C 
ATOM     18  C   LIG    1       -6.296  -2.579   0.954  0.00  0.00    +0.008 C 
ATOM     19  C   LIG    1       -8.163  -4.637  -1.672  0.00  0.00    +0.011 C 
ATOM     20  C   LIG    1       -5.228  -2.798  -0.106  0.00  0.00    +0.045 C 
ENDROOT
BRANCH   1  21
ATOM     21  O   LIG    1       -5.201  -3.849  -2.312  0.00  0.00    -0.461 OA
BRANCH  21  22
ATOM     22  C   LIG    1       -3.988  -4.449  -2.420  0.00  0.00    +0.307 C 
ATOM     23  O   LIG    1       -3.424  -5.058  -1.519  0.00  0.00    -0.251 OA
BRANCH  22  25
ATOM     24  C   LIG    1       -3.287  -2.848  -4.222  0.00  0.00    +0.015 C 
ATOM     25  C   LIG    1       -3.437  -4.304  -3.815  0.00  0.00    +0.117 C 
ENDBRANCH  22  25
ENDBRANCH  21  22
ENDBRANCH   1  21
TORSDOF 3
