REMARK  Name = *****
REMARK                            x       y       z     vdW  Elec       q    Type
REMARK                         _______ _______ _______ _____ _____    ______ ____
ROOT
ATOM      1  C   LIG    1        3.044  -3.563   0.536  0.00  0.00    +0.213 C 
ATOM      2  O   LIG    1        3.752  -3.544   1.785  0.00  0.00    -0.444 OA
ATOM      3  C   LIG    1        3.903  -4.829   2.252  0.00  0.00    +0.408 C 
ATOM      4  O   LIG    1        4.541  -5.074   3.258  0.00  0.00    -0.226 OA
ATOM      5  N   LIG    1        3.269  -5.709   1.391  0.00  0.00    -0.234 N 
ATOM      6  C   LIG    1        2.495  -4.971   0.434  0.00  0.00    +0.163 C 
ENDROOT
BRANCH   5   7
ATOM      7  C   LIG    1        3.144  -7.114   1.547  0.00  0.00    +0.040 A 
ATOM      8  C   LIG    1        2.814  -7.923   0.458  0.00  0.00    +0.025 A 
ATOM      9  C   LIG    1        2.666  -9.318   0.594  0.00  0.00    +0.025 A 
ATOM     10  C   LIG    1        2.789  -9.969   1.831  0.00  0.00    +0.036 A 
ATOM     11  C   LIG    1        3.148  -9.144   2.907  0.00  0.00    +0.025 A 
ATOM     12  C   LIG    1        3.340  -7.753   2.768  0.00  0.00    +0.025 A 
BRANCH  10  13
ATOM     13  N   LIG    1        2.539 -11.394   1.972  0.00  0.00    -0.267 N 
ATOM     14  C   LIG    1        2.598 -12.070   3.211  0.00  0.00    +0.246 C 
ATOM     15  O   LIG    1        2.807 -11.558   4.312  0.00  0.00    -0.273 OA
ATOM     16  C   LIG    1        2.271 -13.582   3.184  0.00  0.00    +0.256 C 
ATOM     17  O   LIG    1        2.252 -14.278   1.954  0.00  0.00    -0.369 OA
ATOM     18  C   LIG    1        1.582 -13.492   0.981  0.00  0.00    +0.180 C 
ATOM     19  C   LIG    1        2.376 -12.211   0.756  0.00  0.00    +0.141 C 
ENDBRANCH  10  13
ENDBRANCH   5   7
BRANCH   1  20
ATOM     20  C   LIG    1        3.983  -3.247  -0.634  0.00  0.00    +0.150 C 
BRANCH  20  23
ATOM     21  O   LIG    1        2.798  -0.938  -1.742  0.00  0.00    -0.270 OA
ATOM     22  C   LIG    1        3.872  -0.812  -1.158  0.00  0.00    +0.251 C 
ATOM     23  N   LIG    1        4.508  -1.897  -0.588  0.00  0.00    -0.307 N 
ATOM     24  H   LIG    1        5.330  -1.718  -0.022  0.00  0.00    +0.149 HD
BRANCH  22  25
ATOM     25  C   LIG    1        4.564   0.465  -1.010  0.00  0.00    +0.075 A 
ATOM     26  S   LIG    1        6.069   0.568  -0.180  0.00  0.00    -0.072 S 
ATOM     27  C   LIG    1        6.155   2.235  -0.415  0.00  0.00    +0.079 A 
ATOM     28 CL   LIG    1        7.484   3.108   0.231  0.00  0.00    -0.076 Cl
ATOM     29  C   LIG    1        5.101   2.744  -1.127  0.00  0.00    +0.028 A 
ATOM     30  C   LIG    1        4.171   1.713  -1.473  0.00  0.00    +0.022 A 
ENDBRANCH  22  25
ENDBRANCH  20  23
ENDBRANCH   1  20
TORSDOF 5
