REMARK  Name = *****
REMARK                            x       y       z     vdW  Elec       q    Type
REMARK                         _______ _______ _______ _____ _____    ______ ____
ROOT
ATOM      1  C   LIG    1        9.844   2.518  -1.588  0.00  0.00    +0.170 C 
ENDROOT
BRANCH   1   2
ATOM      2  C   LIG    1       11.025   3.252  -0.962  0.00  0.00    +0.001 A 
ATOM      3  C   LIG    1       11.162   3.429   0.428  0.00  0.00    +0.048 A 
ATOM      4 CL   LIG    1       10.017   2.788   1.551  0.00  0.00    -0.083 Cl
ATOM      5  C   LIG    1       12.242   4.145   0.956  0.00  0.00    +0.040 A 
ATOM      6  C   LIG    1       13.199   4.688   0.103  0.00  0.00    +0.042 A 
ATOM      7 CL   LIG    1       14.532   5.560   0.750  0.00  0.00    -0.084 Cl
ATOM      8  C   LIG    1       13.087   4.524  -1.273  0.00  0.00    +0.020 A 
ATOM      9  C   LIG    1       12.012   3.807  -1.800  0.00  0.00    +0.009 A 
ENDBRANCH   1   2
BRANCH   1  10
ATOM     10  O   LIG    1        9.397   3.187  -2.791  0.00  0.00    -0.365 OA
BRANCH  10  11
ATOM     11  C   LIG    1        8.937   4.541  -2.629  0.00  0.00    +0.197 C 
BRANCH  11  17
ATOM     12 CL   LIG    1        4.731   4.634   1.673  0.00  0.00    -0.084 Cl
ATOM     13  C   LIG    1        5.896   4.685   0.408  0.00  0.00    +0.042 A 
ATOM     14  C   LIG    1        6.962   5.577   0.487  0.00  0.00    +0.040 A 
ATOM     15  C   LIG    1        7.934   5.585  -0.516  0.00  0.00    +0.048 A 
ATOM     16 CL   LIG    1        9.227   6.720  -0.357  0.00  0.00    -0.083 Cl
ATOM     17  C   LIG    1        7.853   4.685  -1.593  0.00  0.00    -0.004 A 
ATOM     18  C   LIG    1        6.736   3.836  -1.682  0.00  0.00    +0.009 A 
ATOM     19  C   LIG    1        5.769   3.827  -0.680  0.00  0.00    +0.020 A 
ENDBRANCH  11  17
ENDBRANCH  10  11
ENDBRANCH   1  10
BRANCH   1  20
ATOM     20  C   LIG    1       10.227   1.061  -1.944  0.00  0.00    +0.159 C 
BRANCH  20  21
ATOM     21  N   LIG    1        9.092   0.280  -2.413  0.00  0.00    -0.334 N 
ATOM     22  C   LIG    1        8.380  -0.632  -1.689  0.00  0.00    +0.199 A 
ATOM     23  N   LIG    1        7.334  -1.065  -2.348  0.00  0.00    -0.244 NA
ATOM     24  C   LIG    1        7.412  -0.466  -3.576  0.00  0.00    +0.130 A 
ATOM     25  C   LIG    1        8.536   0.315  -3.663  0.00  0.00    +0.107 A 
ENDBRANCH  20  21
ENDBRANCH   1  20
TORSDOF 6
