REMARK  Name = *****
REMARK                            x       y       z     vdW  Elec       q    Type
REMARK                         _______ _______ _______ _____ _____    ______ ____
ROOT
ATOM      1  C   LIG    1       -5.350  -4.692  -4.946  0.00  0.00    +0.183 C 
ATOM      2  C   LIG    1       -5.390  -5.085  -6.501  0.00  0.00    +0.021 C 
ATOM      3  C   LIG    1       -3.985  -5.659  -6.952  0.00  0.00    +0.016 C 
ATOM      4  C   LIG    1       -5.543  -3.718  -7.232  0.00  0.00    +0.003 C 
ATOM      5  C   LIG    1       -6.961  -3.389  -7.750  0.00  0.00    -0.000 C 
ATOM      6  C   LIG    1       -7.529  -4.536  -8.613  0.00  0.00    +0.035 C 
ATOM      7  C   LIG    1       -7.610  -5.835  -7.782  0.00  0.00    +0.120 C 
ATOM      8  C   LIG    1       -6.907  -4.696 -10.058  0.00  0.00    +0.013 C 
ATOM      9  C   LIG    1       -8.006  -5.347 -10.947  0.00  0.00    +0.020 C 
ATOM     10  C   LIG    1       -6.492  -3.348 -10.706  0.00  0.00    -0.056 C 
ATOM     11  C   LIG    1       -5.739  -3.395 -11.833  0.00  0.00    +0.051 C 
ATOM     12  C   LIG    1       -4.431  -4.078 -11.511  0.00  0.00    +0.179 C 
ATOM     13  O   LIG    1       -3.357  -3.668 -11.923  0.00  0.00    -0.288 OA
ATOM     14  C   LIG    1       -4.549  -5.341 -10.736  0.00  0.00    +0.047 C 
ATOM     15  C   LIG    1       -6.249  -2.125  -9.844  0.00  0.00    +0.032 C 
ATOM     16  C   LIG    1       -5.700  -5.636 -10.109  0.00  0.00    -0.012 C 
ATOM     17  C   LIG    1       -7.050  -2.083  -8.556  0.00  0.00    +0.008 C 
ATOM     18  C   LIG    1       -4.935  -2.680  -6.266  0.00  0.00    +0.009 C 
ATOM     19  C   LIG    1       -6.416  -6.186  -6.880  0.00  0.00    +0.043 C 
ATOM     20  C   LIG    1       -4.456  -3.438  -5.026  0.00  0.00    +0.057 C 
ENDROOT
BRANCH   1  21
ATOM     21  C   LIG    1       -6.713  -4.335  -4.265  0.00  0.00    +0.214 C 
ATOM     22  O   LIG    1       -7.641  -5.146  -4.235  0.00  0.00    -0.289 OA
BRANCH  21  23
ATOM     23  C   LIG    1       -6.792  -3.011  -3.455  0.00  0.00    +0.310 C 
BRANCH  23  24
ATOM     24  O   LIG    1       -7.996  -2.830  -2.731  0.00  0.00    -0.457 OA
BRANCH  24  25
ATOM     25  C   LIG    1       -9.026  -2.546  -3.566  0.00  0.00    +0.307 C 
ATOM     26  O   LIG    1       -9.070  -1.558  -4.287  0.00  0.00    -0.251 OA
BRANCH  25  27
ATOM     27  C   LIG    1      -10.031  -3.659  -3.541  0.00  0.00    +0.117 C 
ATOM     28  C   LIG    1      -11.365  -3.185  -3.031  0.00  0.00    +0.015 C 
ENDBRANCH  25  27
ENDBRANCH  24  25
ENDBRANCH  23  24
ENDBRANCH  21  23
ENDBRANCH   1  21
BRANCH   7  29
ATOM     29  O   LIG    1       -8.762  -5.753  -6.941  0.00  0.00    -0.391 OA
ATOM     30  H   LIG    1       -9.550  -5.736  -7.509  0.00  0.00    +0.210 HD
ENDBRANCH   7  29
BRANCH   1  31
ATOM     31  O   LIG    1       -4.611  -5.714  -4.225  0.00  0.00    -0.419 OA
BRANCH  31  32
ATOM     32  C   LIG    1       -4.653  -5.730  -2.854  0.00  0.00    +0.511 C 
ATOM     33  O   LIG    1       -5.598  -5.487  -2.146  0.00  0.00    -0.203 OA
BRANCH  32  34
ATOM     34  O   LIG    1       -3.361  -5.886  -2.445  0.00  0.00    -0.434 OA
BRANCH  34  36
ATOM     35  C   LIG    1       -3.500  -6.754  -0.172  0.00  0.00    +0.048 C 
ATOM     36  C   LIG    1       -3.106  -5.587  -1.054  0.00  0.00    +0.232 C 
ENDBRANCH  34  36
ENDBRANCH  32  34
ENDBRANCH  31  32
ENDBRANCH   1  31
TORSDOF 10
