REMARK  Name = *****
REMARK                            x       y       z     vdW  Elec       q    Type
REMARK                         _______ _______ _______ _____ _____    ______ ____
ROOT
ATOM      1  C   LIG    1        4.218   3.605  -4.077  0.00  0.00    +0.110 A 
ATOM      2  S   LIG    1        4.086   5.316  -3.926  0.00  0.00    -0.067 S 
ATOM      3  C   LIG    1        4.731   5.525  -5.505  0.00  0.00    +0.043 A 
ATOM      4  C   LIG    1        5.005   4.271  -6.048  0.00  0.00    +0.079 A 
ATOM      5  C   LIG    1        5.547   4.196  -7.348  0.00  0.00    +0.032 A 
ATOM      6  C   LIG    1        5.798   5.370  -8.068  0.00  0.00    +0.047 A 
ATOM      7  C   LIG    1        5.512   6.602  -7.497  0.00  0.00    +0.118 A 
ATOM      8  C   LIG    1        4.977   6.711  -6.214  0.00  0.00    +0.062 A 
ATOM      9  N   LIG    1        4.710   3.195  -5.230  0.00  0.00    -0.239 NA
ENDROOT
BRANCH   1  14
ATOM     10  C   LIG    1        3.031   0.817  -0.973  0.00  0.00    +0.063 A 
ATOM     11  C   LIG    1        3.601   0.403  -2.186  0.00  0.00    +0.145 A 
ATOM     12  F   LIG    1        3.779  -0.909  -2.413  0.00  0.00    -0.203 F 
ATOM     13  C   LIG    1        3.971   1.306  -3.182  0.00  0.00    +0.050 A 
ATOM     14  C   LIG    1        3.808   2.685  -2.993  0.00  0.00    +0.010 A 
ATOM     15  C   LIG    1        3.269   3.111  -1.768  0.00  0.00    +0.012 A 
ATOM     16  C   LIG    1        2.899   2.192  -0.772  0.00  0.00    +0.026 A 
BRANCH  10  18
ATOM     17  C   LIG    1        1.721   0.145   0.999  0.00  0.00    +0.125 C 
ATOM     18  N   LIG    1        2.751  -0.137   0.017  0.00  0.00    -0.345 N 
ATOM     19  H   LIG    1        2.671  -1.067  -0.397  0.00  0.00    +0.146 HD
ENDBRANCH  10  18
ENDBRANCH   1  14
BRANCH   7  20
ATOM     20  O   LIG    1        5.746   7.764  -8.174  0.00  0.00    -0.507 OA
ATOM     21  H   LIG    1        6.118   7.551  -9.046  0.00  0.00    +0.292 HD
ENDBRANCH   7  20
TORSDOF 3
