REMARK  Name = *****
REMARK                            x       y       z     vdW  Elec       q    Type
REMARK                         _______ _______ _______ _____ _____    ______ ____
ROOT
ATOM      1  C   LIG    1       11.602   4.002   2.029  0.00  0.00    +0.051 C 
ATOM      2  C   LIG    1       11.596   3.850   3.563  0.00  0.00    +0.065 C 
ATOM      3  C   LIG    1       13.075   3.692   3.863  0.00  0.00    +0.140 C 
ATOM      4  O   LIG    1       13.555   3.783   4.988  0.00  0.00    -0.297 OA
ATOM      5  C   LIG    1       13.924   3.512   2.638  0.00  0.00    +0.106 C 
ATOM      6  C   LIG    1       12.892   3.310   1.541  0.00  0.00    +0.129 C 
ENDROOT
BRANCH   6   7
ATOM      7  O   LIG    1       12.683   1.915   1.345  0.00  0.00    -0.391 OA
ATOM      8  H   LIG    1       12.193   1.801   0.511  0.00  0.00    +0.210 HD
ENDBRANCH   6   7
BRANCH   1  10
ATOM      9  C   LIG    1       10.704   6.032   0.844  0.00  0.00    -0.000 C 
ATOM     10  C   LIG    1       11.620   5.466   1.647  0.00  0.00    -0.022 C 
BRANCH   9  11
ATOM     11  C   LIG    1       10.801   7.448   0.347  0.00  0.00    +0.137 C 
BRANCH  11  12
ATOM     12  O   LIG    1       11.437   7.368  -0.923  0.00  0.00    -0.388 OA
ATOM     13  H   LIG    1       12.230   6.816  -0.800  0.00  0.00    +0.210 HD
ENDBRANCH  11  12
BRANCH  11  14
ATOM     14  C   LIG    1        9.429   8.128   0.212  0.00  0.00    +0.039 C 
BRANCH  14  15
ATOM     15  C   LIG    1        9.452   9.579  -0.337  0.00  0.00    -0.011 C 
ATOM     16  C   LIG    1        8.017  10.129  -0.408  0.00  0.00    +0.007 C 
BRANCH  15  17
ATOM     17  C   LIG    1       10.382  10.546   0.439  0.00  0.00    +0.003 C 
BRANCH  17  18
ATOM     18  C   LIG    1       10.053  10.675   1.931  0.00  0.00    -0.000 C 
BRANCH  18  20
ATOM     19  C   LIG    1       10.584  11.729   4.154  0.00  0.00    +0.004 C 
ATOM     20  C   LIG    1       10.995  11.614   2.688  0.00  0.00    -0.003 C 
ENDBRANCH  18  20
ENDBRANCH  17  18
ENDBRANCH  15  17
ENDBRANCH  14  15
ENDBRANCH  11  14
ENDBRANCH   9  11
ENDBRANCH   1  10
BRANCH   2  21
ATOM     21  C   LIG    1       10.743   2.673   4.061  0.00  0.00    +0.011 C 
BRANCH  21  22
ATOM     22  C   LIG    1       10.783   2.557   5.590  0.00  0.00    +0.001 C 
BRANCH  22  23
ATOM     23  C   LIG    1        9.964   1.413   6.190  0.00  0.00    +0.004 C 
BRANCH  23  24
ATOM     24  C   LIG    1        8.457   1.547   5.961  0.00  0.00    +0.027 C 
BRANCH  24  25
ATOM     25  C   LIG    1        7.596   0.467   6.562  0.00  0.00    -0.020 C 
ATOM     26  C   LIG    1        8.008  -0.595   7.277  0.00  0.00    +0.087 C 
BRANCH  26  27
ATOM     27  C   LIG    1        7.088  -1.544   7.917  0.00  0.00    +0.329 C 
ATOM     28  O   LIG    1        7.402  -2.304   8.829  0.00  0.00    -0.246 OA
BRANCH  27  29
ATOM     29  O   LIG    1        5.857  -1.536   7.396  0.00  0.00    -0.477 OA
ATOM     30  H   LIG    1        5.382  -2.235   7.891  0.00  0.00    +0.295 HD
ENDBRANCH  27  29
ENDBRANCH  26  27
ENDBRANCH  24  25
ENDBRANCH  23  24
ENDBRANCH  22  23
ENDBRANCH  21  22
ENDBRANCH   2  21
TORSDOF 16
