REMARK  Name = *****
REMARK                            x       y       z     vdW  Elec       q    Type
REMARK                         _______ _______ _______ _____ _____    ______ ____
ROOT
ATOM      1  C6    A A  1        3.685   0.715   3.223  0.00  0.00    +0.147 A 
ATOM      2  C5    A A  1        4.005  -0.591   2.813  0.00  0.00    +0.147 A 
ATOM      3  N7    A A  1        3.392  -1.809   3.018  0.00  0.00    -0.231 NA
ATOM      4  C8    A A  1        4.160  -2.679   2.397  0.00  0.00    +0.203 A 
ATOM      5  N9    A A  1        5.249  -2.085   1.809  0.00  0.00    -0.285 N 
ATOM      6  C4    A A  1        5.162  -0.743   2.068  0.00  0.00    +0.167 A 
ATOM      7  N3    A A  1        6.024   0.223   1.702  0.00  0.00    -0.216 NA
ATOM      8  C2    A A  1        5.615   1.429   2.151  0.00  0.00    +0.225 A 
ATOM      9  N1    A A  1        4.523   1.722   2.885  0.00  0.00    -0.219 NA
ENDROOT
BRANCH   5  10
ATOM     10  C1*   A A  1        6.227  -2.752   0.976  0.00  0.00    +0.253 C 
ATOM     11  C2*   A A  1        7.633  -2.136   0.890  0.00  0.00    +0.195 C 
ATOM     12  C3*   A A  1        8.436  -3.333   0.414  0.00  0.00    +0.178 C 
ATOM     13  C4*   A A  1        7.776  -4.499   1.155  0.00  0.00    +0.177 C 
ATOM     14  O4*   A A  1        6.409  -4.109   1.452  0.00  0.00    -0.346 OA
BRANCH  11  15
ATOM     15  O2*   A A  1        8.158  -1.716   2.154  0.00  0.00    -0.385 OA
ATOM     16  H2*   A A  1        7.688  -0.886   2.378  0.00  0.00    +0.210 HD
ENDBRANCH  11  15
BRANCH  12  17
ATOM     17  O3*   A A  1        8.248  -3.471  -0.999  0.00  0.00    -0.386 OA
ATOM     18  H3*   A A  1        8.860  -4.162  -1.311  0.00  0.00    +0.210 HD
ENDBRANCH  12  17
BRANCH  13  19
ATOM     19  C5*   A A  1        8.473  -4.842   2.475  0.00  0.00    +0.190 C 
BRANCH  19  20
ATOM     20  O5*   A A  1        7.836  -5.969   3.079  0.00  0.00    -0.392 OA
ATOM     21  H5*   A A  1        6.885  -5.754   3.116  0.00  0.00    +0.209 HD
ENDBRANCH  19  20
ENDBRANCH  13  19
ENDBRANCH   5  10
BRANCH   1  22
ATOM     22  N6    A A  1        2.562   1.023   3.980  0.00  0.00    -0.341 N 
ATOM     23  H61   A A  1        2.184   0.222   4.478  0.00  0.00    +0.144 HD
ATOM     24  H62   A A  1        2.683   1.881   4.501  0.00  0.00    +0.144 HD
ENDBRANCH   1  22
TORSDOF 6
