REMARK  Name = *****
REMARK                            x       y       z     vdW  Elec       q    Type
REMARK                         _______ _______ _______ _____ _____    ______ ____
ROOT
ATOM      1  C   LIG    1        4.900   1.735   2.228  0.00  0.00    +0.084 C 
ATOM      2  N   LIG    1        4.547   3.140   1.998  0.00  0.00    -0.339 N 
ATOM      3  H   LIG    1        3.675   3.225   1.470  0.00  0.00    +0.146 HD
ATOM      4  C   LIG    1        4.581   4.001   3.101  0.00  0.00    +0.037 A 
ATOM      5  C   LIG    1        4.765   3.538   4.418  0.00  0.00    -0.026 A 
ATOM      6  C   LIG    1        4.837   4.446   5.491  0.00  0.00    +0.018 A 
ATOM      7  C   LIG    1        4.727   5.826   5.281  0.00  0.00    +0.055 A 
ATOM      8  C   LIG    1        4.513   6.256   3.963  0.00  0.00    +0.280 A 
ATOM      9  C   LIG    1        4.911   2.064   4.695  0.00  0.00    +0.039 C 
ATOM     10  C   LIG    1        4.443   5.370   2.882  0.00  0.00    +0.107 A 
ATOM     11  C   LIG    1        4.329   1.240   3.558  0.00  0.00    +0.028 C 
ENDROOT
BRANCH   8  12
ATOM     12  N   LIG    1        4.364   7.667   3.676  0.00  0.00    +0.080 N 
ATOM     13  O   LIG    1        5.260   8.203   3.003  0.00  0.00    -0.576 OA
ATOM     14  O   LIG    1        3.373   8.234   4.145  0.00  0.00    +0.042 OA
ENDBRANCH   8  12
BRANCH   1  15
ATOM     15  C   LIG    1        4.402   0.863   1.047  0.00  0.00    +0.103 C 
BRANCH  15  16
ATOM     16  N   LIG    1        2.933   0.879   0.897  0.00  0.00    -0.312 NA
ATOM     17  H   LIG    1        2.499   0.568   1.766  0.00  0.00    +0.122 HD
BRANCH  16  19
ATOM     18  C   LIG    1        2.841  -1.441  -0.029  0.00  0.00    +0.024 C 
ATOM     19  C   LIG    1        2.456   0.030  -0.203  0.00  0.00    +0.048 C 
ATOM     20  C   LIG    1        0.930   0.144  -0.282  0.00  0.00    +0.024 C 
ENDBRANCH  16  19
ENDBRANCH  15  16
ENDBRANCH   1  15
BRANCH   7  21
ATOM     21  C   LIG    1        4.832   6.766   6.449  0.00  0.00    +0.197 C 
BRANCH  21  22
ATOM     22  O   LIG    1        3.546   6.987   7.002  0.00  0.00    -0.390 OA
ATOM     23  H   LIG    1        3.077   7.601   6.405  0.00  0.00    +0.210 HD
ENDBRANCH  21  22
ENDBRANCH   7  21
TORSDOF 6
