REMARK  Name = *****
REMARK                            x       y       z     vdW  Elec       q    Type
REMARK                         _______ _______ _______ _____ _____    ______ ____
ROOT
ATOM      1  C   LIG    1        8.321  -3.288  -0.194  0.00  0.00    +0.080 A 
ATOM      2  C   LIG    1        9.441  -2.446  -0.325  0.00  0.00    +0.134 A 
ATOM      3  C   LIG    1       10.525  -2.620   0.549  0.00  0.00    +0.070 A 
ATOM      4  C   LIG    1       10.524  -3.606   1.540  0.00  0.00    +0.047 A 
ATOM      5  C   LIG    1        9.445  -4.498   1.589  0.00  0.00    +0.062 A 
ATOM      6 CL   LIG    1        9.425  -5.788   2.740  0.00  0.00    -0.082 Cl
ATOM      7  C   LIG    1        8.350  -4.335   0.743  0.00  0.00    +0.038 A 
ENDROOT
BRANCH   1  10
ATOM      8  N   LIG    1        6.700  -1.915  -1.410  0.00  0.00    -0.310 N 
ATOM      9  H   LIG    1        7.295  -1.128  -1.178  0.00  0.00    +0.149 HD
ATOM     10  C   LIG    1        7.085  -3.172  -1.007  0.00  0.00    +0.248 C 
ATOM     11  O   LIG    1        6.421  -4.193  -1.236  0.00  0.00    -0.270 OA
BRANCH   8  12
ATOM     12  C   LIG    1        5.425  -1.675  -2.063  0.00  0.00    +0.120 C 
BRANCH  12  13
ATOM     13  C   LIG    1        4.516  -0.686  -1.284  0.00  0.00    +0.103 C 
BRANCH  13  14
ATOM     14  N   LIG    1        4.165  -1.090   0.103  0.00  0.00    -0.301 NA
BRANCH  14  16
ATOM     15  C   LIG    1        3.886   1.313   0.918  0.00  0.00    +0.020 C 
ATOM     16  C   LIG    1        3.311  -0.097   0.787  0.00  0.00    +0.081 C 
ENDBRANCH  14  16
BRANCH  14  17
ATOM     17  C   LIG    1        3.503  -2.416   0.078  0.00  0.00    +0.081 C 
ATOM     18  C   LIG    1        3.201  -3.022   1.441  0.00  0.00    +0.020 C 
ENDBRANCH  14  17
ENDBRANCH  13  14
ENDBRANCH  12  13
ENDBRANCH   8  12
ENDBRANCH   1  10
BRANCH   4  19
ATOM     19  N   LIG    1       11.699  -3.802   2.287  0.00  0.00    -0.357 N 
ATOM     20  H   LIG    1       12.226  -2.953   2.464  0.00  0.00    +0.142 HD
ATOM     21  H   LIG    1       11.535  -4.345   3.134  0.00  0.00    +0.142 HD
ENDBRANCH   4  19
BRANCH   2  22
ATOM     22  O   LIG    1        9.453  -1.478  -1.300  0.00  0.00    -0.494 OA
ATOM     23  C   LIG    1       10.753  -1.157  -1.806  0.00  0.00    +0.277 C 
ENDBRANCH   2  22
TORSDOF 8
