REMARK  Name = *****
REMARK                            x       y       z     vdW  Elec       q    Type
REMARK                         _______ _______ _______ _____ _____    ______ ____
ROOT
ATOM      1  C   LIG    1      -12.866  -0.738  -4.647  0.00  0.00    +0.250 C 
ATOM      2  C   LIG    1      -13.869   0.206  -3.906  0.00  0.00    +0.092 C 
ATOM      3  C   LIG    1      -15.180   0.114  -4.779  0.00  0.00    +0.054 C 
ATOM      4  N   LIG    1      -16.521   0.410  -4.209  0.00  0.00    -0.292 NA
ATOM      5  C   LIG    1      -16.641   1.651  -3.406  0.00  0.00    +0.090 C 
ATOM      6  C   LIG    1      -15.529   2.002  -2.418  0.00  0.00    +0.051 C 
ATOM      7  C   LIG    1      -14.996   0.789  -1.709  0.00  0.00    -0.039 A 
ATOM      8  C   LIG    1      -15.400   0.515  -0.391  0.00  0.00    +0.053 A 
ATOM      9  C   LIG    1      -14.928  -0.631   0.203  0.00  0.00    +0.167 A 
ATOM     10  O   LIG    1      -15.241  -1.077   1.448  0.00  0.00    -0.453 OA
ATOM     11  C   LIG    1      -14.489  -2.307   1.490  0.00  0.00    +0.466 C 
ATOM     12  O   LIG    1      -13.708  -2.543   0.301  0.00  0.00    -0.453 OA
ATOM     13  C   LIG    1      -14.059  -1.464  -0.450  0.00  0.00    +0.167 A 
ATOM     14  C   LIG    1      -13.630  -1.213  -1.738  0.00  0.00    +0.054 A 
ATOM     15  C   LIG    1      -17.439   0.529  -5.369  0.00  0.00    +0.085 C 
ATOM     16  C   LIG    1      -16.559   0.859  -6.575  0.00  0.00    +0.017 C 
ATOM     17  C   LIG    1      -15.169   1.062  -5.991  0.00  0.00    +0.029 C 
ATOM     18  C   LIG    1      -15.073  -1.349  -5.202  0.00  0.00    +0.041 C 
ATOM     19  C   LIG    1      -14.138  -0.097  -2.419  0.00  0.00    -0.031 A 
ATOM     20  C   LIG    1      -13.816  -1.807  -5.125  0.00  0.00    +0.136 C 
ENDROOT
BRANCH  20  21
ATOM     21  O   LIG    1      -13.494  -3.131  -5.316  0.00  0.00    -0.496 OA
ATOM     22  C   LIG    1      -12.490  -3.647  -4.440  0.00  0.00    +0.277 C 
ENDBRANCH  20  21
BRANCH   1  23
ATOM     23  O   LIG    1      -12.266   0.036  -5.727  0.00  0.00    -0.451 OA
BRANCH  23  24
ATOM     24  C   LIG    1      -11.339  -0.549  -6.525  0.00  0.00    +0.340 C 
ATOM     25  O   LIG    1      -11.074  -1.745  -6.534  0.00  0.00    -0.248 OA
BRANCH  24  26
ATOM     26  C   LIG    1      -10.642   0.449  -7.500  0.00  0.00    +0.172 C 
BRANCH  26  27
ATOM     27  O   LIG    1       -9.881  -0.357  -8.440  0.00  0.00    -0.377 OA
ATOM     28  H   LIG    1      -10.307  -1.238  -8.465  0.00  0.00    +0.211 HD
ENDBRANCH  26  27
BRANCH  26  29
ATOM     29  C   LIG    1       -9.593   1.317  -6.816  0.00  0.00    +0.166 C 
BRANCH  29  30
ATOM     30  C   LIG    1      -10.114   2.398  -5.946  0.00  0.00    +0.310 C 
ATOM     31  O   LIG    1      -10.748   2.201  -4.903  0.00  0.00    -0.251 OA
BRANCH  30  33
ATOM     32  C   LIG    1      -10.131   4.757  -5.584  0.00  0.00    +0.280 C 
ATOM     33  O   LIG    1       -9.749   3.608  -6.402  0.00  0.00    -0.468 OA
ENDBRANCH  30  33
ENDBRANCH  29  30
ENDBRANCH  26  29
BRANCH  26  34
ATOM     34  C   LIG    1      -11.677   1.215  -8.350  0.00  0.00    +0.047 C 
BRANCH  34  35
ATOM     35  C   LIG    1      -11.069   2.209  -9.359  0.00  0.00    +0.006 C 
BRANCH  35  36
ATOM     36  C   LIG    1      -12.166   2.943 -10.146  0.00  0.00    +0.034 C 
BRANCH  36  37
ATOM     37  C   LIG    1      -11.643   3.975 -11.171  0.00  0.00    +0.060 C 
ATOM     38  C   LIG    1      -10.811   5.080 -10.511  0.00  0.00    +0.041 C 
ATOM     39  C   LIG    1      -12.818   4.612 -11.921  0.00  0.00    +0.041 C 
BRANCH  37  40
ATOM     40  O   LIG    1      -10.859   3.301 -12.158  0.00  0.00    -0.389 OA
ATOM     41  H   LIG    1       -9.918   3.368 -11.918  0.00  0.00    +0.210 HD
ENDBRANCH  37  40
ENDBRANCH  36  37
ENDBRANCH  35  36
ENDBRANCH  34  35
ENDBRANCH  26  34
ENDBRANCH  24  26
ENDBRANCH  23  24
ENDBRANCH   1  23
TORSDOF 13
