REMARK  Name = *****
REMARK                            x       y       z     vdW  Elec       q    Type
REMARK                         _______ _______ _______ _____ _____    ______ ____
ROOT
ATOM      1  C   LIG    1        3.953   2.397  -2.131  0.00  0.00    +0.099 A 
ATOM      2  C   LIG    1        4.029   0.985  -2.222  0.00  0.00    +0.047 A 
ATOM      3  C   LIG    1        4.128   0.418  -3.503  0.00  0.00    +0.014 A 
ATOM      4  C   LIG    1        4.226   1.208  -4.653  0.00  0.00    +0.013 A 
ATOM      5  C   LIG    1        4.180   2.601  -4.568  0.00  0.00    +0.057 A 
ATOM      6  C   LIG    1        4.033   3.183  -3.304  0.00  0.00    +0.040 A 
ENDROOT
BRANCH   1   8
ATOM      7  C   LIG    1        2.490   3.228   0.234  0.00  0.00    +0.200 C 
ATOM      8  S   LIG    1        4.046   3.312  -0.595  0.00  0.00    -0.005 S 
ATOM      9  O   LIG    1        5.063   2.657   0.198  0.00  0.00    -0.170 OA
ATOM     10  O   LIG    1        4.221   4.705  -0.956  0.00  0.00    -0.170 OA
ENDBRANCH   1   8
BRANCH   5  11
ATOM     11  C   LIG    1        4.314   3.445  -5.816  0.00  0.00    +0.417 C 
ATOM     12  F   LIG    1        3.336   3.181  -6.724  0.00  0.00    -0.166 F 
ATOM     13  F   LIG    1        5.494   3.225  -6.457  0.00  0.00    -0.166 F 
ATOM     14  F   LIG    1        4.256   4.783  -5.579  0.00  0.00    -0.166 F 
ENDBRANCH   5  11
BRANCH   2  15
ATOM     15  C   LIG    1        3.839   0.053  -1.063  0.00  0.00    +0.200 C 
ATOM     16  O   LIG    1        3.030   0.425  -0.228  0.00  0.00    -0.286 OA
BRANCH  15  17
ATOM     17  C   LIG    1        4.465  -1.274  -1.018  0.00  0.00    +0.084 A 
ATOM     18  C   LIG    1        4.102  -2.423  -0.309  0.00  0.00    +0.151 A 
ATOM     19  O   LIG    1        4.990  -3.423  -0.606  0.00  0.00    -0.359 OA
ATOM     20  N   LIG    1        5.939  -2.978  -1.490  0.00  0.00    -0.086 NA
ATOM     21  C   LIG    1        5.638  -1.701  -1.703  0.00  0.00    +0.168 A 
BRANCH  18  22
ATOM     22  C   LIG    1        2.957  -2.772   0.642  0.00  0.00    +0.059 C 
ATOM     23  C   LIG    1        2.342  -1.782   1.592  0.00  0.00    +0.012 C 
ATOM     24  C   LIG    1        1.571  -2.233   0.393  0.00  0.00    +0.012 C 
ENDBRANCH  18  22
ENDBRANCH  15  17
ENDBRANCH   2  15
TORSDOF 5
