REMARK  Name = *****
REMARK                            x       y       z     vdW  Elec       q    Type
REMARK                         _______ _______ _______ _____ _____    ______ ____
ROOT
ATOM      1  C   LIG    1      -10.766   1.117   1.161  0.00  0.00    +0.044 C 
ATOM      2  C   LIG    1       -9.793   0.557   0.110  0.00  0.00    +0.006 C 
ATOM      3  C   LIG    1       -9.079   1.802  -0.434  0.00  0.00    -0.001 C 
ATOM      4  C   LIG    1       -8.573   1.431  -1.829  0.00  0.00    +0.034 C 
ATOM      5  C   LIG    1       -9.085   0.025  -2.025  0.00  0.00    -0.073 C 
ATOM      6  C   LIG    1       -8.462  -0.979  -2.676  0.00  0.00    -0.027 C 
ATOM      7  C   LIG    1      -10.140   2.893  -0.447  0.00  0.00    +0.036 C 
ATOM      8  C   LIG    1      -10.318  -0.130  -1.151  0.00  0.00    +0.035 C 
ATOM      9  C   LIG    1      -11.119   2.548   0.669  0.00  0.00    +0.122 C 
ENDROOT
BRANCH   1  11
ATOM     10  C   LIG    1      -13.178   0.461   1.670  0.00  0.00    +0.000 C 
ATOM     11  C   LIG    1      -11.866   0.174   1.586  0.00  0.00    -0.022 C 
BRANCH  10  12
ATOM     12  C   LIG    1      -14.300  -0.436   2.095  0.00  0.00    +0.141 C 
BRANCH  12  13
ATOM     13  C   LIG    1      -13.949  -1.477   3.175  0.00  0.00    +0.030 C 
ATOM     14  C   LIG    1      -13.395  -0.790   4.435  0.00  0.00    +0.011 C 
BRANCH  13  15
ATOM     15  C   LIG    1      -15.181  -2.340   3.515  0.00  0.00    +0.095 C 
BRANCH  15  18
ATOM     16  C   LIG    1      -14.196  -5.280   6.260  0.00  0.00    +0.106 C 
ATOM     17  C   LIG    1      -14.554  -4.261   5.265  0.00  0.00    -0.106 C 
ATOM     18  C   LIG    1      -14.843  -3.418   4.471  0.00  0.00    -0.102 C 
ENDBRANCH  15  18
ENDBRANCH  13  15
ENDBRANCH  12  13
BRANCH  12  19
ATOM     19  O   LIG    1      -14.766  -1.073   0.908  0.00  0.00    -0.388 OA
ATOM     20  H   LIG    1      -13.985  -1.426   0.448  0.00  0.00    +0.210 HD
ENDBRANCH  12  19
ENDBRANCH  10  12
ENDBRANCH   1  11
BRANCH   9  21
ATOM     21  O   LIG    1      -12.413   2.703   0.102  0.00  0.00    -0.391 OA
ATOM     22  H   LIG    1      -12.598   1.905  -0.424  0.00  0.00    +0.210 HD
ENDBRANCH   9  21
BRANCH   6  23
ATOM     23  C   LIG    1       -7.130  -0.924  -3.408  0.00  0.00    +0.028 C 
BRANCH  23  24
ATOM     24  C   LIG    1       -6.107  -1.941  -2.854  0.00  0.00    +0.015 C 
BRANCH  24  25
ATOM     25  C   LIG    1       -4.736  -1.912  -3.542  0.00  0.00    +0.121 C 
BRANCH  25  26
ATOM     26  C   LIG    1       -3.780  -2.919  -2.925  0.00  0.00    +0.307 C 
ATOM     27  O   LIG    1       -3.054  -2.675  -1.970  0.00  0.00    -0.251 OA
BRANCH  26  28
ATOM     28  O   LIG    1       -3.861  -4.131  -3.543  0.00  0.00    -0.457 OA
BRANCH  28  29
ATOM     29  C   LIG    1       -2.940  -5.116  -3.049  0.00  0.00    +0.311 C 
BRANCH  29  30
ATOM     30  C   LIG    1       -1.528  -4.946  -3.606  0.00  0.00    +0.200 C 
ATOM     31  O   LIG    1       -1.310  -4.441  -4.707  0.00  0.00    -0.288 OA
BRANCH  30  32
ATOM     32  C   LIG    1       -0.378  -5.398  -2.770  0.00  0.00    +0.021 A 
ATOM     33  C   LIG    1       -0.494  -6.437  -1.838  0.00  0.00    +0.011 A 
ATOM     34  C   LIG    1        0.604  -6.792  -1.048  0.00  0.00    +0.001 A 
ATOM     35  C   LIG    1        1.823  -6.130  -1.201  0.00  0.00    +0.000 A 
ATOM     36  C   LIG    1        1.948  -5.109  -2.140  0.00  0.00    +0.001 A 
ATOM     37  C   LIG    1        0.850  -4.740  -2.921  0.00  0.00    +0.011 A 
ENDBRANCH  30  32
ENDBRANCH  29  30
ENDBRANCH  28  29
ENDBRANCH  26  28
ENDBRANCH  25  26
ENDBRANCH  24  25
ENDBRANCH  23  24
ENDBRANCH   6  23
TORSDOF 15
