REMARK  Name = *****
REMARK                            x       y       z     vdW  Elec       q    Type
REMARK                         _______ _______ _______ _____ _____    ______ ____
ROOT
ATOM      1  C   LIG    1        1.859   1.817   1.568  0.00  0.00    +0.264 C 
ATOM      2  C   LIG    1        2.318   0.475   2.228  0.00  0.00    +0.257 C 
ATOM      3  O   LIG    1        2.547  -0.491   1.485  0.00  0.00    -0.272 OA
ATOM      4  N   LIG    1        2.262   0.282   3.611  0.00  0.00    -0.288 N 
ATOM      5  C   LIG    1        1.648  -1.003   3.948  0.00  0.00    +0.133 C 
ATOM      6  C   LIG    1        3.383   0.620   4.564  0.00  0.00    +0.187 C 
ATOM      7  C   LIG    1        2.971   1.535   5.775  0.00  0.00    +0.329 C 
ATOM      8  O   LIG    1        3.748   1.931   6.608  0.00  0.00    -0.249 OA
ATOM      9  O   LIG    1        1.629   1.741   5.875  0.00  0.00    -0.450 OA
ATOM     10  C   LIG    1        1.108   2.538   6.968  0.00  0.00    +0.264 C 
ATOM     11  C   LIG    1        1.690   3.990   7.183  0.00  0.00    +0.257 C 
ATOM     12  O   LIG    1        1.955   4.452   8.291  0.00  0.00    -0.272 OA
ATOM     13  N   LIG    1        1.722   4.810   6.034  0.00  0.00    -0.288 N 
ATOM     14  C   LIG    1        0.376   5.294   5.718  0.00  0.00    +0.133 C 
ATOM     15  C   LIG    1        2.776   5.900   5.962  0.00  0.00    +0.187 C 
ATOM     16  C   LIG    1        2.912   6.593   4.545  0.00  0.00    +0.329 C 
ATOM     17  O   LIG    1        3.541   7.616   4.360  0.00  0.00    -0.249 OA
ATOM     18  O   LIG    1        2.220   5.954   3.558  0.00  0.00    -0.450 OA
ATOM     19  C   LIG    1        1.990   6.594   2.283  0.00  0.00    +0.264 C 
ATOM     20  C   LIG    1        3.204   6.946   1.375  0.00  0.00    +0.257 C 
ATOM     21  O   LIG    1        3.783   8.030   1.468  0.00  0.00    -0.272 OA
ATOM     22  N   LIG    1        3.412   6.122   0.259  0.00  0.00    -0.288 N 
ATOM     23  C   LIG    1        3.782   6.827  -0.964  0.00  0.00    +0.133 C 
ATOM     24  C   LIG    1        3.947   4.736   0.383  0.00  0.00    +0.187 C 
ATOM     25  C   LIG    1        2.799   3.703   0.494  0.00  0.00    +0.329 C 
ATOM     26  O   LIG    1        1.933   3.633  -0.379  0.00  0.00    -0.249 OA
ATOM     27  O   LIG    1        2.824   2.895   1.602  0.00  0.00    -0.450 OA
ENDROOT
BRANCH   1  29
ATOM     28  C   LIG    1        0.332   2.873   3.328  0.00  0.00    +0.011 C 
ATOM     29  C   LIG    1        0.421   2.276   1.942  0.00  0.00    +0.033 C 
ATOM     30  C   LIG    1       -0.631   1.173   1.798  0.00  0.00    +0.011 C 
ENDBRANCH   1  29
BRANCH   6  31
ATOM     31  C   LIG    1        4.788   0.984   3.969  0.00  0.00    +0.014 C 
ATOM     32  C   LIG    1        5.911   0.835   5.023  0.00  0.00    +0.009 C 
ATOM     33  C   LIG    1        5.227   0.090   2.797  0.00  0.00    +0.009 C 
ENDBRANCH   6  31
BRANCH  10  34
ATOM     34  C   LIG    1        0.973   1.689   8.268  0.00  0.00    +0.033 C 
ATOM     35  C   LIG    1        2.300   1.341   8.945  0.00  0.00    +0.011 C 
ATOM     36  C   LIG    1        0.033   2.329   9.297  0.00  0.00    +0.011 C 
ENDBRANCH  10  34
BRANCH  15  37
ATOM     37  C   LIG    1        4.173   5.491   6.551  0.00  0.00    +0.014 C 
ATOM     38  C   LIG    1        4.924   4.462   5.721  0.00  0.00    +0.009 C 
ATOM     39  C   LIG    1        5.116   6.668   6.824  0.00  0.00    +0.009 C 
ENDBRANCH  15  37
BRANCH  19  40
ATOM     40  C   LIG    1        1.087   7.878   2.377  0.00  0.00    +0.033 C 
ATOM     41  C   LIG    1        0.628   8.357   0.988  0.00  0.00    +0.011 C 
ATOM     42  C   LIG    1       -0.154   7.689   3.247  0.00  0.00    +0.011 C 
ENDBRANCH  19  40
BRANCH  24  43
ATOM     43  C   LIG    1        5.176   4.594   1.317  0.00  0.00    +0.014 C 
ATOM     44  C   LIG    1        5.923   3.276   1.062  0.00  0.00    +0.009 C 
ATOM     45  C   LIG    1        6.223   5.700   1.105  0.00  0.00    +0.009 C 
ENDBRANCH  24  43
TORSDOF 6
