REMARK  Name = *****
REMARK                            x       y       z     vdW  Elec       q    Type
REMARK                         _______ _______ _______ _____ _____    ______ ____
ROOT
ATOM      1  C   LIG    1        3.414   3.731   0.490  0.00  0.00    +0.067 C 
ENDROOT
BRANCH   1   2
ATOM      2  C   LIG    1        4.216   5.000   1.011  0.00  0.00    +0.087 C 
ATOM      3  C   LIG    1        4.031   6.341   0.908  0.00  0.00    +0.138 C 
ATOM      4  C   LIG    1        4.893   7.330   1.526  0.00  0.00    +0.059 A 
ATOM      5  C   LIG    1        6.047   6.899   2.131  0.00  0.00    +0.143 A 
ATOM      6  C   LIG    1        6.934   7.827   2.658  0.00  0.00    +0.047 A 
ATOM      7  C   LIG    1        6.656   9.197   2.538  0.00  0.00    +0.004 A 
ATOM      8  C   LIG    1        5.496   9.640   1.915  0.00  0.00    +0.001 A 
ATOM      9  O   LIG    1        6.337   5.541   2.205  0.00  0.00    -0.422 OA
ATOM     10  C   LIG    1        4.611   8.705   1.423  0.00  0.00    +0.015 A 
ATOM     11  C   LIG    1        5.291   4.629   2.015  0.00  0.00    +0.345 C 
ATOM     12  O   LIG    1        5.267   3.594   2.611  0.00  0.00    -0.245 OA
BRANCH   3  13
ATOM     13  O   LIG    1        3.008   6.995   0.277  0.00  0.00    -0.505 OA
ATOM     14  H   LIG    1        2.524   7.441   1.017  0.00  0.00    +0.292 HD
ENDBRANCH   3  13
ENDBRANCH   1   2
BRANCH   1  15
ATOM     15  C   LIG    1        1.917   3.939   0.083  0.00  0.00    -0.039 A 
ATOM     16  C   LIG    1        1.077   2.940  -0.410  0.00  0.00    +0.011 A 
ATOM     17  C   LIG    1       -0.270   3.228  -0.742  0.00  0.00    +0.084 A 
ATOM     18  C   LIG    1       -0.783   4.530  -0.661  0.00  0.00    +0.273 A 
ATOM     19  C   LIG    1        0.016   5.531  -0.163  0.00  0.00    +0.084 A 
ATOM     20  C   LIG    1        1.262   5.144   0.295  0.00  0.00    +0.011 A 
BRANCH  18  21
ATOM     21  N   LIG    1       -2.167   4.862  -0.958  0.00  0.00    +0.080 N 
ATOM     22  O   LIG    1       -2.901   3.940  -1.336  0.00  0.00    -0.576 OA
ATOM     23  O   LIG    1       -2.545   6.031  -0.826  0.00  0.00    +0.041 OA
ENDBRANCH  18  21
ENDBRANCH   1  15
BRANCH   1  24
ATOM     24  C   LIG    1        4.134   2.917  -0.646  0.00  0.00    +0.087 C 
BRANCH  24  26
ATOM     25  C   LIG    1        6.724   2.910  -1.001  0.00  0.00    +0.086 C 
ATOM     26  C   LIG    1        5.497   2.284  -0.378  0.00  0.00    +0.131 C 
ATOM     27  O   LIG    1        5.587   1.208   0.216  0.00  0.00    -0.298 OA
ENDBRANCH  24  26
ENDBRANCH   1  24
TORSDOF 6
