REMARK  Name = *****
REMARK                            x       y       z     vdW  Elec       q    Type
REMARK                         _______ _______ _______ _____ _____    ______ ____
ROOT
ATOM      1  C   LIG    1        4.728   0.855  -0.586  0.00  0.00    +0.119 C 
ATOM      2  N   LIG    1        5.339   1.784   0.397  0.00  0.00    -0.330 N 
ATOM      3  H   LIG    1        5.102   2.772   0.304  0.00  0.00    +0.147 HD
ATOM      4  C   LIG    1        6.686   1.605   0.742  0.00  0.00    +0.133 C 
ATOM      5  C   LIG    1        7.391   0.473   0.481  0.00  0.00    +0.149 C 
ATOM      6  N   LIG    1        8.723   0.330   0.770  0.00  0.00    -0.199 NA
ATOM      7  C   LIG    1        9.353   1.338   1.281  0.00  0.00    +0.195 C 
ATOM      8  N   LIG    1        8.748   2.510   1.601  0.00  0.00    -0.294 N 
ATOM      9  H   LIG    1        9.280   3.288   1.952  0.00  0.00    +0.172 HD
ATOM     10  N   LIG    1        6.736  -0.568  -0.200  0.00  0.00    -0.326 N 
ATOM     11  H   LIG    1        7.170  -1.454   0.050  0.00  0.00    +0.148 HD
ATOM     12  C   LIG    1        7.429   2.742   1.357  0.00  0.00    +0.276 C 
ATOM     13  O   LIG    1        6.895   3.820   1.594  0.00  0.00    -0.266 OA
ATOM     14  C   LIG    1        5.262  -0.577  -0.276  0.00  0.00    +0.128 C 
ENDROOT
BRANCH   7  15
ATOM     15  N   LIG    1       10.683   1.258   1.526  0.00  0.00    -0.329 N 
ATOM     16  H   LIG    1       11.034   1.744   2.339  0.00  0.00    +0.145 HD
ATOM     17  H   LIG    1       11.033   0.310   1.438  0.00  0.00    +0.145 HD
ENDBRANCH   7  15
BRANCH   1  18
ATOM     18  C   LIG    1        5.020   1.343  -2.045  0.00  0.00    +0.164 C 
BRANCH  18  20
ATOM     19  C   LIG    1        4.391   1.217  -4.504  0.00  0.00    +0.040 C 
ATOM     20  C   LIG    1        4.186   0.607  -3.114  0.00  0.00    +0.142 C 
BRANCH  20  21
ATOM     21  O   LIG    1        2.803   0.649  -2.761  0.00  0.00    -0.389 OA
ATOM     22  H   LIG    1        2.287   0.883  -3.553  0.00  0.00    +0.210 HD
ENDBRANCH  20  21
ENDBRANCH  18  20
BRANCH  18  23
ATOM     23  O   LIG    1        6.403   1.271  -2.418  0.00  0.00    -0.387 OA
ATOM     24  H   LIG    1        6.827   0.592  -1.852  0.00  0.00    +0.210 HD
ENDBRANCH  18  23
ENDBRANCH   1  18
TORSDOF 5
