REMARK  Name = *****
REMARK                            x       y       z     vdW  Elec       q    Type
REMARK                         _______ _______ _______ _____ _____    ______ ____
ROOT
ATOM      1  C   LIG    1        3.268  -0.015   1.705  0.00  0.00    +0.001 C 
ATOM      2  C   LIG    1        4.767  -0.390   2.023  0.00  0.00    +0.000 C 
ATOM      3  C   LIG    1        5.011  -0.399   3.556  0.00  0.00    +0.014 C 
ATOM      4  C   LIG    1        5.582   0.804   1.395  0.00  0.00    +0.001 C 
ATOM      5  C   LIG    1        5.865   0.692  -0.128  0.00  0.00    -0.004 C 
ATOM      6  C   LIG    1        6.463  -0.664  -0.545  0.00  0.00    +0.001 C 
ATOM      7  C   LIG    1        5.558  -1.784  -0.038  0.00  0.00    +0.036 C 
ATOM      8  C   LIG    1        8.038  -0.823  -0.360  0.00  0.00    -0.026 C 
ATOM      9  C   LIG    1        8.592  -1.171  -1.775  0.00  0.00    +0.012 C 
ATOM     10  C   LIG    1        8.683   0.484   0.188  0.00  0.00    -0.002 C 
ATOM     11  C   LIG    1       10.218   0.409   0.261  0.00  0.00    +0.035 C 
ATOM     12  C   LIG    1       10.676  -0.762   1.133  0.00  0.00    +0.115 C 
ATOM     13  C   LIG    1       10.003  -2.082   0.763  0.00  0.00    +0.032 C 
ATOM     14  C   LIG    1        8.222   1.742  -0.541  0.00  0.00    +0.004 C 
ATOM     15  C   LIG    1        8.483  -1.952   0.613  0.00  0.00    +0.009 C 
ATOM     16  C   LIG    1        6.709   1.829  -0.742  0.00  0.00    +0.004 C 
ATOM     17  C   LIG    1        4.715   2.024   1.706  0.00  0.00    +0.005 C 
ATOM     18  C   LIG    1        5.276  -1.751   1.460  0.00  0.00    +0.121 C 
ATOM     19  C   LIG    1        3.274   1.538   1.701  0.00  0.00    +0.005 C 
ENDROOT
BRANCH   1  21
ATOM     20  C   LIG    1        1.935  -2.021   2.764  0.00  0.00    +0.008 C 
ATOM     21  C   LIG    1        2.090  -0.506   2.626  0.00  0.00    -0.010 C 
BRANCH  21  22
ATOM     22  C   LIG    1        0.708   0.084   2.210  0.00  0.00    +0.015 C 
BRANCH  22  23
ATOM     23  C   LIG    1        0.159  -0.433   0.882  0.00  0.00    +0.121 C 
BRANCH  23  24
ATOM     24  C   LIG    1       -1.173   0.197   0.576  0.00  0.00    +0.305 C 
ATOM     25  O   LIG    1       -1.306   1.240  -0.053  0.00  0.00    -0.251 OA
BRANCH  24  26
ATOM     26  O   LIG    1       -2.223  -0.477   1.089  0.00  0.00    -0.481 OA
ATOM     27  H   LIG    1       -1.974  -1.284   1.579  0.00  0.00    +0.295 HD
ENDBRANCH  24  26
ENDBRANCH  23  24
ENDBRANCH  22  23
ENDBRANCH  21  22
ENDBRANCH   1  21
BRANCH  12  28
ATOM     28  O   LIG    1       12.085  -0.926   1.016  0.00  0.00    -0.392 OA
ATOM     29  H   LIG    1       12.501  -0.070   1.214  0.00  0.00    +0.210 HD
ENDBRANCH  12  28
BRANCH  18  30
ATOM     30  O   LIG    1        4.380  -2.817   1.743  0.00  0.00    -0.391 OA
ATOM     31  H   LIG    1        4.725  -3.624   1.324  0.00  0.00    +0.210 HD
ENDBRANCH  18  30
TORSDOF 7
