REMARK  Name = *****
REMARK                            x       y       z     vdW  Elec       q    Type
REMARK                         _______ _______ _______ _____ _____    ______ ____
ROOT
ATOM      1  C   LIG    1        3.195  -1.315   0.200  0.00  0.00    +0.434 C 
ATOM      2  F   LIG    1        2.454  -2.460   0.146  0.00  0.00    -0.186 F 
ATOM      3  F   LIG    1        3.768  -1.299   1.439  0.00  0.00    -0.186 F 
ENDROOT
BRANCH   1   5
ATOM      4  F   LIG    1        1.337  -0.046   0.929  0.00  0.00    -0.165 F 
ATOM      5  C   LIG    1        2.324  -0.102  -0.001  0.00  0.00    +0.463 C 
ATOM      6  F   LIG    1        3.017   1.056   0.101  0.00  0.00    -0.165 F 
ATOM      7  F   LIG    1        1.715  -0.095  -1.210  0.00  0.00    -0.165 F 
ENDBRANCH   1   5
BRANCH   1   8
ATOM      8  C   LIG    1        4.248  -1.308  -0.878  0.00  0.00    +0.463 C 
ATOM      9  F   LIG    1        3.716  -1.381  -2.120  0.00  0.00    -0.165 F 
ATOM     10  F   LIG    1        5.085  -2.369  -0.753  0.00  0.00    -0.165 F 
ATOM     11  F   LIG    1        5.022  -0.199  -0.841  0.00  0.00    -0.165 F 
ENDBRANCH   1   8
TORSDOF 2
