REMARK  Name = *****
REMARK                            x       y       z     vdW  Elec       q    Type
REMARK                         _______ _______ _______ _____ _____    ______ ____
ROOT
ATOM      1  CA  LYS A  1        6.516   1.777   1.980  0.00  0.00    +0.161 C 
ENDROOT
BRANCH   1   2
ATOM      2  N   LYS A  1        5.342   0.887   1.858  0.00  0.00    -0.318 NA
ATOM      3  H1  LYS A  1        5.111   0.425   2.733  0.00  0.00    +0.119 HD
ATOM      4  H2  LYS A  1        4.546   1.338   1.416  0.00  0.00    +0.119 HD
ENDBRANCH   1   2
BRANCH   1   5
ATOM      5  C   LYS A  1        6.285   2.915   2.996  0.00  0.00    +0.322 C 
ATOM      6  O   LYS A  1        7.117   3.758   3.281  0.00  0.00    -0.249 OA
BRANCH   5   7
ATOM      7  OXT LYS A  1        5.054   2.901   3.567  0.00  0.00    -0.479 OA
ATOM      8  HXT LYS A  1        4.506   2.190   3.194  0.00  0.00    +0.295 HD
ENDBRANCH   5   7
ENDBRANCH   1   5
BRANCH   1   9
ATOM      9  CB  LYS A  1        6.948   2.327   0.608  0.00  0.00    +0.030 C 
BRANCH   9  10
ATOM     10  CG  LYS A  1        5.917   3.256  -0.049  0.00  0.00    +0.003 C 
BRANCH  10  11
ATOM     11  CD  LYS A  1        6.401   3.800  -1.400  0.00  0.00    +0.015 C 
BRANCH  11  12
ATOM     12  CE  LYS A  1        5.381   4.728  -2.069  0.00  0.00    +0.077 C 
BRANCH  12  13
ATOM     13  NZ  LYS A  1        5.081   5.891  -1.242  0.00  0.00    -0.330 NA
ATOM     14  HZ1 LYS A  1        5.940   6.404  -1.044  0.00  0.00    +0.118 HD
ATOM     15  HZ2 LYS A  1        4.476   6.531  -1.754  0.00  0.00    +0.118 HD
ENDBRANCH  12  13
ENDBRANCH  11  12
ENDBRANCH  10  11
ENDBRANCH   9  10
ENDBRANCH   1   9
TORSDOF 8
