REMARK  Name = *****
REMARK                            x       y       z     vdW  Elec       q    Type
REMARK                         _______ _______ _______ _____ _____    ______ ____
ROOT
ATOM      1  C   LIG    1        1.014  -0.451  -0.678  0.00  0.00    +0.025 C 
ATOM      2  C   LIG    1        2.467  -0.306  -0.180  0.00  0.00    +0.069 C 
ENDROOT
BRANCH   2   3
ATOM      3  N   LIG    1        2.997  -1.623   0.295  0.00  0.00    -0.281 NA
ATOM      4  C   LIG    1        2.944  -2.694  -0.736  0.00  0.00    +0.181 C 
ATOM      5  C   LIG    1        3.963  -2.486  -1.858  0.00  0.00    +0.233 C 
ATOM      6  O   LIG    1        3.782  -2.899  -3.003  0.00  0.00    -0.274 OA
ATOM      7  N   LIG    1        5.132  -1.855  -1.516  0.00  0.00    -0.254 N 
ATOM      8  H   LIG    1        5.802  -1.695  -2.255  0.00  0.00    +0.158 HD
ATOM      9  C   LIG    1        5.407  -1.297  -0.292  0.00  0.00    +0.233 C 
ATOM     10  O   LIG    1        6.429  -0.648  -0.099  0.00  0.00    -0.274 OA
ATOM     11  C   LIG    1        4.388  -1.581   0.810  0.00  0.00    +0.181 C 
ENDBRANCH   2   3
BRANCH   2  12
ATOM     12  C   LIG    1        2.513   0.817   0.922  0.00  0.00    +0.104 C 
BRANCH  12  13
ATOM     13  N   LIG    1        2.107   2.183   0.506  0.00  0.00    -0.284 NA
ATOM     14  C   LIG    1        2.125   3.119   1.659  0.00  0.00    +0.181 C 
ATOM     15  C   LIG    1        3.545   3.424   2.140  0.00  0.00    +0.233 C 
ATOM     16  O   LIG    1        3.800   3.748   3.300  0.00  0.00    -0.274 OA
ATOM     17  N   LIG    1        4.530   3.382   1.186  0.00  0.00    -0.254 N 
ATOM     18  H   LIG    1        5.465   3.630   1.476  0.00  0.00    +0.158 HD
ATOM     19  C   LIG    1        4.339   3.136  -0.151  0.00  0.00    +0.233 C 
ATOM     20  O   LIG    1        5.253   3.287  -0.957  0.00  0.00    -0.274 OA
ATOM     21  C   LIG    1        2.923   2.761  -0.585  0.00  0.00    +0.181 C 
ENDBRANCH  12  13
ENDBRANCH   2  12
TORSDOF 3
