REMARK  Name = *****
REMARK                            x       y       z     vdW  Elec       q    Type
REMARK                         _______ _______ _______ _____ _____    ______ ____
ROOT
ATOM      1  C   LIG    1       -3.578   0.705   2.473  0.00  0.00    +0.021 C 
ATOM      2  C   LIG    1       -3.914   2.205   2.737  0.00  0.00    +0.003 C 
ATOM      3  C   LIG    1       -4.642   2.905   1.527  0.00  0.00    -0.026 C 
ATOM      4  C   LIG    1       -3.536   3.316   0.523  0.00  0.00    +0.012 C 
ATOM      5  C   LIG    1       -5.310   4.251   1.992  0.00  0.00    +0.009 C 
ATOM      6  C   LIG    1       -4.567   4.920   3.144  0.00  0.00    +0.032 C 
ATOM      7  C   LIG    1       -4.562   4.022   4.382  0.00  0.00    +0.115 C 
ATOM      8  C   LIG    1       -5.801   1.987   0.941  0.00  0.00    +0.001 C 
ATOM      9  C   LIG    1       -5.474   0.477   0.749  0.00  0.00    +0.025 C 
ATOM     10  C   LIG    1       -4.721   0.246  -0.574  0.00  0.00    +0.001 C 
ATOM     11  C   LIG    1       -5.479   0.744  -1.828  0.00  0.00    -0.026 C 
ATOM     12  C   LIG    1       -6.827  -0.002  -2.076  0.00  0.00    +0.012 C 
ATOM     13  C   LIG    1       -5.805   2.226  -1.642  0.00  0.00    +0.007 C 
ATOM     14  C   LIG    1       -4.498   0.307  -2.980  0.00  0.00    -0.002 C 
ATOM     15  C   LIG    1       -3.929  -1.047  -2.427  0.00  0.00    +0.004 C 
ATOM     16  C   LIG    1       -4.348  -1.177  -0.954  0.00  0.00    +0.005 C 
ATOM     17  C   LIG    1       -6.513   2.543  -0.318  0.00  0.00    +0.005 C 
ATOM     18  C   LIG    1       -4.650   2.523   4.050  0.00  0.00    +0.035 C 
ATOM     19  C   LIG    1       -4.772  -0.125   1.978  0.00  0.00    +0.122 C 
ENDROOT
BRANCH   1  21
ATOM     20  C   LIG    1       -2.309  -1.333   3.416  0.00  0.00    +0.004 C 
ATOM     21  C   LIG    1       -2.872   0.057   3.690  0.00  0.00    +0.003 C 
ENDBRANCH   1  21
BRANCH   7  22
ATOM     22  O   LIG    1       -5.670   4.348   5.217  0.00  0.00    -0.392 OA
ATOM     23  H   LIG    1       -5.568   5.276   5.489  0.00  0.00    +0.210 HD
ENDBRANCH   7  22
BRANCH  14  24
ATOM     24  C   LIG    1       -3.342   1.259  -3.463  0.00  0.00    -0.010 C 
ATOM     25  C   LIG    1       -3.827   2.608  -4.024  0.00  0.00    +0.008 C 
BRANCH  24  26
ATOM     26  C   LIG    1       -2.445   0.603  -4.566  0.00  0.00    +0.015 C 
BRANCH  26  27
ATOM     27  C   LIG    1       -3.161   0.334  -5.892  0.00  0.00    +0.121 C 
BRANCH  27  28
ATOM     28  C   LIG    1       -2.233  -0.278  -6.914  0.00  0.00    +0.305 C 
ATOM     29  O   LIG    1       -2.061  -1.475  -7.045  0.00  0.00    -0.251 OA
BRANCH  28  30
ATOM     30  O   LIG    1       -1.591   0.638  -7.675  0.00  0.00    -0.481 OA
ATOM     31  H   LIG    1       -1.816   1.563  -7.468  0.00  0.00    +0.295 HD
ENDBRANCH  28  30
ENDBRANCH  27  28
ENDBRANCH  26  27
ENDBRANCH  24  26
ENDBRANCH  14  24
BRANCH  19  32
ATOM     32  O   LIG    1       -5.707  -0.342   3.034  0.00  0.00    -0.391 OA
ATOM     33  H   LIG    1       -6.259   0.448   3.143  0.00  0.00    +0.210 HD
ENDBRANCH  19  32
TORSDOF 8
