REMARK  Name = *****
REMARK                            x       y       z     vdW  Elec       q    Type
REMARK                         _______ _______ _______ _____ _____    ______ ____
ROOT
ATOM      1  C   LIG    1        9.291  -4.711   0.719  0.00  0.00    +0.122 C 
ENDROOT
BRANCH   1   2
ATOM      2  C   LIG    1        9.062  -4.075  -0.695  0.00  0.00    +0.172 C 
ATOM      3  C   LIG    1        8.990  -2.527  -0.694  0.00  0.00    +0.176 C 
ATOM      4  C   LIG    1        8.653  -1.992  -2.095  0.00  0.00    +0.177 C 
ATOM      5  C   LIG    1        7.398  -2.683  -2.639  0.00  0.00    +0.184 C 
ATOM      6  C   LIG    1        7.587  -4.210  -2.629  0.00  0.00    +0.207 C 
ATOM      7  O   LIG    1        7.861  -4.622  -1.272  0.00  0.00    -0.356 OA
BRANCH   3   8
ATOM      8  O   LIG    1        7.946  -2.017   0.160  0.00  0.00    -0.387 OA
ATOM      9  H   LIG    1        7.330  -2.759   0.315  0.00  0.00    +0.210 HD
ENDBRANCH   3   8
BRANCH   4  10
ATOM     10  O   LIG    1        8.379  -0.579  -2.025  0.00  0.00    -0.387 OA
ATOM     11  H   LIG    1        8.029  -0.433  -1.119  0.00  0.00    +0.210 HD
ENDBRANCH   4  10
BRANCH   5  12
ATOM     12  O   LIG    1        7.027  -2.139  -3.906  0.00  0.00    -0.386 OA
ATOM     13  H   LIG    1        7.178  -1.175  -3.823  0.00  0.00    +0.210 HD
ENDBRANCH   5  12
BRANCH   6  14
ATOM     14  S   LIG    1        8.825  -4.918  -3.800  0.00  0.00    -0.131 S 
ATOM     15  C   LIG    1        8.209  -4.256  -5.370  0.00  0.00    +0.087 C 
ENDBRANCH   6  14
ENDBRANCH   1   2
BRANCH   1  17
ATOM     16  C   LIG    1        8.472  -3.468   2.748  0.00  0.00    +0.231 C 
ATOM     17  N   LIG    1        8.244  -4.322   1.684  0.00  0.00    -0.307 N 
ATOM     18  H   LIG    1        7.362  -4.830   1.650  0.00  0.00    +0.149 HD
ATOM     19  O   LIG    1        9.593  -3.020   3.007  0.00  0.00    -0.274 OA
BRANCH  16  24
ATOM     20  C   LIG    1        6.425  -1.897   5.512  0.00  0.00    +0.005 C 
ATOM     21  C   LIG    1        5.945  -3.355   5.496  0.00  0.00    +0.088 C 
ATOM     22  N   LIG    1        6.892  -4.098   4.637  0.00  0.00    -0.294 NA
ATOM     23  C   LIG    1        8.069  -4.503   5.414  0.00  0.00    +0.105 C 
ATOM     24  C   LIG    1        7.205  -3.123   3.555  0.00  0.00    +0.143 C 
ATOM     25  C   LIG    1        7.229  -1.745   4.216  0.00  0.00    +0.033 C 
BRANCH  20  26
ATOM     26  C   LIG    1        5.276  -0.886   5.681  0.00  0.00    +0.004 C 
BRANCH  26  28
ATOM     27  C   LIG    1        4.620   1.563   5.920  0.00  0.00    +0.004 C 
ATOM     28  C   LIG    1        5.762   0.568   5.750  0.00  0.00    -0.003 C 
ENDBRANCH  26  28
ENDBRANCH  20  26
ENDBRANCH  16  24
ENDBRANCH   1  17
BRANCH   1  29
ATOM     29  C   LIG    1        9.445  -6.262   0.719  0.00  0.00    +0.100 C 
ATOM     30 CL   LIG    1        7.895  -7.115   0.388  0.00  0.00    -0.120 Cl
ATOM     31  C   LIG    1       10.515  -6.788  -0.231  0.00  0.00    +0.026 C 
ENDBRANCH   1  29
TORSDOF 10
