REMARK  Name = *****
REMARK                            x       y       z     vdW  Elec       q    Type
REMARK                         _______ _______ _______ _____ _____    ______ ____
ROOT
ATOM      1  C   LIG    1       11.032  -3.507   4.845  0.00  0.00    +0.165 C 
ATOM      2  O   LIG    1       11.729  -3.078   5.755  0.00  0.00    -0.294 OA
ENDROOT
BRANCH   1   3
ATOM      3  C   LIG    1       11.367  -3.128   3.455  0.00  0.00    +0.223 C 
ATOM      4  C   LIG    1       10.827  -1.888   2.795  0.00  0.00    +0.240 C 
ATOM      5  O   LIG    1       10.297  -3.195   2.499  0.00  0.00    -0.350 OA
BRANCH   4   6
ATOM      6  C   LIG    1        9.892  -0.964   3.472  0.00  0.00    +0.242 C 
ATOM      7  O   LIG    1       10.279  -0.112   4.248  0.00  0.00    -0.273 OA
ATOM      8  N   LIG    1        8.582  -1.085   3.100  0.00  0.00    -0.327 N 
ATOM      9  H   LIG    1        8.299  -1.694   2.347  0.00  0.00    +0.145 HD
ATOM     10  H   LIG    1        7.917  -0.432   3.491  0.00  0.00    +0.145 HD
ENDBRANCH   4   6
ENDBRANCH   1   3
BRANCH   1  11
ATOM     11  C   LIG    1        9.918  -4.526   5.011  0.00  0.00    +0.081 C 
BRANCH  11  12
ATOM     12  C   LIG    1        9.709  -4.993   6.451  0.00  0.00    +0.034 C 
BRANCH  12  14
ATOM     13  C   LIG    1        8.134  -3.830   8.036  0.00  0.00    -0.027 C 
ATOM     14  C   LIG    1        9.289  -3.872   7.356  0.00  0.00    -0.030 C 
BRANCH  13  15
ATOM     15  C   LIG    1        7.726  -2.664   8.888  0.00  0.00    +0.053 C 
BRANCH  15  18
ATOM     16  C   LIG    1        4.021  -1.456   8.660  0.00  0.00    +0.035 C 
ATOM     17  C   LIG    1        5.313  -2.028   9.139  0.00  0.00    -0.034 C 
ATOM     18  C   LIG    1        6.431  -2.086   8.398  0.00  0.00    -0.027 C 
ENDBRANCH  15  18
ENDBRANCH  13  15
ENDBRANCH  12  14
ENDBRANCH  11  12
ENDBRANCH   1  11
TORSDOF 7
