REMARK  Name = *****
REMARK                            x       y       z     vdW  Elec       q    Type
REMARK                         _______ _______ _______ _____ _____    ______ ____
ROOT
ATOM      1  C   LIG    1       12.096   7.899  -3.932  0.00  0.00    -0.000 C 
ENDROOT
BRANCH   1   2
ATOM      2  C   LIG    1       12.001   7.110  -5.250  0.00  0.00    -0.000 C 
BRANCH   2   3
ATOM      3  C   LIG    1       13.280   7.015  -6.147  0.00  0.00    -0.000 C 
BRANCH   3   4
ATOM      4  C   LIG    1       13.765   8.347  -6.739  0.00  0.00    -0.000 C 
BRANCH   4   5
ATOM      5  C   LIG    1       14.910   8.268  -7.788  0.00  0.00    -0.000 C 
BRANCH   5   6
ATOM      6  C   LIG    1       14.559   7.514  -9.079  0.00  0.00    -0.000 C 
BRANCH   6   7
ATOM      7  C   LIG    1       15.653   7.589 -10.160  0.00  0.00    -0.000 C 
BRANCH   7   8
ATOM      8  C   LIG    1       15.370   6.823 -11.469  0.00  0.00    +0.000 C 
BRANCH   8   9
ATOM      9  C   LIG    1       14.248   7.347 -12.378  0.00  0.00    +0.002 C 
BRANCH   9  10
ATOM     10  C   LIG    1       12.818   7.371 -11.850  0.00  0.00    +0.028 C 
BRANCH  10  11
ATOM     11  C   LIG    1       12.224   6.032 -11.451  0.00  0.00    +0.156 C 
BRANCH  11  12
ATOM     12  O   LIG    1       10.917   6.271 -10.909  0.00  0.00    -0.395 OA
ATOM     13  H   LIG    1       10.379   5.531 -11.098  0.00  0.00    +0.209 HD
ENDBRANCH  11  12
ENDBRANCH  10  11
ENDBRANCH   9  10
ENDBRANCH   8   9
ENDBRANCH   7   8
ENDBRANCH   6   7
ENDBRANCH   5   6
ENDBRANCH   4   5
ENDBRANCH   3   4
ENDBRANCH   2   3
ENDBRANCH   1   2
BRANCH   1  14
ATOM     14  C   LIG    1       10.893   7.769  -2.944  0.00  0.00    -0.000 C 
BRANCH  14  15
ATOM     15  C   LIG    1        9.536   8.513  -3.083  0.00  0.00    -0.000 C 
BRANCH  15  16
ATOM     16  C   LIG    1        8.478   8.098  -4.133  0.00  0.00    -0.000 C 
BRANCH  16  17
ATOM     17  C   LIG    1        7.193   8.986  -3.957  0.00  0.00    -0.000 C 
BRANCH  17  18
ATOM     18  C   LIG    1        6.035   8.745  -4.947  0.00  0.00    -0.000 C 
BRANCH  18  19
ATOM     19  C   LIG    1        4.698   9.517  -4.697  0.00  0.00    -0.000 C 
BRANCH  19  20
ATOM     20  C   LIG    1        4.564  11.046  -4.999  0.00  0.00    -0.000 C 
BRANCH  20  21
ATOM     21  C   LIG    1        5.385  11.995  -4.088  0.00  0.00    -0.000 C 
BRANCH  21  22
ATOM     22  C   LIG    1        5.164  13.522  -4.282  0.00  0.00    -0.000 C 
BRANCH  22  24
ATOM     23  C   LIG    1        7.652  14.427  -4.153  0.00  0.00    +0.004 C 
ATOM     24  C   LIG    1        6.214  14.476  -3.640  0.00  0.00    -0.003 C 
ENDBRANCH  22  24
ENDBRANCH  21  22
ENDBRANCH  20  21
ENDBRANCH  19  20
ENDBRANCH  18  19
ENDBRANCH  17  18
ENDBRANCH  16  17
ENDBRANCH  15  16
ENDBRANCH  14  15
ENDBRANCH   1  14
TORSDOF 21
