REMARK  Name = *****
REMARK                            x       y       z     vdW  Elec       q    Type
REMARK                         _______ _______ _______ _____ _____    ______ ____
ROOT
ATOM      1  C   LIG    1        5.783   0.017  -4.020  0.00  0.00    +0.177 C 
ENDROOT
BRANCH   1   2
ATOM      2  O   LIG    1        5.042  -1.062  -4.619  0.00  0.00    -0.387 OA
ATOM      3  H   LIG    1        5.671  -1.575  -5.168  0.00  0.00    +0.210 HD
ENDBRANCH   1   2
BRANCH   1   4
ATOM      4  C   LIG    1        4.937   0.559  -2.834  0.00  0.00    +0.185 C 
BRANCH   4   5
ATOM      5  O   LIG    1        4.604  -0.453  -1.860  0.00  0.00    -0.386 OA
ATOM      6  H   LIG    1        5.322  -1.122  -1.897  0.00  0.00    +0.210 HD
ENDBRANCH   4   5
BRANCH   4   7
ATOM      7  C   LIG    1        5.545   1.723  -2.042  0.00  0.00    +0.254 C 
BRANCH   7   9
ATOM      8  O   LIG    1        6.460   2.965  -3.918  0.00  0.00    -0.248 OA
ATOM      9  C   LIG    1        5.747   2.939  -2.938  0.00  0.00    +0.336 C 
BRANCH   9  10
ATOM     10  O   LIG    1        5.031   4.008  -2.501  0.00  0.00    -0.479 OA
ATOM     11  H   LIG    1        4.584   3.730  -1.662  0.00  0.00    +0.295 HD
ENDBRANCH   9  10
ENDBRANCH   7   9
BRANCH   7  12
ATOM     12  O   LIG    1        4.618   2.137  -0.999  0.00  0.00    -0.378 OA
ATOM     13  H   LIG    1        3.991   1.386  -0.901  0.00  0.00    +0.211 HD
ENDBRANCH   7  12
ENDBRANCH   4   7
ENDBRANCH   1   4
BRANCH   1  14
ATOM     14  C   LIG    1        7.228  -0.423  -3.667  0.00  0.00    +0.176 C 
BRANCH  14  15
ATOM     15  O   LIG    1        7.164  -1.482  -2.700  0.00  0.00    -0.387 OA
ATOM     16  H   LIG    1        7.998  -1.994  -2.777  0.00  0.00    +0.210 HD
ENDBRANCH  14  15
BRANCH  14  17
ATOM     17  C   LIG    1        8.039  -0.815  -4.941  0.00  0.00    +0.171 C 
BRANCH  17  18
ATOM     18  O   LIG    1        7.422  -1.931  -5.608  0.00  0.00    -0.387 OA
ATOM     19  H   LIG    1        7.980  -2.161  -6.375  0.00  0.00    +0.210 HD
ENDBRANCH  17  18
BRANCH  17  20
ATOM     20  C   LIG    1        9.498  -1.179  -4.633  0.00  0.00    +0.190 C 
BRANCH  20  21
ATOM     21  O   LIG    1        9.555  -2.343  -3.810  0.00  0.00    -0.392 OA
ATOM     22  H   LIG    1        9.228  -3.088  -4.352  0.00  0.00    +0.209 HD
ENDBRANCH  20  21
ENDBRANCH  17  20
ENDBRANCH  14  17
ENDBRANCH   1  14
TORSDOF 13
