REMARK  Name = *****
REMARK                            x       y       z     vdW  Elec       q    Type
REMARK                         _______ _______ _______ _____ _____    ______ ____
ROOT
ATOM      1  C   LIG    1        4.865  -2.031  -2.126  0.00  0.00    +0.094 C 
ATOM      2  C   LIG    1        4.764  -3.499  -1.625  0.00  0.00    +0.038 C 
ATOM      3  C   LIG    1        5.162  -4.596  -2.628  0.00  0.00    +0.085 C 
ATOM      4  N   LIG    1        4.061  -4.829  -3.562  0.00  0.00    -0.305 NA
ATOM      5  C   LIG    1        3.897  -6.249  -3.876  0.00  0.00    +0.105 C 
ATOM      6  C   LIG    1        4.118  -4.043  -4.796  0.00  0.00    +0.084 C 
ATOM      7  C   LIG    1        4.670  -2.623  -4.678  0.00  0.00    +0.017 C 
ATOM      8  C   LIG    1        4.118  -1.836  -3.487  0.00  0.00    +0.024 C 
ENDROOT
BRANCH   1   9
ATOM      9  C   LIG    1        4.253  -1.107  -1.026  0.00  0.00    -0.031 A 
ATOM     10  C   LIG    1        2.896  -0.727  -1.057  0.00  0.00    +0.005 A 
ATOM     11  C   LIG    1        2.348   0.129  -0.097  0.00  0.00    +0.000 A 
ATOM     12  C   LIG    1        3.137   0.611   0.939  0.00  0.00    +0.000 A 
ATOM     13  C   LIG    1        4.470   0.223   1.020  0.00  0.00    +0.000 A 
ATOM     14  C   LIG    1        5.021  -0.633   0.056  0.00  0.00    +0.005 A 
ENDBRANCH   1   9
BRANCH   1  15
ATOM     15  C   LIG    1        6.370  -1.683  -2.331  0.00  0.00    +0.318 C 
ATOM     16  O   LIG    1        7.300  -2.216  -1.748  0.00  0.00    -0.250 OA
BRANCH  15  17
ATOM     17  O   LIG    1        6.511  -0.664  -3.236  0.00  0.00    -0.464 OA
BRANCH  17  19
ATOM     18  C   LIG    1        8.363   0.714  -2.548  0.00  0.00    +0.048 C 
ATOM     19  C   LIG    1        7.850  -0.278  -3.570  0.00  0.00    +0.229 C 
ENDBRANCH  17  19
ENDBRANCH  15  17
ENDBRANCH   1  15
TORSDOF 4
