REMARK  Name = *****
REMARK                            x       y       z     vdW  Elec       q    Type
REMARK                         _______ _______ _______ _____ _____    ______ ____
ROOT
ATOM      1  C   LIG    1        4.304   0.476   0.795  0.00  0.00    +0.064 A 
ATOM      2  C   LIG    1        5.205   0.004   1.789  0.00  0.00    +0.049 A 
ATOM      3  I   LIG    1        4.392  -0.595   3.701  0.00  0.00    -0.041 I 
ATOM      4  C   LIG    1        6.588  -0.189   1.491  0.00  0.00    +0.065 A 
ATOM      5  C   LIG    1        6.979  -0.080   0.116  0.00  0.00    +0.040 A 
ATOM      6  I   LIG    1        8.622  -1.239  -0.651  0.00  0.00    -0.042 I 
ATOM      7  C   LIG    1        6.164   0.633  -0.807  0.00  0.00    +0.065 A 
ATOM      8  C   LIG    1        4.854   0.962  -0.413  0.00  0.00    +0.049 A 
ATOM      9  I   LIG    1        3.652   2.499  -1.442  0.00  0.00    -0.041 I 
ENDROOT
BRANCH   4  10
ATOM     10  C   LIG    1        7.652  -0.353   2.599  0.00  0.00    +0.246 C 
ATOM     11  N   LIG    1        7.386   0.257   3.826  0.00  0.00    -0.309 N 
ATOM     12  H   LIG    1        6.514   0.757   3.937  0.00  0.00    +0.149 HD
ATOM     13  O   LIG    1        8.721  -0.920   2.419  0.00  0.00    -0.270 OA
BRANCH  11  14
ATOM     14  C   LIG    1        8.243   0.134   5.015  0.00  0.00    +0.138 C 
BRANCH  14  15
ATOM     15  C   LIG    1        7.702   0.840   6.296  0.00  0.00    +0.157 C 
BRANCH  15  16
ATOM     16  O   LIG    1        6.564   0.188   6.883  0.00  0.00    -0.388 OA
ATOM     17  H   LIG    1        6.481  -0.717   6.535  0.00  0.00    +0.210 HD
ENDBRANCH  15  16
BRANCH  15  18
ATOM     18  C   LIG    1        8.833   0.947   7.343  0.00  0.00    +0.188 C 
BRANCH  18  19
ATOM     19  O   LIG    1        8.408   1.512   8.581  0.00  0.00    -0.392 OA
ATOM     20  H   LIG    1        7.480   1.247   8.724  0.00  0.00    +0.209 HD
ENDBRANCH  18  19
ENDBRANCH  15  18
ENDBRANCH  14  15
ENDBRANCH  11  14
ENDBRANCH   4  10
BRANCH   1  23
ATOM     21  C   LIG    1        0.737   1.635   1.513  0.00  0.00    +0.110 C 
ATOM     22  C   LIG    1        2.217   1.378   1.722  0.00  0.00    +0.217 C 
ATOM     23  N   LIG    1        2.855   0.424   0.917  0.00  0.00    -0.267 N 
ATOM     24  O   LIG    1        2.822   2.067   2.547  0.00  0.00    -0.276 OA
BRANCH  23  25
ATOM     25  C   LIG    1        2.153  -0.364  -0.144  0.00  0.00    +0.147 C 
BRANCH  25  26
ATOM     26  C   LIG    1        1.664  -1.740   0.335  0.00  0.00    +0.158 C 
BRANCH  26  27
ATOM     27  O   LIG    1        2.785  -2.546   0.727  0.00  0.00    -0.388 OA
ATOM     28  H   LIG    1        3.105  -2.206   1.582  0.00  0.00    +0.210 HD
ENDBRANCH  26  27
BRANCH  26  29
ATOM     29  C   LIG    1        0.667  -1.681   1.493  0.00  0.00    +0.188 C 
BRANCH  29  30
ATOM     30  O   LIG    1        0.315  -2.997   1.907  0.00  0.00    -0.392 OA
ATOM     31  H   LIG    1        1.129  -3.534   1.870  0.00  0.00    +0.209 HD
ENDBRANCH  29  30
ENDBRANCH  26  29
ENDBRANCH  25  26
ENDBRANCH  23  25
ENDBRANCH   1  23
BRANCH   7  32
ATOM     32  C   LIG    1        6.735   1.165  -2.120  0.00  0.00    +0.246 C 
ATOM     33  N   LIG    1        6.722   2.567  -2.135  0.00  0.00    -0.309 N 
ATOM     34  H   LIG    1        6.247   3.034  -1.381  0.00  0.00    +0.149 HD
ATOM     35  O   LIG    1        7.133   0.471  -3.011  0.00  0.00    -0.270 OA
BRANCH  33  36
ATOM     36  C   LIG    1        7.153   3.373  -3.276  0.00  0.00    +0.138 C 
BRANCH  36  37
ATOM     37  C   LIG    1        6.936   4.891  -3.071  0.00  0.00    +0.157 C 
BRANCH  37  38
ATOM     38  O   LIG    1        5.540   5.238  -3.014  0.00  0.00    -0.388 OA
ATOM     39  H   LIG    1        5.109   4.685  -2.341  0.00  0.00    +0.210 HD
ENDBRANCH  37  38
BRANCH  37  40
ATOM     40  C   LIG    1        7.597   5.436  -1.801  0.00  0.00    +0.188 C 
BRANCH  40  41
ATOM     41  O   LIG    1        7.374   6.844  -1.713  0.00  0.00    -0.392 OA
ATOM     42  H   LIG    1        6.471   6.999  -2.056  0.00  0.00    +0.209 HD
ENDBRANCH  40  41
ENDBRANCH  37  40
ENDBRANCH  36  37
ENDBRANCH  33  36
ENDBRANCH   7  32
TORSDOF 18
