REMARK  Name = *****
REMARK                            x       y       z     vdW  Elec       q    Type
REMARK                         _______ _______ _______ _____ _____    ______ ____
ROOT
ATOM      1  C   LIG    1        5.452  -1.953   1.775  0.00  0.00    +0.339 C 
ATOM      2  O   LIG    1        4.500  -2.401   2.385  0.00  0.00    -0.245 OA
ENDROOT
BRANCH   1   3
ATOM      3  C   LIG    1        6.694  -1.465   2.416  0.00  0.00    +0.059 A 
ATOM      4  C   LIG    1        7.048  -1.960   3.675  0.00  0.00    +0.017 A 
ATOM      5  C   LIG    1        8.206  -1.490   4.305  0.00  0.00    +0.023 A 
ATOM      6  C   LIG    1        9.032  -0.553   3.676  0.00  0.00    +0.025 A 
ATOM      7  C   LIG    1        8.635  -0.022   2.447  0.00  0.00    +0.023 A 
ATOM      8  C   LIG    1        7.486  -0.488   1.806  0.00  0.00    +0.017 A 
BRANCH   6   9
ATOM      9  N   LIG    1       10.104   0.019   4.370  0.00  0.00    -0.358 N 
ATOM     10  H   LIG    1       10.512  -0.589   5.072  0.00  0.00    +0.142 HD
ATOM     11  H   LIG    1       10.807   0.436   3.768  0.00  0.00    +0.142 HD
ENDBRANCH   6   9
ENDBRANCH   1   3
BRANCH   1  12
ATOM     12  O   LIG    1        5.575  -1.841   0.426  0.00  0.00    -0.460 OA
BRANCH  12  13
ATOM     13  C   LIG    1        4.443  -2.310  -0.324  0.00  0.00    +0.247 C 
BRANCH  13  14
ATOM     14  C   LIG    1        3.344  -1.233  -0.360  0.00  0.00    +0.125 C 
BRANCH  14  15
ATOM     15  N   LIG    1        2.135  -1.615  -1.119  0.00  0.00    -0.300 NA
BRANCH  15  17
ATOM     16  C   LIG    1        0.864  -2.640   0.847  0.00  0.00    +0.020 C 
ATOM     17  C   LIG    1        1.465  -2.797  -0.548  0.00  0.00    +0.081 C 
ENDBRANCH  15  17
BRANCH  15  18
ATOM     18  C   LIG    1        1.249  -0.447  -1.273  0.00  0.00    +0.081 C 
ATOM     19  C   LIG    1        0.038  -0.700  -2.167  0.00  0.00    +0.020 C 
ENDBRANCH  15  18
ENDBRANCH  14  15
ENDBRANCH  13  14
ENDBRANCH  12  13
ENDBRANCH   1  12
TORSDOF 8
