REMARK  Name = *****
REMARK                            x       y       z     vdW  Elec       q    Type
REMARK                         _______ _______ _______ _____ _____    ______ ____
ROOT
ATOM      1  O   LIG    1        0.284   0.015  -2.999  0.00  0.00    -0.340 OA
ENDROOT
BRANCH   1   6
ATOM      2  C   LIG    1        2.535   0.506  -0.185  0.00  0.00    +0.178 C 
ATOM      3  C   LIG    1        3.820   0.013  -0.855  0.00  0.00    +0.177 C 
ATOM      4  C   LIG    1        3.524  -1.297  -1.590  0.00  0.00    +0.179 C 
ATOM      5  C   LIG    1        2.368  -1.130  -2.584  0.00  0.00    +0.201 C 
ATOM      6  C   LIG    1        1.177  -0.379  -1.944  0.00  0.00    +0.282 C 
ATOM      7  O   LIG    1        1.579   0.787  -1.228  0.00  0.00    -0.341 OA
BRANCH   3   8
ATOM      8  O   LIG    1        4.294   0.964  -1.830  0.00  0.00    -0.387 OA
ATOM      9  H   LIG    1        3.512   1.457  -2.153  0.00  0.00    +0.210 HD
ENDBRANCH   3   8
BRANCH   4  10
ATOM     10  O   LIG    1        4.683  -1.736  -2.316  0.00  0.00    -0.386 OA
ATOM     11  H   LIG    1        5.133  -0.919  -2.617  0.00  0.00    +0.210 HD
ENDBRANCH   4  10
BRANCH   5  12
ATOM     12  O   LIG    1        1.955  -2.435  -3.030  0.00  0.00    -0.384 OA
ATOM     13  H   LIG    1        2.778  -2.914  -3.252  0.00  0.00    +0.210 HD
ENDBRANCH   5  12
BRANCH   2  14
ATOM     14  C   LIG    1        2.746   1.784   0.622  0.00  0.00    +0.190 C 
BRANCH  14  15
ATOM     15  O   LIG    1        3.676   1.572   1.673  0.00  0.00    -0.392 OA
ATOM     16  H   LIG    1        3.862   2.443   2.068  0.00  0.00    +0.209 HD
ENDBRANCH  14  15
ENDBRANCH   2  14
ENDBRANCH   1   6
BRANCH   1  17
ATOM     17  C   LIG    1       -0.949   0.632  -2.557  0.00  0.00    +0.183 C 
ATOM     18  C   LIG    1       -1.667   1.155  -3.829  0.00  0.00    +0.179 C 
ATOM     19  C   LIG    1       -2.146  -0.013  -4.700  0.00  0.00    +0.201 C 
ATOM     20  C   LIG    1       -2.943  -1.030  -3.860  0.00  0.00    +0.279 C 
ATOM     21  O   LIG    1       -2.231  -1.459  -2.708  0.00  0.00    -0.341 OA
ATOM     22  C   LIG    1       -1.835  -0.393  -1.824  0.00  0.00    +0.178 C 
BRANCH  18  23
ATOM     23  O   LIG    1       -2.762   1.996  -3.460  0.00  0.00    -0.386 OA
ATOM     24  H   LIG    1       -3.089   2.431  -4.270  0.00  0.00    +0.210 HD
ENDBRANCH  18  23
BRANCH  19  25
ATOM     25  O   LIG    1       -1.035  -0.680  -5.324  0.00  0.00    -0.384 OA
ATOM     26  H   LIG    1       -0.404  -0.910  -4.607  0.00  0.00    +0.210 HD
ENDBRANCH  19  25
BRANCH  20  27
ATOM     27  O   LIG    1       -3.220  -2.180  -4.649  0.00  0.00    -0.365 OA
ATOM     28  H   LIG    1       -2.412  -2.312  -5.181  0.00  0.00    +0.213 HD
ENDBRANCH  20  27
BRANCH  22  29
ATOM     29  C   LIG    1       -3.038   0.193  -1.077  0.00  0.00    +0.190 C 
BRANCH  29  30
ATOM     30  O   LIG    1       -3.685  -0.863  -0.362  0.00  0.00    -0.392 OA
ATOM     31  H   LIG    1       -3.712  -1.629  -0.971  0.00  0.00    +0.209 HD
ENDBRANCH  29  30
ENDBRANCH  22  29
ENDBRANCH   1  17
TORSDOF 12
