REMARK  Name = *****
REMARK                            x       y       z     vdW  Elec       q    Type
REMARK                         _______ _______ _______ _____ _____    ______ ____
ROOT
ATOM      1  C   UNK A  0        3.316   5.812  -3.372  0.00  0.00    +0.217 C 
ATOM      2  N   PHE A  1        3.592   4.960  -4.418  0.00  0.00    -0.302 N 
ATOM      3  H   PHE A  1        3.654   5.342  -5.351  0.00  0.00    +0.149 HD
ATOM      4  O   UNK A  0        2.944   5.418  -2.273  0.00  0.00    -0.276 OA
ENDROOT
BRANCH   1   8
ATOM      5  C   UNK A  0        4.342   9.456  -5.593  0.00  0.00    -0.008 C 
ATOM      6  C   UNK A  0        2.864   9.250  -5.202  0.00  0.00    +0.004 C 
ATOM      7  C   UNK A  0        2.546   7.835  -4.702  0.00  0.00    +0.013 C 
ATOM      8  C   UNK A  0        3.543   7.299  -3.667  0.00  0.00    +0.075 C 
ATOM      9  C   UNK A  0        4.994   7.541  -4.096  0.00  0.00    +0.013 C 
ATOM     10  C   UNK A  0        5.234   9.009  -4.425  0.00  0.00    +0.004 C 
BRANCH   5  12
ATOM     11  C   UNK A  0        6.079  11.086  -6.557  0.00  0.00    +0.007 C 
ATOM     12  C   UNK A  0        4.633  10.912  -6.070  0.00  0.00    -0.014 C 
ATOM     13  C   UNK A  0        4.339  11.977  -5.010  0.00  0.00    +0.007 C 
ENDBRANCH   5  12
ENDBRANCH   1   8
BRANCH   2  14
ATOM     14  CA  PHE A  1        3.429   3.507  -4.315  0.00  0.00    +0.186 C 
BRANCH  14  15
ATOM     15  C   PHE A  1        2.011   3.070  -4.661  0.00  0.00    +0.326 C 
ATOM     16  O   PHE A  1        1.277   3.558  -5.521  0.00  0.00    -0.249 OA
BRANCH  15  17
ATOM     17  OXT PHE A  1        1.595   1.999  -3.958  0.00  0.00    -0.479 OA
ATOM     18  HXT PHE A  1        0.681   1.833  -4.277  0.00  0.00    +0.295 HD
ENDBRANCH  15  17
ENDBRANCH  14  15
BRANCH  14  19
ATOM     19  CB  PHE A  1        4.458   2.763  -5.189  0.00  0.00    +0.069 C 
BRANCH  19  20
ATOM     20  CG  PHE A  1        4.387   3.002  -6.688  0.00  0.00    -0.045 A 
ATOM     21  CD2 PHE A  1        5.130   4.025  -7.296  0.00  0.00    +0.003 A 
ATOM     22  CE2 PHE A  1        5.070   4.226  -8.679  0.00  0.00    +0.000 A 
ATOM     23  CZ  PHE A  1        4.288   3.391  -9.474  0.00  0.00    +0.000 A 
ATOM     24  CE1 PHE A  1        3.556   2.364  -8.886  0.00  0.00    +0.000 A 
ATOM     25  CD1 PHE A  1        3.597   2.176  -7.501  0.00  0.00    +0.003 A 
ENDBRANCH  19  20
ENDBRANCH  14  19
ENDBRANCH   2  14
TORSDOF 7
