REMARK  Name = *****
REMARK                            x       y       z     vdW  Elec       q    Type
REMARK                         _______ _______ _______ _____ _____    ______ ____
ROOT
ATOM      1  C   LIG    1        1.072  -0.574   1.011  0.00  0.00    +0.045 C 
ATOM      2  C   LIG    1        2.545  -0.326   0.842  0.00  0.00    -0.029 A 
ATOM      3  C   LIG    1        3.072   0.884   0.348  0.00  0.00    +0.038 A 
ATOM      4  C   LIG    1        4.444   0.931   0.033  0.00  0.00    +0.046 A 
ATOM      5  C   LIG    1        5.280  -0.183   0.237  0.00  0.00    +0.035 A 
ATOM      6  C   LIG    1        4.765  -1.299   0.869  0.00  0.00    +0.024 A 
ATOM      7  C   LIG    1        3.411  -1.379   1.162  0.00  0.00    +0.007 A 
ENDROOT
BRANCH   5   8
ATOM      8  N   LIG    1        6.606  -0.109  -0.243  0.00  0.00    -0.281 N 
ATOM      9  H   LIG    1        6.837   0.747  -0.701  0.00  0.00    +0.155 HD
ATOM     10  C   LIG    1        7.523  -1.169  -0.278  0.00  0.00    +0.248 C 
ATOM     11  O   LIG    1        7.315  -2.317   0.091  0.00  0.00    -0.270 OA
BRANCH  10  12
ATOM     12  C   LIG    1        8.871  -0.867  -0.865  0.00  0.00    +0.037 A 
ATOM     13  C   LIG    1        9.214   0.369  -1.391  0.00  0.00    +0.013 A 
ATOM     14  C   LIG    1       10.447   0.556  -2.016  0.00  0.00    +0.006 A 
ATOM     15  C   LIG    1       11.371  -0.492  -2.110  0.00  0.00    -0.033 A 
ATOM     16  C   LIG    1       11.058  -1.722  -1.520  0.00  0.00    +0.006 A 
ATOM     17  C   LIG    1        9.818  -1.913  -0.898  0.00  0.00    +0.013 A 
BRANCH  15  18
ATOM     18  C   LIG    1       12.670  -0.297  -2.870  0.00  0.00    +0.119 C 
BRANCH  18  19
ATOM     19  N   LIG    1       13.527   0.775  -2.342  0.00  0.00    -0.296 NA
ATOM     20  C   LIG    1       13.904   0.589  -0.927  0.00  0.00    +0.100 C 
ATOM     21  C   LIG    1       15.028  -0.439  -0.670  0.00  0.00    +0.099 C 
ATOM     22  N   LIG    1       16.262  -0.197  -1.441  0.00  0.00    -0.303 NA
ATOM     23  C   LIG    1       16.993   0.964  -0.930  0.00  0.00    +0.105 C 
ATOM     24  C   LIG    1       15.916  -0.039  -2.866  0.00  0.00    +0.099 C 
ATOM     25  C   LIG    1       14.746   0.938  -3.166  0.00  0.00    +0.100 C 
ENDBRANCH  18  19
ENDBRANCH  15  18
ENDBRANCH  10  12
ENDBRANCH   5   8
BRANCH   3  26
ATOM     26  N   LIG    1        2.223   1.979   0.113  0.00  0.00    -0.283 N 
ATOM     27  H   LIG    1        1.574   2.195   0.858  0.00  0.00    +0.155 HD
BRANCH  26  28
ATOM     28  C   LIG    1        2.374   3.081  -0.724  0.00  0.00    +0.220 A 
ATOM     29  N   LIG    1        3.097   2.980  -1.852  0.00  0.00    -0.214 NA
ATOM     30  C   LIG    1        3.164   4.046  -2.679  0.00  0.00    +0.077 A 
ATOM     31  C   LIG    1        2.529   5.231  -2.368  0.00  0.00    +0.048 A 
ATOM     32  C   LIG    1        1.820   5.250  -1.192  0.00  0.00    +0.116 A 
ATOM     33  N   LIG    1        1.716   4.193  -0.368  0.00  0.00    -0.223 NA
BRANCH  30  34
ATOM     34  C   LIG    1        3.928   3.841  -3.923  0.00  0.00    +0.019 A 
ATOM     35  C   LIG    1        4.583   4.880  -4.587  0.00  0.00    +0.120 A 
ATOM     36  N   LIG    1        5.288   4.755  -5.740  0.00  0.00    -0.263 NA
ATOM     37  C   LIG    1        5.359   3.519  -6.274  0.00  0.00    +0.111 A 
ATOM     38  C   LIG    1        4.759   2.409  -5.708  0.00  0.00    +0.020 A 
ATOM     39  C   LIG    1        4.042   2.576  -4.523  0.00  0.00    +0.013 A 
ENDBRANCH  30  34
ENDBRANCH  26  28
ENDBRANCH   3  26
TORSDOF 7
