REMARK  Name = *****
REMARK                            x       y       z     vdW  Elec       q    Type
REMARK                         _______ _______ _______ _____ _____    ______ ____
ROOT
ATOM      1  C   LIG    1       -3.157  -2.809   0.075  0.00  0.00    +0.034 C 
ATOM      2  C   LIG    1       -1.862  -2.252   0.698  0.00  0.00    +0.020 C 
ATOM      3  C   LIG    1       -3.644  -4.181   0.707  0.00  0.00    -0.014 C 
ATOM      4  C   LIG    1       -4.698  -4.851  -0.236  0.00  0.00    +0.012 C 
ATOM      5  C   LIG    1       -4.404  -3.761   2.013  0.00  0.00    -0.000 C 
ATOM      6  C   LIG    1       -3.628  -3.895   3.345  0.00  0.00    -0.000 C 
ATOM      7  C   LIG    1       -2.907  -5.242   3.513  0.00  0.00    +0.035 C 
ATOM      8  C   LIG    1       -1.925  -5.361   2.328  0.00  0.00    +0.119 C 
ATOM      9  C   LIG    1       -3.809  -6.480   3.938  0.00  0.00    +0.013 C 
ATOM     10  C   LIG    1       -2.900  -7.515   4.664  0.00  0.00    +0.020 C 
ATOM     11  C   LIG    1       -4.940  -6.071   4.927  0.00  0.00    -0.056 C 
ATOM     12  C   LIG    1       -5.836  -7.017   5.304  0.00  0.00    +0.051 C 
ATOM     13  C   LIG    1       -6.557  -7.548   4.087  0.00  0.00    +0.179 C 
ATOM     14  O   LIG    1       -7.714  -7.942   4.148  0.00  0.00    -0.288 OA
ATOM     15  C   LIG    1       -5.751  -7.676   2.840  0.00  0.00    +0.047 C 
ATOM     16  C   LIG    1       -5.520  -4.677   4.830  0.00  0.00    +0.032 C 
ATOM     17  C   LIG    1       -4.485  -7.223   2.791  0.00  0.00    -0.012 C 
ATOM     18  C   LIG    1       -4.475  -3.608   4.590  0.00  0.00    +0.008 C 
ATOM     19  C   LIG    1       -4.836  -2.292   1.796  0.00  0.00    +0.008 C 
ATOM     20  C   LIG    1       -2.538  -5.242   0.932  0.00  0.00    +0.039 C 
ATOM     21  C   LIG    1       -4.370  -1.877   0.400  0.00  0.00    -0.000 C 
ATOM     22  C   LIG    1       -4.113  -0.372   0.315  0.00  0.00    +0.008 C 
ENDROOT
BRANCH   1  23
ATOM     23  C   LIG    1       -2.968  -2.867  -1.474  0.00  0.00    +0.140 C 
ATOM     24  O   LIG    1       -3.768  -2.317  -2.237  0.00  0.00    -0.297 OA
BRANCH  23  26
ATOM     25  C   LIG    1       -1.576  -3.382  -3.523  0.00  0.00    +0.012 C 
ATOM     26  C   LIG    1       -1.797  -3.660  -2.044  0.00  0.00    +0.071 C 
ENDBRANCH  23  26
ENDBRANCH   1  23
BRANCH   8  27
ATOM     27  O   LIG    1       -1.164  -6.559   2.394  0.00  0.00    -0.391 OA
ATOM     28  H   LIG    1       -0.463  -6.511   1.720  0.00  0.00    +0.210 HD
ENDBRANCH   8  27
TORSDOF 3
