REMARK  Name = *****
REMARK                            x       y       z     vdW  Elec       q    Type
REMARK                         _______ _______ _______ _____ _____    ______ ____
ROOT
ATOM      1  C   LIG    1        8.276  -1.966  -0.647  0.00  0.00    +0.160 C 
ENDROOT
BRANCH   1   2
ATOM      2  C   LIG    1        6.959  -2.642  -0.253  0.00  0.00    +0.033 C 
BRANCH   2   3
ATOM      3  C   LIG    1        6.995  -3.211   1.170  0.00  0.00    +0.037 C 
BRANCH   3   8
ATOM      4 CL   LIG    1        1.720  -5.751   2.643  0.00  0.00    -0.084 Cl
ATOM      5  C   LIG    1        3.230  -5.027   2.245  0.00  0.00    +0.041 A 
ATOM      6  C   LIG    1        3.447  -3.682   2.506  0.00  0.00    +0.020 A 
ATOM      7  C   LIG    1        4.669  -3.089   2.174  0.00  0.00    +0.005 A 
ATOM      8  C   LIG    1        5.683  -3.852   1.565  0.00  0.00    -0.047 A 
ATOM      9  C   LIG    1        5.450  -5.207   1.314  0.00  0.00    +0.005 A 
ATOM     10  C   LIG    1        4.232  -5.803   1.653  0.00  0.00    +0.020 A 
ENDBRANCH   3   8
ENDBRANCH   2   3
ENDBRANCH   1   2
BRANCH   1  11
ATOM     11  O   LIG    1        9.347  -2.913  -0.630  0.00  0.00    -0.380 OA
BRANCH  11  12
ATOM     12  C   LIG    1       10.599  -2.329  -1.032  0.00  0.00    +0.161 C 
BRANCH  12  13
ATOM     13  C   LIG    1       11.682  -3.407  -0.932  0.00  0.00    +0.043 C 
BRANCH  13  14
ATOM     14  C   LIG    1       13.111  -2.941  -1.274  0.00  0.00    +0.086 C 
BRANCH  14  15
ATOM     15  N   LIG    1       13.640  -1.834  -0.463  0.00  0.00    -0.302 NA
ATOM     16  C   LIG    1       13.557  -2.020   0.989  0.00  0.00    +0.084 C 
ATOM     17  C   LIG    1       14.562  -3.013   1.571  0.00  0.00    +0.015 C 
ATOM     18  C   LIG    1       15.994  -2.709   1.151  0.00  0.00    +0.002 C 
ATOM     19  C   LIG    1       16.123  -2.367  -0.331  0.00  0.00    +0.015 C 
ATOM     20  C   LIG    1       15.009  -1.445  -0.842  0.00  0.00    +0.084 C 
ENDBRANCH  14  15
ENDBRANCH  13  14
ENDBRANCH  12  13
ENDBRANCH  11  12
ENDBRANCH   1  11
TORSDOF 8
