REMARK  Name = *****
REMARK                            x       y       z     vdW  Elec       q    Type
REMARK                         _______ _______ _______ _____ _____    ______ ____
ROOT
ATOM      1  C   LIG    1       -8.205  -4.539   4.938  0.00  0.00    +0.064 C 
ATOM      2  C   LIG    1       -7.576  -5.188   6.196  0.00  0.00    +0.119 C 
ATOM      3  C   LIG    1       -6.058  -5.278   6.213  0.00  0.00    +0.074 C 
ATOM      4  C   LIG    1       -5.803  -6.558   5.471  0.00  0.00    +0.239 C 
ATOM      5  O   LIG    1       -6.898  -7.411   5.888  0.00  0.00    -0.464 OA
ATOM      6  C   LIG    1       -5.348  -3.989   5.796  0.00  0.00    +0.159 C 
ATOM      7  C   LIG    1       -6.013  -3.268   4.644  0.00  0.00    -0.011 A 
ATOM      8  C   LIG    1       -5.244  -2.377   3.878  0.00  0.00    +0.056 A 
ATOM      9  C   LIG    1       -5.885  -1.482   3.052  0.00  0.00    +0.167 A 
ATOM     10  O   LIG    1       -5.285  -0.499   2.330  0.00  0.00    -0.453 OA
ATOM     11  C   LIG    1       -6.440   0.159   1.766  0.00  0.00    +0.466 C 
ATOM     12  O   LIG    1       -7.682  -0.515   2.066  0.00  0.00    -0.453 OA
ATOM     13  C   LIG    1       -7.247  -1.486   2.912  0.00  0.00    +0.167 A 
ATOM     14  C   LIG    1       -8.031  -2.418   3.555  0.00  0.00    +0.054 A 
ATOM     15  C   LIG    1       -7.939  -6.646   6.379  0.00  0.00    +0.312 C 
ATOM     16  O   LIG    1       -8.957  -7.078   6.836  0.00  0.00    -0.251 OA
ATOM     17  C   LIG    1       -7.407  -3.345   4.421  0.00  0.00    -0.030 A 
ENDROOT
BRANCH   1  22
ATOM     18  C   LIG    1      -10.091  -7.090   2.784  0.00  0.00    +0.165 A 
ATOM     19  C   LIG    1       -9.255  -7.189   1.667  0.00  0.00    +0.201 A 
ATOM     20  C   LIG    1       -8.069  -6.450   1.586  0.00  0.00    +0.165 A 
ATOM     21  C   LIG    1       -7.697  -5.636   2.652  0.00  0.00    +0.053 A 
ATOM     22  C   LIG    1       -8.523  -5.501   3.782  0.00  0.00    -0.032 A 
ATOM     23  C   LIG    1       -9.708  -6.249   3.833  0.00  0.00    +0.053 A 
BRANCH  18  25
ATOM     24  C   LIG    1      -12.290  -7.314   3.619  0.00  0.00    +0.277 C 
ATOM     25  O   LIG    1      -11.243  -7.834   2.801  0.00  0.00    -0.491 OA
ENDBRANCH  18  25
BRANCH  19  26
ATOM     26  O   LIG    1       -9.607  -7.975   0.597  0.00  0.00    -0.501 OA
ATOM     27  H   LIG    1       -8.892  -7.845  -0.055  0.00  0.00    +0.292 HD
ENDBRANCH  19  26
BRANCH  20  28
ATOM     28  O   LIG    1       -7.338  -6.588   0.431  0.00  0.00    -0.491 OA
ATOM     29  C   LIG    1       -6.575  -5.437   0.068  0.00  0.00    +0.277 C 
ENDBRANCH  20  28
ENDBRANCH   1  22
BRANCH   6  30
ATOM     30  O   LIG    1       -5.418  -3.160   6.979  0.00  0.00    -0.340 OA
BRANCH  30  31
ATOM     31  C   LIG    1       -4.806  -1.863   6.924  0.00  0.00    +0.282 C 
ATOM     32  C   LIG    1       -5.044  -1.172   8.277  0.00  0.00    +0.201 C 
ATOM     33  C   LIG    1       -4.375   0.196   8.260  0.00  0.00    +0.179 C 
ATOM     34  C   LIG    1       -2.904   0.158   7.827  0.00  0.00    +0.184 C 
ATOM     35  C   LIG    1       -2.650  -0.775   6.634  0.00  0.00    +0.178 C 
ATOM     36  C   LIG    1       -2.779   0.004   5.322  0.00  0.00    +0.197 C 
ATOM     37  O   LIG    1       -3.599   1.152   5.522  0.00  0.00    -0.344 OA
ATOM     38  C   LIG    1       -2.920   2.087   6.363  0.00  0.00    +0.289 C 
ATOM     39  O   LIG    1       -2.403   1.484   7.563  0.00  0.00    -0.338 OA
ATOM     40  O   LIG    1       -3.406  -1.994   6.671  0.00  0.00    -0.341 OA
BRANCH  38  41
ATOM     41  C   LIG    1       -3.875   3.205   6.715  0.00  0.00    +0.045 A 
ATOM     42  S   LIG    1       -4.499   4.227   5.473  0.00  0.00    -0.097 S 
ATOM     43  C   LIG    1       -5.438   5.132   6.581  0.00  0.00    +0.045 A 
ATOM     44  C   LIG    1       -5.258   4.707   7.875  0.00  0.00    +0.008 A 
ATOM     45  C   LIG    1       -4.350   3.612   7.951  0.00  0.00    +0.016 A 
ENDBRANCH  38  41
BRANCH  32  46
ATOM     46  O   LIG    1       -6.444  -0.955   8.537  0.00  0.00    -0.384 OA
ATOM     47  H   LIG    1       -6.488  -0.176   9.129  0.00  0.00    +0.210 HD
ENDBRANCH  32  46
BRANCH  33  48
ATOM     48  O   LIG    1       -4.528   0.785   9.567  0.00  0.00    -0.386 OA
ATOM     49  H   LIG    1       -3.899   0.357  10.174  0.00  0.00    +0.210 HD
ENDBRANCH  33  48
ENDBRANCH  30  31
ENDBRANCH   6  30
TORSDOF 9
