REMARK  Name = *****
REMARK                            x       y       z     vdW  Elec       q    Type
REMARK                         _______ _______ _______ _____ _____    ______ ____
ROOT
ATOM      1  N   LIG    1        3.191  -4.755  -1.899  0.00  0.00    -0.180 NA
ATOM      2  C   LIG    1        4.453  -4.853  -1.584  0.00  0.00    +0.177 C 
ENDROOT
BRANCH   1   9
ATOM      3  O   LIG    1        0.232  -5.931  -5.382  0.00  0.00    -0.274 OA
ATOM      4  C   LIG    1        1.161  -5.942  -4.590  0.00  0.00    +0.240 C 
ATOM      5  N   LIG    1        1.927  -7.023  -4.298  0.00  0.00    -0.237 N 
ATOM      6  H   LIG    1        1.760  -7.946  -4.660  0.00  0.00    +0.159 HD
ATOM      7  C   LIG    1        2.717  -6.762  -3.222  0.00  0.00    +0.328 C 
ATOM      8  O   LIG    1        3.262  -7.619  -2.536  0.00  0.00    -0.250 OA
ATOM      9  N   LIG    1        2.711  -5.364  -3.023  0.00  0.00    -0.168 N 
ATOM     10  C   LIG    1        1.581  -4.784  -3.710  0.00  0.00    +0.232 C 
ENDBRANCH   1   9
BRANCH   2  11
ATOM     11  C   LIG    1        5.566  -5.438  -2.295  0.00  0.00    +0.154 A 
ATOM     12  O   LIG    1        5.387  -6.010  -3.525  0.00  0.00    -0.399 OA
ATOM     13  C   LIG    1        6.580  -6.539  -3.891  0.00  0.00    +0.438 A 
ATOM     14  C   LIG    1        7.563  -6.249  -2.978  0.00  0.00    +0.132 A 
ATOM     15  C   LIG    1        6.907  -5.528  -1.945  0.00  0.00    +0.058 A 
BRANCH  13  16
ATOM     16  N   LIG    1        6.591  -7.277  -5.113  0.00  0.00    +0.119 N 
ATOM     17  O   LIG    1        5.522  -7.394  -5.729  0.00  0.00    -0.574 OA
ATOM     18  O   LIG    1        7.684  -7.743  -5.462  0.00  0.00    +0.045 OA
ENDBRANCH  13  16
ENDBRANCH   2  11
TORSDOF 3
