REMARK  Name = *****
REMARK                            x       y       z     vdW  Elec       q    Type
REMARK                         _______ _______ _______ _____ _____    ______ ____
ROOT
ATOM      1  C   LIG    1        3.287   1.062   0.822  0.00  0.00    +0.086 C 
ENDROOT
BRANCH   1   2
ATOM      2  C   LIG    1        4.828   1.201   0.947  0.00  0.00    -0.027 A 
ATOM      3  C   LIG    1        5.710   0.572   0.041  0.00  0.00    +0.005 A 
ATOM      4  C   LIG    1        7.086   0.813   0.075  0.00  0.00    +0.000 A 
ATOM      5  C   LIG    1        7.616   1.690   1.014  0.00  0.00    +0.000 A 
ATOM      6  C   LIG    1        6.778   2.285   1.952  0.00  0.00    +0.000 A 
ATOM      7  C   LIG    1        5.402   2.034   1.929  0.00  0.00    +0.005 A 
ENDBRANCH   1   2
BRANCH   1   9
ATOM      8  C   LIG    1        1.181   2.579   0.288  0.00  0.00    +0.009 C 
ATOM      9  C   LIG    1        2.706   2.525   0.504  0.00  0.00    +0.007 C 
ATOM     10  C   LIG    1        3.367   3.234  -0.698  0.00  0.00    +0.009 C 
ENDBRANCH   1   9
BRANCH   1  11
ATOM     11  C   LIG    1        2.887   0.158  -0.300  0.00  0.00    +0.074 C 
ATOM     12  N   LIG    1        2.587  -0.527  -1.181  0.00  0.00    -0.196 NA
ENDBRANCH   1  11
BRANCH   1  13
ATOM     13  C   LIG    1        2.610   0.512   2.142  0.00  0.00    +0.045 C 
BRANCH  13  14
ATOM     14  C   LIG    1        3.001  -0.904   2.701  0.00  0.00    +0.055 C 
ATOM     15  C   LIG    1        4.482  -0.988   3.091  0.00  0.00    +0.024 C 
BRANCH  14  16
ATOM     16  N   LIG    1        2.086  -1.326   3.807  0.00  0.00    -0.306 NA
ATOM     17  C   LIG    1        1.946  -0.367   4.901  0.00  0.00    +0.105 C 
ATOM     18  C   LIG    1        2.388  -2.657   4.350  0.00  0.00    +0.105 C 
ENDBRANCH  14  16
ENDBRANCH  13  14
ENDBRANCH   1  13
TORSDOF 6
