REMARK  Name = *****
REMARK                            x       y       z     vdW  Elec       q    Type
REMARK                         _______ _______ _______ _____ _____    ______ ____
ROOT
ATOM      1  C   LIG    1        2.814   0.730   2.071  0.00  0.00    +0.158 C 
ATOM      2  N   LIG    1        2.855   0.771   0.582  0.00  0.00    -0.198 N 
ATOM      3  S   LIG    1        3.578   2.203  -0.037  0.00  0.00    +0.076 S 
ATOM      4  O   LIG    1        3.427   3.279   0.918  0.00  0.00    -0.150 OA
ATOM      5  O   LIG    1        3.224   2.334  -1.431  0.00  0.00    -0.150 OA
ATOM      6  C   LIG    1        5.256   1.848  -0.053  0.00  0.00    +0.126 A 
ATOM      7  C   LIG    1        5.617   0.526  -0.184  0.00  0.00    +0.082 A 
ATOM      8  S   LIG    1        7.328   0.389  -0.158  0.00  0.00    -0.092 S 
ATOM      9  C   LIG    1        7.537   2.084   0.019  0.00  0.00    +0.048 A 
ATOM     10  C   LIG    1        4.713  -0.571  -0.333  0.00  0.00    +0.160 C 
ATOM     11  C   LIG    1        6.335   2.757   0.062  0.00  0.00    +0.037 A 
ATOM     12  C   LIG    1        3.397  -0.445  -0.034  0.00  0.00    +0.155 C 
ENDROOT
BRANCH  12  13
ATOM     13  C   LIG    1        2.455  -1.596  -0.260  0.00  0.00    +0.269 C 
ATOM     14  N   LIG    1        1.138  -1.205  -0.208  0.00  0.00    -0.265 N 
ATOM     15  H   LIG    1        0.964  -0.220  -0.054  0.00  0.00    +0.157 HD
ATOM     16  O   LIG    1        2.913  -2.713  -0.479  0.00  0.00    -0.268 OA
BRANCH  14  17
ATOM     17  C   LIG    1        0.033  -2.038  -0.408  0.00  0.00    +0.125 A 
ATOM     18  N   LIG    1        0.200  -3.346  -0.665  0.00  0.00    -0.240 NA
ATOM     19  C   LIG    1       -0.904  -4.100  -0.860  0.00  0.00    +0.113 A 
ATOM     20  C   LIG    1       -2.193  -3.604  -0.800  0.00  0.00    +0.020 A 
ATOM     21  C   LIG    1       -2.357  -2.253  -0.527  0.00  0.00    +0.005 A 
ATOM     22  C   LIG    1       -1.230  -1.457  -0.330  0.00  0.00    +0.044 A 
ENDBRANCH  14  17
ENDBRANCH  12  13
BRANCH  10  23
ATOM     23  O   LIG    1        5.282  -1.719  -0.853  0.00  0.00    -0.504 OA
ATOM     24  H   LIG    1        4.593  -2.422  -0.896  0.00  0.00    +0.292 HD
ENDBRANCH  10  23
TORSDOF 3
