REMARK  Name = *****
REMARK                            x       y       z     vdW  Elec       q    Type
REMARK                         _______ _______ _______ _____ _____    ______ ____
ROOT
ATOM      1  C   LIG    1       -0.790  -6.054  -1.725  0.00  0.00    +0.037 A 
ATOM      2  C   LIG    1        0.421  -5.493  -1.354  0.00  0.00    +0.070 A 
ATOM      3  C   LIG    1        1.708  -6.122  -1.050  0.00  0.00    +0.256 C 
ATOM      4  N   LIG    1        2.575  -5.118  -0.718  0.00  0.00    -0.222 N 
ATOM      5  C   LIG    1        1.969  -3.894  -0.781  0.00  0.00    +0.255 C 
ATOM      6  O   LIG    1        2.448  -2.792  -0.595  0.00  0.00    -0.270 OA
ATOM      7  O   LIG    1        1.909  -7.322  -1.057  0.00  0.00    -0.269 OA
ATOM      8  C   LIG    1        0.582  -4.130  -1.173  0.00  0.00    +0.051 A 
ATOM      9  C   LIG    1       -0.447  -3.233  -1.380  0.00  0.00    +0.014 A 
ATOM     10  C   LIG    1       -1.670  -3.760  -1.795  0.00  0.00    +0.003 A 
ATOM     11  C   LIG    1       -1.831  -5.150  -1.984  0.00  0.00    +0.023 A 
ENDROOT
BRANCH   4  12
ATOM     12  C   LIG    1        3.973  -5.298  -0.352  0.00  0.00    +0.171 C 
ATOM     13  C   LIG    1        4.070  -6.238   0.849  0.00  0.00    +0.240 C 
ATOM     14  O   LIG    1        3.494  -6.015   1.913  0.00  0.00    -0.273 OA
ATOM     15  N   LIG    1        4.780  -7.400   0.671  0.00  0.00    -0.255 N 
ATOM     16  H   LIG    1        4.821  -8.013   1.474  0.00  0.00    +0.158 HD
ATOM     17  C   LIG    1        5.155  -7.979  -0.514  0.00  0.00    +0.219 C 
ATOM     18  O   LIG    1        5.603  -9.123  -0.539  0.00  0.00    -0.275 OA
ATOM     19  C   LIG    1        4.933  -7.178  -1.774  0.00  0.00    +0.098 C 
ATOM     20  C   LIG    1        4.896  -5.685  -1.504  0.00  0.00    +0.042 C 
ENDBRANCH   4  12
BRANCH   1  21
ATOM     21  N   LIG    1       -0.925  -7.402  -2.063  0.00  0.00    -0.357 N 
ATOM     22  H   LIG    1       -0.211  -8.003  -1.644  0.00  0.00    +0.142 HD
ATOM     23  H   LIG    1       -1.861  -7.781  -1.958  0.00  0.00    +0.142 HD
ENDBRANCH   1  21
TORSDOF 2
