REMARK  Name = *****
REMARK                            x       y       z     vdW  Elec       q    Type
REMARK                         _______ _______ _______ _____ _____    ______ ____
ROOT
ATOM      1  C   LIG    1        9.071   0.263   6.593  0.00  0.00    +0.190 C 
ENDROOT
BRANCH   1   2
ATOM      2  C   LIG    1        9.452  -0.080   8.076  0.00  0.00    +0.036 C 
ATOM      3  C   LIG    1        8.732   0.770   9.151  0.00  0.00    +0.007 C 
ATOM      4  C   LIG    1        7.275   0.379   9.385  0.00  0.00    +0.000 C 
ATOM      5  C   LIG    1        7.155  -1.090   9.766  0.00  0.00    +0.000 C 
ATOM      6  C   LIG    1        7.837  -2.005   8.755  0.00  0.00    +0.000 C 
ATOM      7  C   LIG    1        9.273  -1.576   8.445  0.00  0.00    +0.007 C 
ENDBRANCH   1   2
BRANCH   1   8
ATOM      8  C   LIG    1        9.284   1.759   6.257  0.00  0.00    -0.005 A 
ATOM      9  C   LIG    1       10.506   2.243   5.755  0.00  0.00    +0.007 A 
ATOM     10  C   LIG    1       10.687   3.589   5.430  0.00  0.00    +0.000 A 
ATOM     11  C   LIG    1        9.661   4.501   5.639  0.00  0.00    +0.000 A 
ATOM     12  C   LIG    1        8.449   4.062   6.162  0.00  0.00    +0.000 A 
ATOM     13  C   LIG    1        8.258   2.706   6.455  0.00  0.00    +0.007 A 
ENDBRANCH   1   8
BRANCH   1  14
ATOM     14  C   LIG    1        9.927  -0.636   5.624  0.00  0.00    +0.345 C 
ATOM     15  O   LIG    1       11.149  -0.662   5.540  0.00  0.00    -0.247 OA
BRANCH  14  16
ATOM     16  O   LIG    1        9.095  -1.393   4.843  0.00  0.00    -0.450 OA
BRANCH  16  17
ATOM     17  C   LIG    1        9.626  -1.664   3.542  0.00  0.00    +0.321 C 
BRANCH  17  19
ATOM     18  C   LIG    1        9.026   0.473   2.054  0.00  0.00    -0.083 C 
ATOM     19  C   LIG    1        9.328  -0.517   2.688  0.00  0.00    -0.060 C 
BRANCH  18  20
ATOM     20  C   LIG    1        8.618   1.670   1.300  0.00  0.00    +0.174 C 
BRANCH  20  21
ATOM     21  N   LIG    1        8.026   1.366  -0.016  0.00  0.00    -0.292 NA
BRANCH  21  23
ATOM     22  C   LIG    1       10.277   1.295  -1.172  0.00  0.00    +0.020 C 
ATOM     23  C   LIG    1        8.935   0.618  -0.902  0.00  0.00    +0.082 C 
ENDBRANCH  21  23
BRANCH  21  24
ATOM     24  C   LIG    1        6.724   0.684   0.146  0.00  0.00    +0.082 C 
ATOM     25  C   LIG    1        5.923   0.538  -1.148  0.00  0.00    +0.020 C 
ENDBRANCH  21  24
ENDBRANCH  20  21
ENDBRANCH  18  20
ENDBRANCH  17  19
ENDBRANCH  16  17
ENDBRANCH  14  16
ENDBRANCH   1  14
BRANCH   1  26
ATOM     26  O   LIG    1        7.675  -0.015   6.383  0.00  0.00    -0.373 OA
ATOM     27  H   LIG    1        7.632  -0.886   5.945  0.00  0.00    +0.211 HD
ENDBRANCH   1  26
TORSDOF 11
