REMARK  Name = *****
REMARK                            x       y       z     vdW  Elec       q    Type
REMARK                         _______ _______ _______ _____ _____    ______ ____
ROOT
ATOM      1  C   LIG    1        5.672  -2.656   9.403  0.00  0.00    +0.134 C 
ATOM      2  C   LIG    1        6.864  -2.748   8.431  0.00  0.00    +0.079 C 
ATOM      3  C   LIG    1        6.636  -1.904   7.162  0.00  0.00    +0.158 C 
ATOM      4  C   LIG    1        5.416  -2.456   6.462  0.00  0.00    +0.030 A 
ATOM      5  C   LIG    1        4.269  -2.754   7.215  0.00  0.00    +0.007 A 
ATOM      6  C   LIG    1        3.068  -3.010   6.545  0.00  0.00    +0.132 A 
ATOM      7  C   LIG    1        3.014  -3.042   5.145  0.00  0.00    +0.078 A 
ATOM      8  C   LIG    1        1.727  -3.214   4.462  0.00  0.00    +0.198 C 
ATOM      9  O   LIG    1        0.713  -3.405   5.124  0.00  0.00    -0.286 OA
ATOM     10  C   LIG    1        1.661  -3.117   2.997  0.00  0.00    +0.037 A 
ATOM     11  C   LIG    1        2.827  -3.061   2.228  0.00  0.00    +0.075 A 
ATOM     12  C   LIG    1        2.716  -2.994   0.827  0.00  0.00    +0.132 A 
ATOM     13  C   LIG    1        1.444  -2.985   0.235  0.00  0.00    +0.046 A 
ATOM     14  C   LIG    1        0.290  -3.014   1.017  0.00  0.00    +0.004 A 
ATOM     15  C   LIG    1        4.139  -3.029   2.929  0.00  0.00    +0.202 C 
ATOM     16  O   LIG    1        5.215  -3.091   2.341  0.00  0.00    -0.286 OA
ATOM     17  C   LIG    1        0.397  -3.083   2.399  0.00  0.00    +0.012 A 
ATOM     18  C   LIG    1        4.180  -2.896   4.402  0.00  0.00    +0.078 A 
ATOM     19  C   LIG    1        5.381  -2.604   5.066  0.00  0.00    +0.135 A 
ATOM     20  C   LIG    1        4.302  -2.858   8.726  0.00  0.00    +0.082 C 
ENDROOT
BRANCH   1  21
ATOM     21  O   LIG    1        5.655  -1.328   9.966  0.00  0.00    -0.381 OA
ATOM     22  H   LIG    1        5.915  -0.705   9.258  0.00  0.00    +0.211 HD
ENDBRANCH   1  21
BRANCH  19  23
ATOM     23  O   LIG    1        6.561  -2.440   4.390  0.00  0.00    -0.506 OA
ATOM     24  H   LIG    1        6.422  -2.669   3.441  0.00  0.00    +0.292 HD
ENDBRANCH  19  23
BRANCH   6  25
ATOM     25  O   LIG    1        1.959  -3.219   7.325  0.00  0.00    -0.506 OA
ATOM     26  H   LIG    1        1.176  -3.342   6.739  0.00  0.00    +0.292 HD
ENDBRANCH   6  25
BRANCH  12  27
ATOM     27  O   LIG    1        3.864  -2.988   0.083  0.00  0.00    -0.494 OA
ATOM     28  C   LIG    1        3.808  -2.310  -1.167  0.00  0.00    +0.277 C 
ENDBRANCH  12  27
BRANCH   1  29
ATOM     29  C   LIG    1        5.847  -3.660  10.585  0.00  0.00    +0.202 C 
ATOM     30  O   LIG    1        5.967  -3.278  11.754  0.00  0.00    -0.291 OA
BRANCH  29  31
ATOM     31  C   LIG    1        5.823  -5.172  10.265  0.00  0.00    +0.309 C 
BRANCH  31  32
ATOM     32  O   LIG    1        5.994  -5.983  11.432  0.00  0.00    -0.457 OA
BRANCH  32  33
ATOM     33  C   LIG    1        7.241  -5.998  11.923  0.00  0.00    +0.307 C 
ATOM     34  O   LIG    1        8.222  -5.488  11.354  0.00  0.00    -0.251 OA
BRANCH  33  35
ATOM     35  C   LIG    1        7.331  -6.787  13.196  0.00  0.00    +0.120 C 
BRANCH  35  36
ATOM     36  C   LIG    1        6.143  -6.622  14.156  0.00  0.00    +0.011 C 
BRANCH  36  38
ATOM     37  C   LIG    1        6.340  -8.981  15.128  0.00  0.00    +0.004 C 
ATOM     38  C   LIG    1        6.279  -7.484  15.416  0.00  0.00    -0.003 C 
ENDBRANCH  36  38
ENDBRANCH  35  36
ENDBRANCH  33  35
ENDBRANCH  32  33
ENDBRANCH  31  32
ENDBRANCH  29  31
ENDBRANCH   1  29
BRANCH   3  39
ATOM     39  O   LIG    1        6.401  -0.532   7.550  0.00  0.00    -0.343 OA
BRANCH  39  40
ATOM     40  C   LIG    1        6.308   0.403   6.455  0.00  0.00    +0.253 C 
ATOM     41  O   LIG    1        7.497   0.390   5.684  0.00  0.00    -0.346 OA
ATOM     42  C   LIG    1        7.520   1.336   4.613  0.00  0.00    +0.148 C 
ATOM     43  C   LIG    1        6.455   1.060   3.544  0.00  0.00    +0.040 C 
ATOM     44  C   LIG    1        7.488   2.764   5.178  0.00  0.00    +0.163 C 
ATOM     45  C   LIG    1        6.277   2.971   6.119  0.00  0.00    +0.109 C 
ATOM     46  C   LIG    1        6.078   1.785   7.076  0.00  0.00    +0.086 C 
BRANCH  45  47
ATOM     47  N   LIG    1        6.435   4.201   6.925  0.00  0.00    -0.302 N 
ATOM     48  H   LIG    1        6.979   4.145   7.785  0.00  0.00    +0.149 HD
ATOM     49  C   LIG    1        6.098   5.477   6.486  0.00  0.00    +0.318 C 
ATOM     50  O   LIG    1        5.631   5.663   5.362  0.00  0.00    -0.266 OA
BRANCH  49  51
ATOM     51  C   LIG    1        6.393   6.616   7.496  0.00  0.00    +0.469 C 
ATOM     52  F   LIG    1        5.279   7.300   7.865  0.00  0.00    -0.162 F 
ATOM     53  F   LIG    1        7.275   7.527   7.002  0.00  0.00    -0.162 F 
ATOM     54  F   LIG    1        6.951   6.134   8.647  0.00  0.00    -0.162 F 
ENDBRANCH  49  51
ENDBRANCH  45  47
BRANCH  44  55
ATOM     55  O   LIG    1        7.506   3.697   4.098  0.00  0.00    -0.387 OA
ATOM     56  H   LIG    1        7.421   4.601   4.466  0.00  0.00    +0.210 HD
ENDBRANCH  44  55
ENDBRANCH  39  40
ENDBRANCH   3  39
TORSDOF 16
