REMARK  Name = *****
REMARK                            x       y       z     vdW  Elec       q    Type
REMARK                         _______ _______ _______ _____ _____    ______ ____
ROOT
ATOM      1  O   LIG    1        3.621  -0.673   0.122  0.00  0.00    +0.000 OA
ENDROOT
BRANCH   1   2
ATOM      2 SI   LIG    1        2.735   0.678  -0.097  0.00  0.00    +0.000 Si
BRANCH   2   3
ATOM      3  O   LIG    1        3.178   1.859   0.957  0.00  0.00    +0.000 OA
ATOM      4  H   LIG    1        3.917   2.404   0.650  0.00  0.00    +0.000 HD
ENDBRANCH   2   3
BRANCH   2   5
ATOM      5  O   LIG    1        2.907   1.252  -1.627  0.00  0.00    +0.000 OA
ATOM      6  H   LIG    1        2.237   0.909  -2.239  0.00  0.00    +0.000 HD
ENDBRANCH   2   5
BRANCH   2   7
ATOM      7  O   LIG    1        1.142   0.357   0.145  0.00  0.00    +0.000 OA
ATOM      8  H   LIG    1        0.875   0.412   1.076  0.00  0.00    +0.000 HD
ENDBRANCH   2   7
ENDBRANCH   1   2
BRANCH   1   9
ATOM      9 SI   LIG    1        5.152  -1.231   0.060  0.00  0.00    +0.000 Si
BRANCH   9  10
ATOM     10  O   LIG    1        6.122  -0.403   1.096  0.00  0.00    +0.000 OA
ATOM     11  H   LIG    1        6.164  -0.802   1.979  0.00  0.00    +0.000 HD
ENDBRANCH   9  10
BRANCH   9  12
ATOM     12  O   LIG    1        5.773  -1.103  -1.454  0.00  0.00    +0.000 OA
ATOM     13  H   LIG    1        6.189  -0.248  -1.638  0.00  0.00    +0.000 HD
ENDBRANCH   9  12
BRANCH   9  14
ATOM     14  O   LIG    1        5.194  -2.818   0.489  0.00  0.00    +0.000 OA
ATOM     15  H   LIG    1        5.024  -3.420  -0.251  0.00  0.00    +0.000 HD
ENDBRANCH   9  14
ENDBRANCH   1   9
TORSDOF 8
