REMARK  Name = *****
REMARK                            x       y       z     vdW  Elec       q    Type
REMARK                         _______ _______ _______ _____ _____    ______ ____
ROOT
ATOM      1  C   LIG    1        3.850   3.804   2.155  0.00  0.00    +0.165 C 
ATOM      2  C   LIG    1        3.886   5.231   1.690  0.00  0.00    +0.249 C 
ATOM      3  O   LIG    1        4.410   5.586   0.637  0.00  0.00    -0.273 OA
ATOM      4  N   LIG    1        3.334   6.003   2.717  0.00  0.00    -0.180 N 
ATOM      5  N   LIG    1        2.687   5.153   3.664  0.00  0.00    -0.180 N 
ATOM      6  C   LIG    1        2.981   3.809   3.373  0.00  0.00    +0.249 C 
ATOM      7  O   LIG    1        2.564   2.790   3.916  0.00  0.00    -0.273 OA
ENDROOT
BRANCH   4   8
ATOM      8  C   LIG    1        3.831   7.302   3.074  0.00  0.00    +0.057 A 
ATOM      9  C   LIG    1        3.609   7.841   4.353  0.00  0.00    +0.029 A 
ATOM     10  C   LIG    1        4.180   9.061   4.738  0.00  0.00    +0.047 A 
ATOM     11  C   LIG    1        4.990   9.755   3.853  0.00  0.00    +0.117 A 
ATOM     12  C   LIG    1        5.202   9.271   2.572  0.00  0.00    +0.047 A 
ATOM     13  C   LIG    1        4.613   8.060   2.185  0.00  0.00    +0.029 A 
BRANCH  11  14
ATOM     14  O   LIG    1        5.568  10.910   4.285  0.00  0.00    -0.507 OA
ATOM     15  H   LIG    1        6.160  11.243   3.590  0.00  0.00    +0.292 HD
ENDBRANCH  11  14
ENDBRANCH   4   8
BRANCH   5  16
ATOM     16  C   LIG    1        1.371   5.440   4.130  0.00  0.00    +0.057 A 
ATOM     17  C   LIG    1        0.876   4.803   5.276  0.00  0.00    +0.025 A 
ATOM     18  C   LIG    1       -0.429   5.044   5.708  0.00  0.00    +0.002 A 
ATOM     19  C   LIG    1       -1.249   5.913   4.993  0.00  0.00    +0.000 A 
ATOM     20  C   LIG    1       -0.762   6.557   3.857  0.00  0.00    +0.002 A 
ATOM     21  C   LIG    1        0.547   6.331   3.434  0.00  0.00    +0.025 A 
ENDBRANCH   5  16
BRANCH   1  22
ATOM     22  C   LIG    1        5.245   3.257   2.455  0.00  0.00    +0.022 C 
BRANCH  22  23
ATOM     23  C   LIG    1        6.040   4.035   3.518  0.00  0.00    +0.001 C 
BRANCH  23  25
ATOM     24  C   LIG    1        8.338   3.437   2.570  0.00  0.00    +0.004 C 
ATOM     25  C   LIG    1        7.421   3.427   3.785  0.00  0.00    -0.003 C 
ENDBRANCH  23  25
ENDBRANCH  22  23
ENDBRANCH   1  22
TORSDOF 6
