REMARK  Name = *****
REMARK                            x       y       z     vdW  Elec       q    Type
REMARK                         _______ _______ _______ _____ _____    ______ ____
ROOT
ATOM      1  O   LIG    1        0.077  -2.092  -7.938  0.00  0.00    -0.459 OA
ENDROOT
BRANCH   1   6
ATOM      2  C   LIG    1       -3.116  -1.063 -10.116  0.00  0.00    +0.192 C 
ATOM      3  N   LIG    1       -2.675   0.339  -9.685  0.00  0.00    +0.243 N 
ATOM      4  C   LIG    1       -1.243   0.721 -10.101  0.00  0.00    +0.070 C 
ATOM      5  C   LIG    1       -0.274  -0.394  -9.683  0.00  0.00    +0.099 C 
ATOM      6  C   LIG    1       -0.342  -0.731  -8.182  0.00  0.00    +0.187 C 
ATOM      7  C   LIG    1       -1.736  -0.581  -7.550  0.00  0.00    +0.099 C 
ATOM      8  C   LIG    1       -0.975   2.002  -9.294  0.00  0.00    +0.060 C 
ATOM      9  C   LIG    1       -1.847   1.892  -8.041  0.00  0.00    +0.060 C 
ATOM     10  C   LIG    1       -2.574   0.545  -8.163  0.00  0.00    +0.070 C 
ATOM     11  C   LIG    1       -3.712   1.292 -10.312  0.00  0.00    +0.192 C 
ENDBRANCH   1   6
BRANCH   1  12
ATOM     12  C   LIG    1        1.428  -2.295  -7.892  0.00  0.00    +0.341 C 
ATOM     13  O   LIG    1        2.243  -1.454  -8.265  0.00  0.00    -0.247 OA
BRANCH  12  14
ATOM     14  C   LIG    1        1.798  -3.650  -7.299  0.00  0.00    +0.253 C 
BRANCH  14  15
ATOM     15  C   LIG    1        1.859  -4.791  -8.293  0.00  0.00    -0.008 A 
ATOM     16  C   LIG    1        2.289  -4.611  -9.617  0.00  0.00    +0.007 A 
ATOM     17  C   LIG    1        2.355  -5.694 -10.499  0.00  0.00    +0.000 A 
ATOM     18  C   LIG    1        2.020  -6.974 -10.065  0.00  0.00    +0.000 A 
ATOM     19  C   LIG    1        1.626  -7.177  -8.746  0.00  0.00    +0.000 A 
ATOM     20  C   LIG    1        1.550  -6.095  -7.865  0.00  0.00    +0.007 A 
ENDBRANCH  14  15
BRANCH  14  21
ATOM     21  O   LIG    1        3.062  -3.558  -6.646  0.00  0.00    -0.376 OA
ATOM     22  H   LIG    1        3.700  -3.254  -7.318  0.00  0.00    +0.211 HD
ENDBRANCH  14  21
ENDBRANCH  12  14
ENDBRANCH   1  12
TORSDOF 5
