REMARK  Name = *****
REMARK                            x       y       z     vdW  Elec       q    Type
REMARK                         _______ _______ _______ _____ _____    ______ ____
ROOT
ATOM      1  C   LIG    1        3.896   2.343   3.401  0.00  0.00    +0.080 A 
ATOM      2  C   LIG    1        3.899   2.997   4.638  0.00  0.00    +0.134 A 
ATOM      3  C   LIG    1        3.977   4.402   4.668  0.00  0.00    +0.071 A 
ATOM      4  C   LIG    1        4.064   5.181   3.502  0.00  0.00    +0.053 A 
ATOM      5  C   LIG    1        3.970   4.520   2.279  0.00  0.00    +0.110 A 
ATOM      6  C   LIG    1        3.909   3.118   2.229  0.00  0.00    +0.045 A 
ENDROOT
BRANCH   1   9
ATOM      7  N   LIG    1        4.399   0.280   2.194  0.00  0.00    -0.310 N 
ATOM      8  H   LIG    1        5.000   0.840   1.612  0.00  0.00    +0.149 HD
ATOM      9  C   LIG    1        3.788   0.842   3.310  0.00  0.00    +0.248 C 
ATOM     10  O   LIG    1        3.163   0.192   4.130  0.00  0.00    -0.270 OA
BRANCH   7  11
ATOM     11  C   LIG    1        4.257  -1.127   1.841  0.00  0.00    +0.123 C 
BRANCH  11  13
ATOM     12  N   LIG    1        2.774  -0.819  -0.291  0.00  0.00    -0.298 NA
ATOM     13  C   LIG    1        3.006  -1.514   0.990  0.00  0.00    +0.074 C 
ATOM     14  C   LIG    1        1.680  -1.227   1.694  0.00  0.00    +0.021 C 
ATOM     15  C   LIG    1        1.305   0.186   1.262  0.00  0.00    +0.017 C 
ATOM     16  C   LIG    1        2.165   0.467   0.035  0.00  0.00    +0.085 C 
BRANCH  12  18
ATOM     17  C   LIG    1        4.441  -2.082  -1.615  0.00  0.00    +0.020 C 
ATOM     18  C   LIG    1        3.899  -0.715  -1.211  0.00  0.00    +0.081 C 
ENDBRANCH  12  18
ENDBRANCH  11  13
ENDBRANCH   7  11
ENDBRANCH   1   9
BRANCH   4  19
ATOM     19  N   LIG    1        3.991   6.576   3.642  0.00  0.00    -0.356 N 
ATOM     20  H   LIG    1        4.372   6.922   4.521  0.00  0.00    +0.142 HD
ATOM     21  H   LIG    1        4.396   7.092   2.852  0.00  0.00    +0.142 HD
ENDBRANCH   4  19
BRANCH   5  22
ATOM     22  S   LIG    1        4.033   5.387   0.717  0.00  0.00    -0.002 S 
ATOM     23  O   LIG    1        4.539   4.449  -0.267  0.00  0.00    -0.169 OA
ATOM     24  O   LIG    1        4.718   6.652   0.953  0.00  0.00    -0.169 OA
BRANCH  22  25
ATOM     25  C   LIG    1        2.323   5.727   0.350  0.00  0.00    +0.168 C 
ATOM     26  C   LIG    1        2.167   6.472  -0.963  0.00  0.00    +0.028 C 
ENDBRANCH  22  25
ENDBRANCH   5  22
BRANCH   2  27
ATOM     27  O   LIG    1        3.907   2.242   5.780  0.00  0.00    -0.494 OA
ATOM     28  C   LIG    1        3.286   2.822   6.922  0.00  0.00    +0.277 C 
ENDBRANCH   2  27
TORSDOF 8
