REMARK  Name = *****
REMARK                            x       y       z     vdW  Elec       q    Type
REMARK                         _______ _______ _______ _____ _____    ______ ____
ROOT
ATOM      1  C   LIG    1        2.740   0.311  -3.632  0.00  0.00    +0.125 C 
ENDROOT
BRANCH   1   2
ATOM      2  N   LIG    1        2.220  -0.813  -4.380  0.00  0.00    -0.315 N 
ATOM      3  C   LIG    1        2.086  -0.908  -5.740  0.00  0.00    +0.165 A 
ATOM      4  C   LIG    1        1.515  -2.154  -5.952  0.00  0.00    +0.126 A 
ATOM      5  C   LIG    1        1.315  -2.516  -7.277  0.00  0.00    +0.145 A 
ATOM      6  N   LIG    1        1.631  -1.636  -8.261  0.00  0.00    -0.221 NA
ATOM      7  C   LIG    1        2.162  -0.448  -7.918  0.00  0.00    +0.214 A 
ATOM      8  N   LIG    1        1.246  -2.783  -4.763  0.00  0.00    -0.233 NA
ATOM      9  N   LIG    1        2.424  -0.006  -6.676  0.00  0.00    -0.195 NA
ATOM     10  C   LIG    1        1.639  -1.932  -3.839  0.00  0.00    +0.201 A 
BRANCH   7  11
ATOM     11  N   LIG    1        2.403   0.432  -8.957  0.00  0.00    -0.327 N 
ATOM     12  H   LIG    1        2.394   1.377  -8.603  0.00  0.00    +0.145 HD
ATOM     13  H   LIG    1        1.765   0.221  -9.713  0.00  0.00    +0.145 HD
ENDBRANCH   7  11
ENDBRANCH   1   2
BRANCH   1  14
ATOM     14  C   LIG    1        4.272   0.358  -3.443  0.00  0.00    +0.032 C 
BRANCH  14  15
ATOM     15  C   LIG    1        4.911  -0.848  -2.710  0.00  0.00    +0.066 C 
BRANCH  15  16
ATOM     16  C   LIG    1        4.378  -1.014  -1.275  0.00  0.00    +0.239 C 
BRANCH  16  17
ATOM     17  O   LIG    1        4.521   0.210  -0.527  0.00  0.00    -0.464 OA
BRANCH  17  19
ATOM     18  C   LIG    1        3.656   2.021   0.718  0.00  0.00    +0.136 C 
ATOM     19  C   LIG    1        3.376   0.754  -0.030  0.00  0.00    +0.304 C 
ATOM     20  O   LIG    1        2.247   0.318  -0.212  0.00  0.00    -0.251 OA
ENDBRANCH  17  19
ENDBRANCH  16  17
ENDBRANCH  15  16
BRANCH  15  21
ATOM     21  C   LIG    1        6.456  -0.764  -2.672  0.00  0.00    +0.239 C 
BRANCH  21  22
ATOM     22  O   LIG    1        7.034  -0.623  -3.985  0.00  0.00    -0.464 OA
BRANCH  22  23
ATOM     23  C   LIG    1        7.231  -1.766  -4.681  0.00  0.00    +0.304 C 
ATOM     24  O   LIG    1        6.898  -2.877  -4.289  0.00  0.00    -0.251 OA
ATOM     25  C   LIG    1        7.875  -1.516  -5.996  0.00  0.00    +0.136 C 
ENDBRANCH  22  23
ENDBRANCH  21  22
ENDBRANCH  15  21
ENDBRANCH  14  15
ENDBRANCH   1  14
TORSDOF 10
