REMARK  Name = *****
REMARK                            x       y       z     vdW  Elec       q    Type
REMARK                         _______ _______ _______ _____ _____    ______ ____
ROOT
ATOM      1  C   LIG    1        1.554   1.237  -3.732  0.00  0.00    +0.122 A 
ATOM      2  C   LIG    1        1.903   1.855  -4.944  0.00  0.00    +0.046 A 
ATOM      3  C   LIG    1        1.716   1.198  -6.179  0.00  0.00    +0.015 A 
ATOM      4  C   LIG    1        1.169  -0.090  -6.215  0.00  0.00    +0.022 A 
ATOM      5  C   LIG    1        0.797  -0.689  -5.013  0.00  0.00    +0.015 A 
ATOM      6  C   LIG    1        1.001  -0.037  -3.794  0.00  0.00    +0.046 A 
ENDROOT
BRANCH   4   7
ATOM      7  C   LIG    1        0.925  -0.866  -7.463  0.00  0.00    +0.193 C 
ATOM      8  O   LIG    1        0.009  -1.688  -7.480  0.00  0.00    -0.287 OA
BRANCH   7   9
ATOM      9  C   LIG    1        1.747  -0.705  -8.689  0.00  0.00    +0.022 A 
ATOM     10  C   LIG    1        1.144  -0.946  -9.932  0.00  0.00    +0.013 A 
ATOM     11  C   LIG    1        1.874  -0.791 -11.113  0.00  0.00    +0.021 A 
ATOM     12  C   LIG    1        3.212  -0.408 -11.051  0.00  0.00    +0.041 A 
ATOM     13 CL   LIG    1        4.107  -0.187 -12.503  0.00  0.00    -0.084 Cl
ATOM     14  C   LIG    1        3.833  -0.210  -9.818  0.00  0.00    +0.021 A 
ATOM     15  C   LIG    1        3.106  -0.374  -8.635  0.00  0.00    +0.013 A 
ENDBRANCH   7   9
ENDBRANCH   4   7
BRANCH   1  16
ATOM     16  O   LIG    1        1.757   1.953  -2.582  0.00  0.00    -0.475 OA
BRANCH  16  18
ATOM     17  C   LIG    1        0.466   0.966  -0.681  0.00  0.00    +0.067 C 
ATOM     18  C   LIG    1        1.839   1.332  -1.276  0.00  0.00    +0.200 C 
ATOM     19  C   LIG    1        2.770   0.106  -1.195  0.00  0.00    +0.067 C 
BRANCH  18  20
ATOM     20  C   LIG    1        2.476   2.412  -0.366  0.00  0.00    +0.348 C 
ATOM     21  O   LIG    1        3.580   2.304   0.192  0.00  0.00    -0.246 OA
BRANCH  20  22
ATOM     22  O   LIG    1        1.743   3.530  -0.184  0.00  0.00    -0.478 OA
ATOM     23  H   LIG    1        0.922   3.556  -0.731  0.00  0.00    +0.295 HD
ENDBRANCH  20  22
ENDBRANCH  18  20
ENDBRANCH  16  18
ENDBRANCH   1  16
TORSDOF 6
