REMARK  Name = *****
REMARK                            x       y       z     vdW  Elec       q    Type
REMARK                         _______ _______ _______ _____ _____    ______ ____
ROOT
ATOM      1  C   LIG    1        8.157   5.057   4.532  0.00  0.00    +0.068 C 
ATOM      2  C   LIG    1        7.816   3.927   3.546  0.00  0.00    +0.097 C 
ATOM      3  C   LIG    1        6.439   4.130   2.916  0.00  0.00    +0.065 C 
ATOM      4  C   LIG    1        5.897   5.372   2.867  0.00  0.00    +0.016 C 
ATOM      5  C   LIG    1        4.516   5.683   2.351  0.00  0.00    +0.061 C 
ATOM      6  N   LIG    1        6.613   6.447   3.388  0.00  0.00    -0.319 N 
ATOM      7  H   LIG    1        6.109   7.333   3.454  0.00  0.00    +0.152 HD
ATOM      8  C   LIG    1        7.595   6.281   4.373  0.00  0.00    +0.045 C 
ENDROOT
BRANCH   2   9
ATOM      9  C   LIG    1        8.918   3.770   2.472  0.00  0.00    -0.017 A 
ATOM     10  C   LIG    1        9.721   2.621   2.342  0.00  0.00    +0.045 A 
ATOM     11 CL   LIG    1        9.561   1.229   3.357  0.00  0.00    -0.083 Cl
ATOM     12  C   LIG    1       10.706   2.540   1.344  0.00  0.00    +0.020 A 
ATOM     13  C   LIG    1       10.899   3.587   0.447  0.00  0.00    +0.001 A 
ATOM     14  C   LIG    1       10.122   4.732   0.557  0.00  0.00    +0.000 A 
ATOM     15  C   LIG    1        9.150   4.824   1.558  0.00  0.00    +0.006 A 
ENDBRANCH   2   9
BRANCH   1  16
ATOM     16  C   LIG    1        9.069   4.715   5.649  0.00  0.00    +0.338 C 
ATOM     17  O   LIG    1        9.611   5.507   6.420  0.00  0.00    -0.245 OA
BRANCH  16  18
ATOM     18  O   LIG    1        9.274   3.385   5.658  0.00  0.00    -0.462 OA
BRANCH  18  20
ATOM     19  C   LIG    1       11.662   3.191   5.538  0.00  0.00    +0.048 C 
ATOM     20  C   LIG    1       10.419   2.916   6.367  0.00  0.00    +0.229 C 
ENDBRANCH  18  20
ENDBRANCH  16  18
ENDBRANCH   1  16
BRANCH   3  21
ATOM     21  C   LIG    1        5.770   2.874   2.486  0.00  0.00    +0.337 C 
ATOM     22  O   LIG    1        6.064   1.767   2.904  0.00  0.00    -0.245 OA
BRANCH  21  23
ATOM     23  O   LIG    1        4.849   3.132   1.530  0.00  0.00    -0.465 OA
ATOM     24  C   LIG    1        4.176   2.006   0.975  0.00  0.00    +0.280 C 
ENDBRANCH  21  23
ENDBRANCH   3  21
BRANCH   8  25
ATOM     25  C   LIG    1        7.897   7.516   5.199  0.00  0.00    +0.211 C 
BRANCH  25  26
ATOM     26  O   LIG    1        6.672   7.953   5.796  0.00  0.00    -0.373 OA
BRANCH  26  27
ATOM     27  C   LIG    1        6.863   9.177   6.512  0.00  0.00    +0.175 C 
BRANCH  27  28
ATOM     28  C   LIG    1        5.553   9.568   7.203  0.00  0.00    +0.106 C 
BRANCH  28  29
ATOM     29  N   LIG    1        5.149   8.580   8.206  0.00  0.00    -0.328 NA
ATOM     30  H   LIG    1        4.259   8.852   8.618  0.00  0.00    +0.118 HD
ATOM     31  H   LIG    1        4.992   7.691   7.726  0.00  0.00    +0.118 HD
ENDBRANCH  28  29
ENDBRANCH  27  28
ENDBRANCH  26  27
ENDBRANCH  25  26
ENDBRANCH   8  25
TORSDOF 11
