REMARK  Name = *****
REMARK                            x       y       z     vdW  Elec       q    Type
REMARK                         _______ _______ _______ _____ _____    ______ ____
ROOT
ATOM      1  C   LIG    1        4.816  -1.266   2.576  0.00  0.00    +0.220 A 
ATOM      2  N   LIG    1        4.774  -2.503   3.083  0.00  0.00    -0.197 NA
ATOM      3  C   LIG    1        5.442  -2.795   4.217  0.00  0.00    +0.153 A 
ATOM      4  C   LIG    1        6.180  -1.816   4.918  0.00  0.00    +0.136 A 
ATOM      5  N   LIG    1        6.857  -2.071   6.062  0.00  0.00    -0.209 NA
ATOM      6  C   LIG    1        7.519  -1.100   6.696  0.00  0.00    +0.220 A 
ATOM      7  N   LIG    1        7.499   0.157   6.243  0.00  0.00    -0.197 NA
ATOM      8  C   LIG    1        6.841   0.442   5.093  0.00  0.00    +0.153 A 
ATOM      9  C   LIG    1        6.141  -0.535   4.342  0.00  0.00    +0.136 A 
ATOM     10  N   LIG    1        5.492  -0.287   3.183  0.00  0.00    -0.209 NA
ENDROOT
BRANCH   3  11
ATOM     11  N   LIG    1        5.342  -4.159   4.580  0.00  0.00    -0.313 N 
ATOM     12  C   LIG    1        3.948  -4.577   4.822  0.00  0.00    +0.106 C 
ATOM     13  C   LIG    1        3.789  -6.101   4.929  0.00  0.00    +0.019 C 
ATOM     14  C   LIG    1        4.883  -6.793   5.732  0.00  0.00    +0.003 C 
ATOM     15  C   LIG    1        6.250  -6.305   5.274  0.00  0.00    +0.019 C 
ATOM     16  C   LIG    1        6.348  -4.784   5.425  0.00  0.00    +0.106 C 
ENDBRANCH   3  11
BRANCH   8  17
ATOM     17  N   LIG    1        6.862   1.816   4.659  0.00  0.00    -0.313 N 
ATOM     18  C   LIG    1        7.829   2.012   3.559  0.00  0.00    +0.106 C 
ATOM     19  C   LIG    1        7.792   3.462   3.052  0.00  0.00    +0.019 C 
ATOM     20  C   LIG    1        7.976   4.474   4.179  0.00  0.00    +0.003 C 
ATOM     21  C   LIG    1        6.963   4.205   5.286  0.00  0.00    +0.019 C 
ATOM     22  C   LIG    1        7.067   2.759   5.781  0.00  0.00    +0.106 C 
ENDBRANCH   8  17
BRANCH   6  23
ATOM     23  N   LIG    1        8.233  -1.401   7.871  0.00  0.00    -0.295 N 
BRANCH  23  24
ATOM     24  C   LIG    1        8.568  -2.827   8.030  0.00  0.00    +0.136 C 
BRANCH  24  25
ATOM     25  C   LIG    1        8.576  -3.275   9.499  0.00  0.00    +0.175 C 
BRANCH  25  26
ATOM     26  O   LIG    1        8.921  -4.658   9.600  0.00  0.00    -0.394 OA
ATOM     27  H   LIG    1        8.382  -5.155   8.960  0.00  0.00    +0.209 HD
ENDBRANCH  25  26
ENDBRANCH  24  25
ENDBRANCH  23  24
BRANCH  23  28
ATOM     28  C   LIG    1        9.355  -0.467   8.125  0.00  0.00    +0.136 C 
BRANCH  28  29
ATOM     29  C   LIG    1        8.918   0.744   8.957  0.00  0.00    +0.175 C 
BRANCH  29  30
ATOM     30  O   LIG    1        8.451   0.324  10.239  0.00  0.00    -0.394 OA
ATOM     31  H   LIG    1        7.812  -0.390  10.056  0.00  0.00    +0.209 HD
ENDBRANCH  29  30
ENDBRANCH  28  29
ENDBRANCH  23  28
ENDBRANCH   6  23
BRANCH   1  32
ATOM     32  N   LIG    1        4.208  -1.050   1.363  0.00  0.00    -0.295 N 
BRANCH  32  33
ATOM     33  C   LIG    1        3.172  -1.976   0.883  0.00  0.00    +0.136 C 
BRANCH  33  34
ATOM     34  C   LIG    1        3.670  -2.886  -0.248  0.00  0.00    +0.175 C 
BRANCH  34  35
ATOM     35  O   LIG    1        4.810  -3.653   0.127  0.00  0.00    -0.394 OA
ATOM     36  H   LIG    1        5.269  -3.145   0.825  0.00  0.00    +0.209 HD
ENDBRANCH  34  35
ENDBRANCH  33  34
ENDBRANCH  32  33
BRANCH  32  37
ATOM     37  C   LIG    1        4.686   0.037   0.516  0.00  0.00    +0.136 C 
BRANCH  37  38
ATOM     38  C   LIG    1        5.979  -0.336  -0.229  0.00  0.00    +0.175 C 
BRANCH  38  39
ATOM     39  O   LIG    1        6.421   0.757  -1.030  0.00  0.00    -0.394 OA
ATOM     40  H   LIG    1        7.374   0.627  -1.180  0.00  0.00    +0.209 HD
ENDBRANCH  38  39
ENDBRANCH  37  38
ENDBRANCH  32  37
ENDBRANCH   1  32
TORSDOF 16
