REMARK  Name = *****
REMARK                            x       y       z     vdW  Elec       q    Type
REMARK                         _______ _______ _______ _____ _____    ______ ____
ROOT
ATOM      1  C   LIG    1        6.901  -2.840  -3.232  0.00  0.00    +0.166 C 
ATOM      2  N   LIG    1        8.339  -2.749  -3.487  0.00  0.00    -0.285 N 
ATOM      3  C   LIG    1        8.986  -2.004  -4.457  0.00  0.00    +0.237 C 
ATOM      4  C   LIG    1        8.372  -0.657  -4.938  0.00  0.00    +0.168 C 
ATOM      5  N   LIG    1        9.079   0.313  -4.109  0.00  0.00    -0.269 N 
ATOM      6  H   LIG    1       10.070   0.180  -3.970  0.00  0.00    +0.153 HD
ATOM      7  C   LIG    1        8.586   1.511  -3.706  0.00  0.00    +0.401 C 
ATOM      8  O   LIG    1        9.635   2.257  -3.279  0.00  0.00    -0.447 OA
ATOM      9  C   LIG    1        9.550   2.789  -1.956  0.00  0.00    +0.182 C 
ATOM     10  C   LIG    1       10.924   2.896  -1.330  0.00  0.00    +0.033 C 
ATOM     11  C   LIG    1       11.092   2.353   0.051  0.00  0.00    +0.007 C 
ATOM     12  C   LIG    1       11.318   0.838  -0.019  0.00  0.00    +0.000 C 
ATOM     13  C   LIG    1       11.148   0.191   1.349  0.00  0.00    +0.000 C 
ATOM     14  C   LIG    1       11.387  -1.319   1.342  0.00  0.00    +0.006 C 
ATOM     15  C   LIG    1       10.467  -2.074   0.371  0.00  0.00    +0.061 C 
ATOM     16  C   LIG    1       10.354  -3.544   0.680  0.00  0.00    +0.103 A 
ATOM     17  C   LIG    1        9.298  -4.305   0.184  0.00  0.00    +0.238 A 
ATOM     18  O   LIG    1        8.320  -3.716  -0.591  0.00  0.00    -0.470 OA
ATOM     19  C   LIG    1        8.118  -4.429  -1.820  0.00  0.00    +0.195 C 
ATOM     20  N   LIG    1        9.142  -5.610   0.493  0.00  0.00    -0.210 NA
ATOM     21  C   LIG    1       10.086  -6.156   1.284  0.00  0.00    +0.097 A 
ATOM     22  C   LIG    1       11.199  -5.414   1.742  0.00  0.00    +0.090 A 
ATOM     23  C   LIG    1       12.149  -6.040   2.539  0.00  0.00    +0.033 A 
ATOM     24  C   LIG    1       12.016  -7.382   2.898  0.00  0.00    +0.048 A 
ATOM     25  C   LIG    1       10.924  -8.113   2.444  0.00  0.00    +0.122 A 
ATOM     26  C   LIG    1        9.961  -7.486   1.655  0.00  0.00    +0.075 A 
ATOM     27  N   LIG    1       11.338  -4.115   1.429  0.00  0.00    -0.245 NA
ATOM     28  C   LIG    1       10.145   4.137  -1.664  0.00  0.00    +0.052 C 
ATOM     29  O   LIG    1        7.436   1.884  -3.767  0.00  0.00    -0.227 OA
ATOM     30  O   LIG    1       10.140  -2.312  -4.777  0.00  0.00    -0.274 OA
ATOM     31  C   LIG    1        9.042  -3.885  -2.904  0.00  0.00    +0.153 C 
ATOM     32  C   LIG    1        6.726  -4.121  -2.386  0.00  0.00    +0.078 C 
ENDROOT
BRANCH   1  35
ATOM     33  N   LIG    1        4.889  -1.513  -2.881  0.00  0.00    -0.299 N 
ATOM     34  H   LIG    1        4.482  -2.153  -3.550  0.00  0.00    +0.150 HD
ATOM     35  C   LIG    1        6.222  -1.660  -2.505  0.00  0.00    +0.234 C 
ATOM     36  O   LIG    1        6.797  -0.963  -1.677  0.00  0.00    -0.274 OA
BRANCH  33  38
ATOM     37  C   LIG    1        4.415   0.949  -2.290  0.00  0.00    +0.046 C 
ATOM     38  C   LIG    1        3.984  -0.518  -2.318  0.00  0.00    +0.118 C 
ATOM     39  C   LIG    1        3.418   0.498  -3.312  0.00  0.00    +0.046 C 
BRANCH  37  41
ATOM     40  C   LIG    1        4.017   3.224  -1.347  0.00  0.00    +0.004 C 
ATOM     41  C   LIG    1        3.989   1.888  -1.244  0.00  0.00    -0.028 C 
ENDBRANCH  37  41
BRANCH  38  42
ATOM     42  C   LIG    1        3.011  -1.062  -1.294  0.00  0.00    +0.231 C 
ATOM     43  N   LIG    1        1.762  -0.769  -1.375  0.00  0.00    -0.098 NA
BRANCH  43  44
ATOM     44  S   LIG    1        0.669  -1.328  -0.340  0.00  0.00    +0.075 S 
ATOM     45  O   LIG    1       -0.467  -0.429  -0.323  0.00  0.00    -0.151 OA
ATOM     46  O   LIG    1        1.335  -1.709   0.890  0.00  0.00    -0.151 OA
BRANCH  44  47
ATOM     47  C   LIG    1        0.047  -2.864  -1.111  0.00  0.00    +0.155 C 
ATOM     48  C   LIG    1        0.368  -4.138  -0.373  0.00  0.00    +0.030 C 
ATOM     49  C   LIG    1       -1.017  -3.557  -0.297  0.00  0.00    +0.030 C 
ENDBRANCH  44  47
ENDBRANCH  43  44
BRANCH  42  50
ATOM     50  O   LIG    1        3.580  -1.895  -0.397  0.00  0.00    -0.493 OA
ATOM     51  H   LIG    1        2.993  -2.061   0.369  0.00  0.00    +0.293 HD
ENDBRANCH  42  50
ENDBRANCH  38  42
ENDBRANCH  33  38
ENDBRANCH   1  35
BRANCH   4  52
ATOM     52  C   LIG    1        8.611  -0.318  -6.455  0.00  0.00    -0.011 C 
ATOM     53  C   LIG    1        7.967  -1.389  -7.350  0.00  0.00    +0.013 C 
ATOM     54  C   LIG    1       10.108  -0.196  -6.824  0.00  0.00    +0.013 C 
ATOM     55  C   LIG    1        7.950   1.037  -6.814  0.00  0.00    +0.013 C 
ENDBRANCH   4  52
BRANCH  25  56
ATOM     56  O   LIG    1       10.866  -9.417   2.853  0.00  0.00    -0.495 OA
ATOM     57  C   LIG    1       10.209 -10.303   1.949  0.00  0.00    +0.277 C 
ENDBRANCH  25  56
TORSDOF 9
