REMARK  Name = *****
REMARK                            x       y       z     vdW  Elec       q    Type
REMARK                         _______ _______ _______ _____ _____    ______ ____
ROOT
ATOM      1  N   LIG    1        5.070   0.388   3.196  0.00  0.00    -0.293 NA
ATOM      2  H   LIG    1        6.033   0.367   3.550  0.00  0.00    +0.123 HD
ENDROOT
BRANCH   1   3
ATOM      3  C   LIG    1        4.855   1.762   2.582  0.00  0.00    +0.143 C 
ATOM      4  C   LIG    1        5.352   2.948   3.546  0.00  0.00    +0.247 C 
ATOM      5  O   LIG    1        6.116   2.712   4.488  0.00  0.00    -0.273 OA
ATOM      6  N   LIG    1        4.870   4.274   3.294  0.00  0.00    -0.219 N 
ATOM      7  N   LIG    1        4.288   4.639   2.027  0.00  0.00    -0.224 NA
ATOM      8  C   LIG    1        4.480   6.029   1.607  0.00  0.00    +0.106 C 
ATOM      9  C   LIG    1        4.064   7.003   2.692  0.00  0.00    +0.019 C 
ATOM     10  C   LIG    1        4.968   6.758   3.896  0.00  0.00    +0.037 C 
ATOM     11  C   LIG    1        2.884   4.255   1.901  0.00  0.00    +0.106 C 
ATOM     12  C   LIG    1        2.942   2.861   1.337  0.00  0.00    +0.019 C 
ATOM     13  C   LIG    1        4.872   5.291   4.407  0.00  0.00    +0.202 C 
ATOM     14  C   LIG    1        3.348   1.940   2.463  0.00  0.00    +0.029 C 
BRANCH  13  15
ATOM     15  C   LIG    1        3.561   5.148   5.271  0.00  0.00    +0.327 C 
ATOM     16  O   LIG    1        2.442   5.582   5.081  0.00  0.00    -0.249 OA
BRANCH  15  17
ATOM     17  O   LIG    1        3.874   4.398   6.370  0.00  0.00    -0.479 OA
ATOM     18  H   LIG    1        3.010   4.336   6.846  0.00  0.00    +0.295 HD
ENDBRANCH  15  17
ENDBRANCH  13  15
ENDBRANCH   1   3
BRANCH   1  19
ATOM     19  C   LIG    1        4.845  -0.822   2.296  0.00  0.00    +0.164 C 
BRANCH  19  20
ATOM     20  C   LIG    1        3.404  -0.928   1.727  0.00  0.00    +0.324 C 
ATOM     21  O   LIG    1        3.102  -0.581   0.591  0.00  0.00    -0.249 OA
BRANCH  20  22
ATOM     22  O   LIG    1        2.510  -1.321   2.693  0.00  0.00    -0.464 OA
BRANCH  22  24
ATOM     23  C   LIG    1        0.338  -1.517   1.438  0.00  0.00    +0.048 C 
ATOM     24  C   LIG    1        1.130  -0.918   2.584  0.00  0.00    +0.229 C 
ENDBRANCH  22  24
ENDBRANCH  20  22
ENDBRANCH  19  20
BRANCH  19  25
ATOM     25  C   LIG    1        5.144  -2.148   3.050  0.00  0.00    +0.035 C 
BRANCH  25  26
ATOM     26  C   LIG    1        4.823  -3.416   2.201  0.00  0.00    +0.037 C 
BRANCH  26  27
ATOM     27  C   LIG    1        5.046  -4.774   2.837  0.00  0.00    -0.047 A 
ATOM     28  C   LIG    1        4.785  -5.934   2.078  0.00  0.00    +0.003 A 
ATOM     29  C   LIG    1        4.974  -7.209   2.619  0.00  0.00    +0.000 A 
ATOM     30  C   LIG    1        5.429  -7.341   3.927  0.00  0.00    +0.000 A 
ATOM     31  C   LIG    1        5.675  -6.203   4.695  0.00  0.00    +0.000 A 
ATOM     32  C   LIG    1        5.482  -4.928   4.156  0.00  0.00    +0.003 A 
ENDBRANCH  26  27
ENDBRANCH  25  26
ENDBRANCH  19  25
ENDBRANCH   1  19
TORSDOF 10
