REMARK  Name = *****
REMARK                            x       y       z     vdW  Elec       q    Type
REMARK                         _______ _______ _______ _____ _____    ______ ____
ROOT
ATOM      1  C   LIG    1        7.815   2.070   8.343  0.00  0.00    +0.064 A 
ATOM      2  C   LIG    1        7.093   2.472   9.468  0.00  0.00    +0.049 A 
ATOM      3  I   LIG    1        5.862   0.774  10.328  0.00  0.00    -0.041 I 
ATOM      4  C   LIG    1        6.472   3.733   9.476  0.00  0.00    +0.065 A 
ATOM      5  C   LIG    1        6.377   4.394   8.254  0.00  0.00    +0.040 A 
ATOM      6  I   LIG    1        6.483   6.534   8.158  0.00  0.00    -0.042 I 
ATOM      7  C   LIG    1        6.433   3.608   7.112  0.00  0.00    +0.065 A 
ATOM      8  C   LIG    1        7.117   2.363   7.177  0.00  0.00    +0.049 A 
ATOM      9  I   LIG    1        6.868   0.639   5.946  0.00  0.00    -0.041 I 
ENDROOT
BRANCH   4  10
ATOM     10  C   LIG    1        5.748   4.329  10.640  0.00  0.00    +0.246 C 
ATOM     11  N   LIG    1        5.995   3.795  11.885  0.00  0.00    -0.309 N 
ATOM     12  H   LIG    1        6.693   3.066  11.967  0.00  0.00    +0.149 HD
ATOM     13  O   LIG    1        4.965   5.236  10.469  0.00  0.00    -0.270 OA
BRANCH  11  14
ATOM     14  C   LIG    1        5.354   4.243  13.096  0.00  0.00    +0.138 C 
BRANCH  14  15
ATOM     15  C   LIG    1        3.961   4.916  13.049  0.00  0.00    +0.157 C 
BRANCH  15  16
ATOM     16  O   LIG    1        3.633   5.356  14.384  0.00  0.00    -0.388 OA
ATOM     17  H   LIG    1        3.280   4.596  14.877  0.00  0.00    +0.210 HD
ENDBRANCH  15  16
BRANCH  15  18
ATOM     18  C   LIG    1        2.815   4.018  12.546  0.00  0.00    +0.188 C 
BRANCH  18  19
ATOM     19  O   LIG    1        2.946   3.538  11.220  0.00  0.00    -0.392 OA
ATOM     20  H   LIG    1        2.855   4.315  10.633  0.00  0.00    +0.209 HD
ENDBRANCH  18  19
ENDBRANCH  15  18
ENDBRANCH  14  15
ENDBRANCH  11  14
ENDBRANCH   4  10
BRANCH   7  21
ATOM     21  C   LIG    1        5.503   3.940   6.010  0.00  0.00    +0.246 C 
ATOM     22  N   LIG    1        5.587   5.221   5.463  0.00  0.00    -0.309 N 
ATOM     23  H   LIG    1        6.002   5.944   6.015  0.00  0.00    +0.149 HD
ATOM     24  O   LIG    1        4.822   3.066   5.560  0.00  0.00    -0.270 OA
BRANCH  22  25
ATOM     25  C   LIG    1        5.031   5.638   4.185  0.00  0.00    +0.138 C 
BRANCH  25  26
ATOM     26  C   LIG    1        4.715   4.551   3.154  0.00  0.00    +0.157 C 
BRANCH  26  27
ATOM     27  O   LIG    1        3.576   3.790   3.563  0.00  0.00    -0.388 OA
ATOM     28  H   LIG    1        3.845   3.315   4.383  0.00  0.00    +0.210 HD
ENDBRANCH  26  27
BRANCH  26  29
ATOM     29  C   LIG    1        5.920   3.696   2.673  0.00  0.00    +0.188 C 
BRANCH  29  30
ATOM     30  O   LIG    1        6.695   2.907   3.550  0.00  0.00    -0.392 OA
ATOM     31  H   LIG    1        6.473   3.116   4.463  0.00  0.00    +0.209 HD
ENDBRANCH  29  30
ENDBRANCH  26  29
ENDBRANCH  25  26
ENDBRANCH  22  25
ENDBRANCH   7  21
BRANCH   1  34
ATOM     32  O   LIG    1        9.634   2.897   6.232  0.00  0.00    -0.273 OA
ATOM     33  C   LIG    1       10.088   2.329   7.230  0.00  0.00    +0.245 C 
ATOM     34  N   LIG    1        9.296   1.996   8.370  0.00  0.00    -0.265 N 
BRANCH  34  35
ATOM     35  C   LIG    1        9.992   1.437   9.542  0.00  0.00    +0.141 C 
BRANCH  35  36
ATOM     36  C   LIG    1        9.470   1.730  10.940  0.00  0.00    +0.175 C 
BRANCH  36  37
ATOM     37  O   LIG    1       10.284   1.113  11.926  0.00  0.00    -0.393 OA
ATOM     38  H   LIG    1        9.748   1.070  12.739  0.00  0.00    +0.209 HD
ENDBRANCH  36  37
ENDBRANCH  35  36
ENDBRANCH  34  35
BRANCH  33  39
ATOM     39  C   LIG    1       11.639   2.087   7.303  0.00  0.00    +0.252 C 
BRANCH  39  40
ATOM     40  O   LIG    1       12.089   0.765   7.539  0.00  0.00    -0.386 OA
ATOM     41  H   LIG    1       12.731   0.542   6.838  0.00  0.00    +0.210 HD
ENDBRANCH  39  40
ENDBRANCH  33  39
ENDBRANCH   1  34
TORSDOF 18
