REMARK  Name = *****
REMARK                            x       y       z     vdW  Elec       q    Type
REMARK                         _______ _______ _______ _____ _____    ______ ____
ROOT
ATOM      1  C   LIG    1        2.911  -1.439  -0.534  0.00  0.00    +0.162 A 
ATOM      2  C   LIG    1        2.717  -2.795  -0.213  0.00  0.00    +0.175 A 
ATOM      3  C   LIG    1        3.377  -3.805  -0.960  0.00  0.00    +0.091 A 
ATOM      4  C   LIG    1        4.248  -3.448  -2.003  0.00  0.00    -0.002 A 
ATOM      5  C   LIG    1        4.941  -4.447  -2.689  0.00  0.00    +0.087 A 
ATOM      6  C   LIG    1        4.758  -5.796  -2.364  0.00  0.00    +0.216 A 
ATOM      7  C   LIG    1        5.461  -6.913  -3.022  0.00  0.00    +0.053 A 
ATOM      8  C   LIG    1        4.855  -8.200  -3.057  0.00  0.00    -0.024 A 
ATOM      9  C   LIG    1        5.459  -9.279  -3.720  0.00  0.00    +0.054 A 
ATOM     10  C   LIG    1        6.691  -9.067  -4.293  0.00  0.00    +0.167 A 
ATOM     11  O   LIG    1        7.436  -9.995  -4.946  0.00  0.00    -0.453 OA
ATOM     12  C   LIG    1        8.612  -9.225  -5.276  0.00  0.00    +0.466 C 
ATOM     13  O   LIG    1        8.527  -7.849  -4.840  0.00  0.00    -0.453 OA
ATOM     14  C   LIG    1        7.310  -7.844  -4.236  0.00  0.00    +0.167 A 
ATOM     15  C   LIG    1        3.534  -8.374  -2.358  0.00  0.00    +0.108 C 
ATOM     16  C   LIG    1        3.567  -7.551  -1.079  0.00  0.00    +0.362 C 
ATOM     17  C   LIG    1        6.727  -6.755  -3.619  0.00  0.00    +0.064 A 
ATOM     18  N   LIG    1        3.849  -6.127  -1.404  0.00  0.00    -0.196 N 
ATOM     19  C   LIG    1        4.402  -2.099  -2.335  0.00  0.00    +0.013 A 
ATOM     20  C   LIG    1        3.201  -5.169  -0.702  0.00  0.00    +0.322 A 
ATOM     21  C   LIG    1        3.730  -1.108  -1.619  0.00  0.00    +0.050 A 
ENDROOT
BRANCH   1  23
ATOM     22  C   LIG    1        2.833   0.799   0.271  0.00  0.00    +0.277 C 
ATOM     23  O   LIG    1        2.231  -0.490   0.178  0.00  0.00    -0.491 OA
ENDBRANCH   1  23
BRANCH   2  24
ATOM     24  O   LIG    1        1.892  -3.287   0.776  0.00  0.00    -0.491 OA
ATOM     25  C   LIG    1        1.647  -2.463   1.912  0.00  0.00    +0.277 C 
ENDBRANCH   2  24
TORSDOF 2
