REMARK  Name = *****
REMARK                            x       y       z     vdW  Elec       q    Type
REMARK                         _______ _______ _______ _____ _____    ______ ____
ROOT
ATOM      1  C   LIG    1      -10.332  -3.342   0.981  0.00  0.00    +0.014 C 
ATOM      2  C   LIG    1       -9.396  -3.083   2.179  0.00  0.00    -0.003 C 
ATOM      3  C   LIG    1      -10.229  -2.466   3.352  0.00  0.00    +0.121 C 
ATOM      4  C   LIG    1       -9.880  -0.983   3.359  0.00  0.00    +0.032 C 
ATOM      5  C   LIG    1       -8.407  -0.984   2.976  0.00  0.00    +0.007 C 
ATOM      6  C   LIG    1       -8.372  -1.961   1.796  0.00  0.00    +0.001 C 
ATOM      7  C   LIG    1       -6.978  -2.437   1.290  0.00  0.00    +0.003 C 
ATOM      8  C   LIG    1       -6.410  -3.708   1.992  0.00  0.00    +0.023 C 
ATOM      9  C   LIG    1       -4.976  -3.637   2.470  0.00  0.00    -0.041 A 
ATOM     10  C   LIG    1       -4.335  -2.416   2.664  0.00  0.00    -0.040 A 
ATOM     11  C   LIG    1       -5.074  -1.134   2.385  0.00  0.00    +0.039 C 
ATOM     12  C   LIG    1       -3.010  -2.389   3.127  0.00  0.00    +0.049 A 
ATOM     13  C   LIG    1       -2.328  -3.589   3.348  0.00  0.00    +0.117 A 
ATOM     14  C   LIG    1       -2.945  -4.806   3.137  0.00  0.00    +0.045 A 
ATOM     15  C   LIG    1       -4.271  -4.838   2.709  0.00  0.00    +0.008 A 
ATOM     16  C   LIG    1       -7.326  -4.237   3.103  0.00  0.00    +0.009 C 
ATOM     17  C   LIG    1       -5.968  -1.254   1.130  0.00  0.00    -0.003 C 
ATOM     18  C   LIG    1       -8.733  -4.421   2.559  0.00  0.00    +0.010 C 
ENDROOT
BRANCH   3  19
ATOM     19  O   LIG    1       -9.855  -3.012   4.615  0.00  0.00    -0.391 OA
ATOM     20  H   LIG    1      -10.397  -2.578   5.296  0.00  0.00    +0.210 HD
ENDBRANCH   3  19
BRANCH  13  21
ATOM     21  O   LIG    1       -1.031  -3.509   3.766  0.00  0.00    -0.507 OA
ATOM     22  H   LIG    1       -0.705  -4.416   3.904  0.00  0.00    +0.292 HD
ENDBRANCH  13  21
BRANCH  17  23
ATOM     23  C   LIG    1       -5.114  -1.282  -0.184  0.00  0.00    +0.004 C 
BRANCH  23  24
ATOM     24  C   LIG    1       -5.963  -1.327  -1.473  0.00  0.00    +0.000 C 
BRANCH  24  25
ATOM     25  C   LIG    1       -5.165  -1.243  -2.789  0.00  0.00    +0.000 C 
BRANCH  25  26
ATOM     26  C   LIG    1       -6.103  -1.366  -4.009  0.00  0.00    -0.000 C 
BRANCH  26  27
ATOM     27  C   LIG    1       -5.423  -1.271  -5.390  0.00  0.00    -0.000 C 
BRANCH  27  28
ATOM     28  C   LIG    1       -4.691   0.053  -5.624  0.00  0.00    +0.000 C 
BRANCH  28  29
ATOM     29  C   LIG    1       -4.079   0.181  -7.027  0.00  0.00    +0.001 C 
BRANCH  29  30
ATOM     30  C   LIG    1       -3.327   1.508  -7.216  0.00  0.00    +0.013 C 
BRANCH  30  31
ATOM     31  C   LIG    1       -4.225   2.737  -7.089  0.00  0.00    +0.104 C 
BRANCH  31  32
ATOM     32  S   LIG    1       -3.314   4.288  -7.359  0.00  0.00    +0.022 S 
ATOM     33  O   LIG    1       -4.294   5.416  -7.233  0.00  0.00    -0.257 OA
BRANCH  32  34
ATOM     34  C   LIG    1       -2.328   4.263  -5.823  0.00  0.00    +0.104 C 
BRANCH  34  35
ATOM     35  C   LIG    1       -1.421   5.489  -5.720  0.00  0.00    +0.019 C 
BRANCH  35  36
ATOM     36  C   LIG    1       -0.386   5.550  -6.851  0.00  0.00    +0.086 C 
BRANCH  36  37
ATOM     37  C   LIG    1        0.571   6.733  -6.764  0.00  0.00    +0.342 C 
ATOM     38  F   LIG    1        1.526   6.543  -7.728  0.00  0.00    -0.196 F 
ATOM     39  F   LIG    1        1.245   6.649  -5.580  0.00  0.00    -0.196 F 
BRANCH  37  40
ATOM     40  C   LIG    1       -0.077   8.118  -6.935  0.00  0.00    +0.454 C 
ATOM     41  F   LIG    1        0.425   8.778  -8.009  0.00  0.00    -0.165 F 
ATOM     42  F   LIG    1        0.143   8.910  -5.856  0.00  0.00    -0.165 F 
ATOM     43  F   LIG    1       -1.417   8.058  -7.114  0.00  0.00    -0.165 F 
ENDBRANCH  37  40
ENDBRANCH  36  37
ENDBRANCH  35  36
ENDBRANCH  34  35
ENDBRANCH  32  34
ENDBRANCH  31  32
ENDBRANCH  30  31
ENDBRANCH  29  30
ENDBRANCH  28  29
ENDBRANCH  27  28
ENDBRANCH  26  27
ENDBRANCH  25  26
ENDBRANCH  24  25
ENDBRANCH  23  24
ENDBRANCH  17  23
TORSDOF 17
