REMARK  Name = *****
REMARK                            x       y       z     vdW  Elec       q    Type
REMARK                         _______ _______ _______ _____ _____    ______ ____
ROOT
ATOM      1  O   LIG    1       -2.689  -2.459  -9.670  0.00  0.00    -0.459 OA
ENDROOT
BRANCH   1   6
ATOM      2  C   LIG    1        0.623  -5.050  -7.227  0.00  0.00    +0.192 C 
ATOM      3  N   LIG    1       -0.704  -5.421  -7.865  0.00  0.00    +0.243 N 
ATOM      4  C   LIG    1       -0.869  -5.122  -9.364  0.00  0.00    +0.070 C 
ATOM      5  C   LIG    1       -0.526  -3.654  -9.690  0.00  0.00    +0.099 C 
ATOM      6  C   LIG    1       -1.414  -2.632  -8.954  0.00  0.00    +0.187 C 
ATOM      7  C   LIG    1       -1.706  -3.092  -7.502  0.00  0.00    +0.099 C 
ATOM      8  C   LIG    1       -2.376  -5.371  -9.577  0.00  0.00    +0.060 C 
ATOM      9  C   LIG    1       -3.041  -5.093  -8.216  0.00  0.00    +0.060 C 
ATOM     10  C   LIG    1       -1.903  -4.621  -7.316  0.00  0.00    +0.070 C 
ATOM     11  C   LIG    1       -0.842  -6.961  -7.613  0.00  0.00    +0.192 C 
ENDBRANCH   1   6
BRANCH   1  12
ATOM     12  C   LIG    1       -2.662  -1.564 -10.756  0.00  0.00    +0.341 C 
ATOM     13  O   LIG    1       -1.655  -0.968 -11.096  0.00  0.00    -0.247 OA
BRANCH  12  14
ATOM     14  C   LIG    1       -4.042  -1.500 -11.526  0.00  0.00    +0.253 C 
BRANCH  14  15
ATOM     15  C   LIG    1       -5.314  -1.627 -10.689  0.00  0.00    -0.008 A 
ATOM     16  C   LIG    1       -5.917  -0.462 -10.180  0.00  0.00    +0.007 A 
ATOM     17  C   LIG    1       -7.122  -0.492  -9.483  0.00  0.00    +0.000 A 
ATOM     18  C   LIG    1       -7.737  -1.704  -9.212  0.00  0.00    +0.000 A 
ATOM     19  C   LIG    1       -7.156  -2.883  -9.675  0.00  0.00    +0.000 A 
ATOM     20  C   LIG    1       -5.966  -2.849 -10.431  0.00  0.00    +0.007 A 
ENDBRANCH  14  15
BRANCH  14  21
ATOM     21  O   LIG    1       -4.113  -0.297 -12.309  0.00  0.00    -0.376 OA
ATOM     22  H   LIG    1       -4.084   0.468 -11.707  0.00  0.00    +0.211 HD
ENDBRANCH  14  21
ENDBRANCH  12  14
ENDBRANCH   1  12
TORSDOF 5
