REMARK  Name = *****
REMARK                            x       y       z     vdW  Elec       q    Type
REMARK                         _______ _______ _______ _____ _____    ______ ____
ROOT
ATOM      1  O   LIG    1       12.162  -2.121  -8.411  0.00  0.00    -0.490 OA
ENDROOT
BRANCH   1   5
ATOM      2  C   LIG    1       11.410  -1.355 -12.473  0.00  0.00    -0.042 A 
ATOM      3  C   LIG    1       11.886  -0.340 -11.648  0.00  0.00    +0.008 A 
ATOM      4  C   LIG    1       12.131  -0.566 -10.297  0.00  0.00    +0.046 A 
ATOM      5  C   LIG    1       11.948  -1.840  -9.735  0.00  0.00    +0.121 A 
ATOM      6  C   LIG    1       11.532  -2.875 -10.546  0.00  0.00    +0.046 A 
ATOM      7  C   LIG    1       11.276  -2.645 -11.903  0.00  0.00    +0.008 A 
BRANCH   2   8
ATOM      8  C   LIG    1       10.941  -1.057 -13.904  0.00  0.00    -0.009 C 
ATOM      9  C   LIG    1       10.195  -2.227 -14.573  0.00  0.00    +0.016 C 
ATOM     10  C   LIG    1        9.842   0.062 -13.772  0.00  0.00    +0.016 C 
BRANCH   8  11
ATOM     11  C   LIG    1       12.086  -0.495 -14.820  0.00  0.00    +0.017 C 
BRANCH  11  13
ATOM     12  C   LIG    1       14.242  -0.391 -16.091  0.00  0.00    +0.011 C 
ATOM     13  C   LIG    1       13.371  -1.316 -15.202  0.00  0.00    -0.037 C 
ATOM     14  C   LIG    1       14.224  -1.711 -13.986  0.00  0.00    +0.011 C 
ATOM     15  C   LIG    1       13.095  -2.581 -16.030  0.00  0.00    +0.011 C 
ENDBRANCH  11  13
ENDBRANCH   8  11
ENDBRANCH   2   8
ENDBRANCH   1   5
BRANCH   1  16
ATOM     16  C   LIG    1       13.041  -1.212  -7.745  0.00  0.00    +0.257 C 
BRANCH  16  17
ATOM     17  C   LIG    1       13.634  -1.859  -6.501  0.00  0.00    +0.201 C 
BRANCH  17  18
ATOM     18  O   LIG    1       14.329  -3.061  -6.865  0.00  0.00    -0.371 OA
BRANCH  18  19
ATOM     19  C   LIG    1       14.908  -3.697  -5.730  0.00  0.00    +0.210 C 
BRANCH  19  20
ATOM     20  C   LIG    1       15.679  -4.960  -6.157  0.00  0.00    +0.161 C 
BRANCH  20  21
ATOM     21  N   LIG    1       16.998  -4.687  -6.933  0.00  0.00    +0.244 N 
ATOM     22  C   LIG    1       16.693  -3.945  -8.240  0.00  0.00    +0.192 C 
ATOM     23  C   LIG    1       17.615  -6.033  -7.318  0.00  0.00    +0.192 C 
BRANCH  21  24
ATOM     24  C   LIG    1       18.014  -3.860  -6.117  0.00  0.00    +0.169 C 
BRANCH  24  25
ATOM     25  C   LIG    1       18.475  -4.440  -4.798  0.00  0.00    -0.003 A 
ATOM     26  C   LIG    1       19.640  -5.222  -4.729  0.00  0.00    +0.009 A 
ATOM     27  C   LIG    1       20.079  -5.746  -3.510  0.00  0.00    +0.001 A 
ATOM     28  C   LIG    1       19.360  -5.502  -2.343  0.00  0.00    +0.000 A 
ATOM     29  C   LIG    1       18.209  -4.723  -2.390  0.00  0.00    +0.001 A 
ATOM     30  C   LIG    1       17.777  -4.186  -3.605  0.00  0.00    +0.009 A 
ENDBRANCH  24  25
ENDBRANCH  21  24
ENDBRANCH  20  21
ENDBRANCH  19  20
ENDBRANCH  18  19
ENDBRANCH  17  18
ENDBRANCH  16  17
ENDBRANCH   1  16
TORSDOF 12
