REMARK  Name = *****
REMARK                            x       y       z     vdW  Elec       q    Type
REMARK                         _______ _______ _______ _____ _____    ______ ____
ROOT
ATOM      1  N   LIG    1        7.901   2.227   1.975  0.00  0.00    -0.300 N 
ATOM      2  C   LIG    1        8.475   1.101   2.611  0.00  0.00    +0.037 A 
ATOM      3  C   LIG    1        9.408   0.227   2.013  0.00  0.00    -0.026 A 
ATOM      4  C   LIG    1        9.981  -0.813   2.786  0.00  0.00    +0.005 A 
ATOM      5  C   LIG    1        9.651  -1.004   4.124  0.00  0.00    +0.000 A 
ATOM      6  C   LIG    1        8.745  -0.148   4.724  0.00  0.00    +0.002 A 
ATOM      7  C   LIG    1        9.904   0.304   0.585  0.00  0.00    +0.041 C 
ATOM      8  C   LIG    1        9.024   1.018  -0.430  0.00  0.00    +0.041 C 
ATOM      9  C   LIG    1        9.035   2.502  -0.200  0.00  0.00    -0.026 A 
ATOM     10  C   LIG    1        9.599   3.359  -1.160  0.00  0.00    +0.005 A 
ATOM     11  C   LIG    1        9.626   4.738  -0.959  0.00  0.00    +0.000 A 
ATOM     12  C   LIG    1        9.085   5.275   0.204  0.00  0.00    +0.002 A 
ATOM     13  C   LIG    1        8.516   4.429   1.155  0.00  0.00    +0.024 A 
ATOM     14  C   LIG    1        8.174   0.885   3.977  0.00  0.00    +0.024 A 
ATOM     15  C   LIG    1        8.480   3.035   0.972  0.00  0.00    +0.037 A 
ENDROOT
BRANCH   1  16
ATOM     16  C   LIG    1        6.429   2.394   2.085  0.00  0.00    +0.112 C 
BRANCH  16  17
ATOM     17  C   LIG    1        5.678   1.470   1.116  0.00  0.00    +0.035 C 
BRANCH  17  18
ATOM     18  C   LIG    1        4.159   1.612   1.286  0.00  0.00    +0.085 C 
BRANCH  18  20
ATOM     19  C   LIG    1        3.601  -0.598   0.406  0.00  0.00    +0.104 C 
ATOM     20  N   LIG    1        3.379   0.846   0.297  0.00  0.00    -0.308 NA
ATOM     21  C   LIG    1        1.950   1.137   0.447  0.00  0.00    +0.104 C 
ENDBRANCH  18  20
ENDBRANCH  17  18
ENDBRANCH  16  17
ENDBRANCH   1  16
TORSDOF 4
