REMARK  Name = *****
REMARK                            x       y       z     vdW  Elec       q    Type
REMARK                         _______ _______ _______ _____ _____    ______ ____
ROOT
ATOM      1  CA  LIG    1        0.337   4.209   0.433  0.00  0.00    +0.191 C 
ENDROOT
BRANCH   1   2
ATOM      2  N   LIG    1        1.385   3.288  -0.067  0.00  0.00    -0.284 N 
ATOM      3  H   LIG    1        1.726   2.576   0.571  0.00  0.00    +0.151 HD
ATOM      4  C   LIG    1        1.993   3.408  -1.288  0.00  0.00    +0.311 C 
ATOM      5  N   LIG    1        3.059   2.555  -1.516  0.00  0.00    -0.207 N 
ATOM      6  C   LIG    1        3.568   1.551  -0.704  0.00  0.00    +0.331 C 
ATOM      7  O   LIG    1        3.113   1.188   0.374  0.00  0.00    -0.250 OA
ATOM      8  N   LIG    1        4.680   0.992  -1.351  0.00  0.00    -0.158 N 
ATOM      9  C   LIG    1        5.086   1.805  -2.511  0.00  0.00    +0.155 C 
ATOM     10  C   LIG    1        3.800   2.584  -2.775  0.00  0.00    +0.140 C 
ATOM     11  O   LIG    1        1.613   4.210  -2.132  0.00  0.00    -0.252 OA
BRANCH   8  12
ATOM     12  S   LIG    1        5.845   0.057  -0.607  0.00  0.00    +0.046 S 
ATOM     13  O   LIG    1        6.138   0.644   0.686  0.00  0.00    -0.155 OA
ATOM     14  O   LIG    1        6.900  -0.178  -1.565  0.00  0.00    -0.155 OA
ATOM     15  C   LIG    1        4.995  -1.489  -0.368  0.00  0.00    +0.218 C 
ENDBRANCH   8  12
ENDBRANCH   1   2
BRANCH   1  16
ATOM     16  C   LIG    1        0.805   5.005   1.652  0.00  0.00    -0.018 A 
ATOM     17  C   LIG    1        1.760   4.496   2.547  0.00  0.00    +0.006 A 
ATOM     18  C   LIG    1        2.217   5.255   3.628  0.00  0.00    +0.000 A 
ATOM     19  C   LIG    1        1.723   6.537   3.844  0.00  0.00    +0.000 A 
ATOM     20  C   LIG    1        0.745   7.050   2.996  0.00  0.00    +0.000 A 
ATOM     21  C   LIG    1        0.277   6.285   1.918  0.00  0.00    +0.006 A 
ENDBRANCH   1  16
BRANCH   1  24
ATOM     22  N   LIG    1       -1.128   2.269  -0.033  0.00  0.00    -0.300 N 
ATOM     23  H   LIG    1       -0.345   1.998  -0.621  0.00  0.00    +0.150 HD
ATOM     24  C   LIG    1       -0.991   3.440   0.694  0.00  0.00    +0.239 C 
ATOM     25  O   LIG    1       -1.920   3.873   1.373  0.00  0.00    -0.273 OA
BRANCH  22  31
ATOM     26  C   LIG    1        0.544  -1.306   0.954  0.00  0.00    +0.025 C 
ATOM     27  C   LIG    1       -0.527  -1.819  -0.026  0.00  0.00    +0.042 C 
ATOM     28  CA  LIG    1       -1.911  -1.944   0.665  0.00  0.00    +0.201 C 
ATOM     29  N   LIG    1       -2.615  -0.665   0.478  0.00  0.00    -0.271 N 
ATOM     30  C   LIG    1       -2.321   0.096  -0.750  0.00  0.00    +0.165 C 
ATOM     31  CA  LIG    1       -2.313   1.389   0.109  0.00  0.00    +0.190 C 
ATOM     32  C   LIG    1       -2.320   0.396   1.308  0.00  0.00    +0.240 C 
ATOM     33  O   LIG    1       -2.005   0.387   2.473  0.00  0.00    -0.273 OA
ATOM     34  S   LIG    1       -0.705  -0.527  -1.353  0.00  0.00    -0.127 S 
ATOM     35  C   LIG    1        0.005  -3.107  -0.668  0.00  0.00    +0.025 C 
BRANCH  28  36
ATOM     36  C   LIG    1       -2.807  -3.085   0.151  0.00  0.00    +0.327 C 
ATOM     37  O   LIG    1       -2.497  -4.267   0.157  0.00  0.00    -0.249 OA
BRANCH  36  38
ATOM     38  OXT LIG    1       -4.024  -2.675  -0.284  0.00  0.00    -0.479 OA
ATOM     39  HXT LIG    1       -4.146  -1.721  -0.102  0.00  0.00    +0.295 HD
ENDBRANCH  36  38
ENDBRANCH  28  36
ENDBRANCH  22  31
ENDBRANCH   1  24
TORSDOF 7
