REMARK  Name = *****
REMARK                            x       y       z     vdW  Elec       q    Type
REMARK                         _______ _______ _______ _____ _____    ______ ____
ROOT
ATOM      1  N   LIG    1        2.977  -2.515   1.435  0.00  0.00    -0.313 N 
ATOM      2  H   LIG    1        2.320  -1.756   1.542  0.00  0.00    +0.146 HD
ATOM      3  H   LIG    1        2.555  -3.437   1.410  0.00  0.00    +0.146 HD
ATOM      4  C   LIG    1        4.011  -2.386   0.559  0.00  0.00    +0.303 C 
ATOM      5  N   LIG    1        4.509  -1.112   0.499  0.00  0.00    -0.240 N 
ATOM      6  H   LIG    1        4.141  -0.436   1.147  0.00  0.00    +0.159 HD
ATOM      7  C   LIG    1        5.558  -0.622  -0.248  0.00  0.00    +0.225 C 
ATOM      8  O   LIG    1        5.864   0.561  -0.087  0.00  0.00    -0.275 OA
ATOM      9  O   LIG    1        4.410  -3.355  -0.064  0.00  0.00    -0.253 OA
ENDROOT
BRANCH   7  10
ATOM     10  C   LIG    1        6.272  -1.563  -1.210  0.00  0.00    +0.131 C 
BRANCH  10  11
ATOM     11  C   LIG    1        7.388  -0.896  -1.983  0.00  0.00    -0.039 A 
ATOM     12  C   LIG    1        7.117  -0.225  -3.183  0.00  0.00    +0.004 A 
ATOM     13  C   LIG    1        8.141   0.415  -3.883  0.00  0.00    +0.000 A 
ATOM     14  C   LIG    1        9.444   0.391  -3.389  0.00  0.00    +0.000 A 
ATOM     15  C   LIG    1        9.723  -0.270  -2.194  0.00  0.00    +0.000 A 
ATOM     16  C   LIG    1        8.700  -0.906  -1.490  0.00  0.00    +0.004 A 
ENDBRANCH  10  11
ENDBRANCH   7  10
TORSDOF 2
