REMARK  Name = *****
REMARK                            x       y       z     vdW  Elec       q    Type
REMARK                         _______ _______ _______ _____ _____    ______ ____
ROOT
ATOM      1  P   LIG    1        2.683   1.506  -3.539  0.00  0.00    +0.216 P 
ATOM      2  O   LIG    1        4.228   1.506  -3.539  0.00  0.00    -0.290 OA
ENDROOT
BRANCH   1   3
ATOM      3  O   LIG    1        2.571   1.275  -1.851  0.00  0.00    -0.286 OA
BRANCH   3   4
ATOM      4  C   LIG    1        3.100   0.043  -1.311  0.00  0.00    +0.320 C 
BRANCH   4   5
ATOM      5  C   LIG    1        2.902  -0.016   0.240  0.00  0.00    +0.052 C 
ATOM      6  C   LIG    1        3.489  -1.296   0.862  0.00  0.00    +0.013 C 
ATOM      7  C   LIG    1        1.431   0.074   0.667  0.00  0.00    +0.013 C 
ENDBRANCH   4   5
BRANCH   4   8
ATOM      8  O   LIG    1        2.366  -1.022  -1.913  0.00  0.00    -0.434 OA
BRANCH   8   9
ATOM      9  C   LIG    1        3.088  -1.885  -2.689  0.00  0.00    +0.309 C 
ATOM     10  O   LIG    1        4.276  -2.073  -2.659  0.00  0.00    -0.251 OA
BRANCH   9  12
ATOM     11  C   LIG    1        2.430  -2.029  -5.091  0.00  0.00    +0.015 C 
ATOM     12  C   LIG    1        2.116  -2.498  -3.682  0.00  0.00    +0.117 C 
ENDBRANCH   9  12
ENDBRANCH   8   9
ENDBRANCH   4   8
ENDBRANCH   3   4
ENDBRANCH   1   3
BRANCH   1  13
ATOM     13  C   LIG    1        0.853   1.506  -3.539  0.00  0.00    +0.193 C 
BRANCH  13  14
ATOM     14  C   LIG    1        0.261   1.573  -4.927  0.00  0.00    +0.226 C 
ATOM     15  N   LIG    1       -0.939   2.227  -5.071  0.00  0.00    -0.287 N 
ATOM     16  C   LIG    1       -1.774   2.117  -6.263  0.00  0.00    +0.185 C 
ATOM     17  C   LIG    1       -3.184   2.156  -5.660  0.00  0.00    +0.039 C 
ATOM     18  C   LIG    1       -3.081   3.117  -4.461  0.00  0.00    +0.012 C 
ATOM     19  C   LIG    1       -1.632   2.947  -4.025  0.00  0.00    +0.112 C 
ATOM     20  O   LIG    1        0.773   0.958  -5.863  0.00  0.00    -0.275 OA
BRANCH  18  21
ATOM     21  C   LIG    1       -4.051   2.802  -3.296  0.00  0.00    -0.006 C 
ATOM     22  C   LIG    1       -3.756   3.626  -2.020  0.00  0.00    +0.004 C 
ATOM     23  C   LIG    1       -4.265   5.060  -2.090  0.00  0.00    +0.000 C 
ATOM     24  C   LIG    1       -5.754   5.086  -2.399  0.00  0.00    +0.000 C 
ATOM     25  C   LIG    1       -6.050   4.368  -3.710  0.00  0.00    +0.000 C 
ATOM     26  C   LIG    1       -5.528   2.932  -3.704  0.00  0.00    +0.004 C 
ENDBRANCH  18  21
BRANCH  16  27
ATOM     27  C   LIG    1       -1.507   3.253  -7.267  0.00  0.00    +0.326 C 
ATOM     28  O   LIG    1       -1.603   4.449  -7.008  0.00  0.00    -0.249 OA
BRANCH  27  29
ATOM     29  O   LIG    1       -1.127   2.829  -8.497  0.00  0.00    -0.479 OA
ATOM     30  H   LIG    1       -0.965   1.867  -8.574  0.00  0.00    +0.295 HD
ENDBRANCH  27  29
ENDBRANCH  16  27
ENDBRANCH  13  14
ENDBRANCH   1  13
BRANCH   1  31
ATOM     31  C   LIG    1        2.637   3.548  -3.441  0.00  0.00    +0.098 C 
BRANCH  31  32
ATOM     32  C   LIG    1        1.491   4.181  -2.674  0.00  0.00    +0.010 C 
BRANCH  32  33
ATOM     33  C   LIG    1        1.491   5.698  -2.562  0.00  0.00    +0.005 C 
BRANCH  33  34
ATOM     34  C   LIG    1        1.366   6.494  -3.874  0.00  0.00    +0.035 C 
BRANCH  34  35
ATOM     35  C   LIG    1        2.505   6.463  -4.868  0.00  0.00    -0.047 A 
ATOM     36  C   LIG    1        2.246   6.233  -6.231  0.00  0.00    +0.003 A 
ATOM     37  C   LIG    1        3.261   6.358  -7.186  0.00  0.00    +0.000 A 
ATOM     38  C   LIG    1        4.551   6.704  -6.795  0.00  0.00    +0.000 A 
ATOM     39  C   LIG    1        4.832   6.891  -5.444  0.00  0.00    +0.000 A 
ATOM     40  C   LIG    1        3.818   6.775  -4.487  0.00  0.00    +0.003 A 
ENDBRANCH  34  35
ENDBRANCH  33  34
ENDBRANCH  32  33
ENDBRANCH  31  32
ENDBRANCH   1  31
TORSDOF 16
