REMARK  Name = *****
REMARK                            x       y       z     vdW  Elec       q    Type
REMARK                         _______ _______ _______ _____ _____    ______ ____
ROOT
ATOM      1  C   LIG    1       13.261  -2.767   6.671  0.00  0.00    +0.031 C 
ATOM      2  C   LIG    1       14.537  -3.398   6.208  0.00  0.00    +0.121 C 
ATOM      3  C   LIG    1       15.689  -3.362   7.185  0.00  0.00    +0.063 C 
ATOM      4  C   LIG    1       15.367  -1.975   7.858  0.00  0.00    +0.124 C 
ATOM      5  C   LIG    1       13.815  -2.123   8.008  0.00  0.00    +0.046 C 
ENDROOT
BRANCH   2   6
ATOM      6  O   LIG    1       15.018  -2.307   5.527  0.00  0.00    -0.391 OA
ATOM      7  H   LIG    1       15.826  -2.717   5.200  0.00  0.00    +0.210 HD
ENDBRANCH   2   6
BRANCH   4   8
ATOM      8  O   LIG    1       15.603  -0.725   7.183  0.00  0.00    -0.391 OA
ATOM      9  H   LIG    1       15.620  -0.908   6.221  0.00  0.00    +0.210 HD
ENDBRANCH   4   8
BRANCH   5  10
ATOM     10  C   LIG    1       13.519  -3.063   9.147  0.00  0.00    -0.022 C 
ATOM     11  C   LIG    1       14.458  -3.579   9.958  0.00  0.00    -0.000 C 
BRANCH  11  12
ATOM     12  C   LIG    1       14.236  -4.476  11.109  0.00  0.00    +0.138 C 
BRANCH  12  13
ATOM     13  O   LIG    1       15.404  -5.277  11.259  0.00  0.00    -0.388 OA
ATOM     14  H   LIG    1       16.164  -4.683  11.383  0.00  0.00    +0.210 HD
ENDBRANCH  12  13
BRANCH  12  15
ATOM     15  C   LIG    1       13.967  -3.670  12.377  0.00  0.00    +0.040 C 
BRANCH  15  16
ATOM     16  C   LIG    1       15.132  -2.760  12.819  0.00  0.00    +0.038 C 
BRANCH  16  17
ATOM     17  C   LIG    1       14.923  -2.008  14.114  0.00  0.00    -0.047 A 
ATOM     18  C   LIG    1       15.946  -1.167  14.583  0.00  0.00    +0.003 A 
ATOM     19  C   LIG    1       15.826  -0.520  15.815  0.00  0.00    +0.000 A 
ATOM     20  C   LIG    1       14.682  -0.699  16.588  0.00  0.00    +0.000 A 
ATOM     21  C   LIG    1       13.644  -1.495  16.115  0.00  0.00    +0.000 A 
ATOM     22  C   LIG    1       13.764  -2.143  14.887  0.00  0.00    +0.003 A 
ENDBRANCH  16  17
ENDBRANCH  15  16
ENDBRANCH  12  15
ENDBRANCH  11  12
ENDBRANCH   5  10
BRANCH   1  23
ATOM     23  C   LIG    1       12.585  -1.697   5.670  0.00  0.00    +0.033 C 
BRANCH  23  25
ATOM     24  C   LIG    1       12.503  -2.296   3.007  0.00  0.00    -0.031 C 
ATOM     25  C   LIG    1       12.021  -2.025   4.256  0.00  0.00    -0.031 C 
BRANCH  24  26
ATOM     26  C   LIG    1       13.900  -2.515   2.351  0.00  0.00    +0.027 C 
BRANCH  26  27
ATOM     27  C   LIG    1       15.006  -2.284   3.318  0.00  0.00    +0.013 C 
BRANCH  27  28
ATOM     28  C   LIG    1       16.562  -2.593   3.273  0.00  0.00    +0.096 C 
BRANCH  28  31
ATOM     29  N   LIG    1       18.648  -2.987   4.753  0.00  0.00    -0.316 N 
ATOM     30  H   LIG    1       19.144  -3.313   3.910  0.00  0.00    +0.149 HD
ATOM     31  C   LIG    1       17.554  -2.196   4.479  0.00  0.00    +0.213 C 
ATOM     32  O   LIG    1       17.239  -1.269   5.375  0.00  0.00    -0.276 OA
BRANCH  29  34
ATOM     33  C   LIG    1       19.765  -4.051   6.748  0.00  0.00    +0.024 C 
ATOM     34  C   LIG    1       19.507  -2.781   5.944  0.00  0.00    +0.101 C 
ENDBRANCH  29  34
ENDBRANCH  28  31
ENDBRANCH  27  28
ENDBRANCH  26  27
ENDBRANCH  24  26
ENDBRANCH  23  25
ENDBRANCH   1  23
TORSDOF 15
