REMARK  Name = *****
REMARK                            x       y       z     vdW  Elec       q    Type
REMARK                         _______ _______ _______ _____ _____    ______ ____
ROOT
ATOM      1  C   LIG    1        2.155  -0.314   1.077  0.00  0.00    +0.146 C 
ATOM      2  C   LIG    1        2.076  -1.803   1.039  0.00  0.00    +0.033 C 
ATOM      3  N   LIG    1        3.317  -2.355   0.886  0.00  0.00    -0.341 NA
ATOM      4  C   LIG    1        3.256  -3.707   0.740  0.00  0.00    +0.090 C 
ATOM      5  C   LIG    1        1.922  -4.025   1.004  0.00  0.00    +0.031 C 
ATOM      6  C   LIG    1        4.384  -1.366   0.887  0.00  0.00    +0.123 C 
ATOM      7  C   LIG    1        1.176  -2.823   1.189  0.00  0.00    +0.024 C 
ATOM      8  C   LIG    1        3.660  -0.108   1.409  0.00  0.00    +0.042 C 
ENDROOT
BRANCH   1  10
ATOM      9  O   LIG    1        2.309   1.368  -0.671  0.00  0.00    -0.250 OA
ATOM     10  C   LIG    1        1.790   0.336  -0.255  0.00  0.00    +0.314 C 
BRANCH  10  11
ATOM     11  O   LIG    1        0.781  -0.255  -0.934  0.00  0.00    -0.480 OA
ATOM     12  H   LIG    1        0.455  -1.072  -0.512  0.00  0.00    +0.295 HD
ENDBRANCH  10  11
ENDBRANCH   1  10
BRANCH   4  13
ATOM     13  C   LIG    1        4.393  -4.564   0.436  0.00  0.00    +0.209 C 
ATOM     14  O   LIG    1        5.544  -4.258   0.741  0.00  0.00    -0.285 OA
BRANCH  13  15
ATOM     15  C   LIG    1        4.182  -5.859  -0.290  0.00  0.00    +0.024 C 
ATOM     16  C   LIG    1        5.062  -6.925  -0.053  0.00  0.00    +0.012 C 
ATOM     17  C   LIG    1        4.888  -8.147  -0.712  0.00  0.00    +0.001 C 
ATOM     18  C   LIG    1        3.839  -8.310  -1.616  0.00  0.00    +0.000 C 
ATOM     19  C   LIG    1        2.982  -7.245  -1.885  0.00  0.00    +0.001 C 
ATOM     20  C   LIG    1        3.160  -6.018  -1.238  0.00  0.00    +0.012 C 
ENDBRANCH  13  15
ENDBRANCH   4  13
TORSDOF 4
