REMARK  Name = *****
REMARK                            x       y       z     vdW  Elec       q    Type
REMARK                         _______ _______ _______ _____ _____    ______ ____
ROOT
ATOM      1  C   LIG    1        8.947  -2.530  -3.777  0.00  0.00    +0.044 C 
ATOM      2  C   LIG    1        8.520  -4.015  -3.777  0.00  0.00    +0.122 C 
ATOM      3  C   LIG    1        8.394  -4.393  -5.259  0.00  0.00    +0.036 C 
ATOM      4  C   LIG    1        7.999  -3.096  -5.983  0.00  0.00    -0.001 C 
ATOM      5  C   LIG    1        8.968  -2.642  -7.078  0.00  0.00    +0.034 C 
ATOM      6  C   LIG    1        9.066  -1.151  -6.889  0.00  0.00    -0.073 C 
ATOM      7  C   LIG    1        9.634  -0.324  -7.780  0.00  0.00    -0.027 C 
ATOM      8  C   LIG    1        8.403  -0.709  -5.617  0.00  0.00    +0.035 C 
ATOM      9  C   LIG    1        8.030  -1.996  -4.910  0.00  0.00    +0.006 C 
ENDROOT
BRANCH   1  11
ATOM     10  C   LIG    1       11.355  -2.214  -2.954  0.00  0.00    +0.000 C 
ATOM     11  C   LIG    1       10.462  -2.398  -3.951  0.00  0.00    -0.022 C 
BRANCH  10  12
ATOM     12  C   LIG    1       12.864  -2.144  -3.160  0.00  0.00    +0.141 C 
BRANCH  12  13
ATOM     13  C   LIG    1       13.748  -2.675  -1.994  0.00  0.00    +0.030 C 
ATOM     14  C   LIG    1       13.442  -4.119  -1.579  0.00  0.00    +0.011 C 
BRANCH  13  15
ATOM     15  C   LIG    1       15.264  -2.511  -2.280  0.00  0.00    +0.095 C 
BRANCH  15  18
ATOM     16  C   LIG    1       16.631  -5.048  -5.247  0.00  0.00    +0.106 C 
ATOM     17  C   LIG    1       16.167  -4.146  -4.205  0.00  0.00    -0.106 C 
ATOM     18  C   LIG    1       15.757  -3.395  -3.338  0.00  0.00    -0.102 C 
ENDBRANCH  15  18
ENDBRANCH  13  15
ENDBRANCH  12  13
BRANCH  12  19
ATOM     19  O   LIG    1       13.213  -0.770  -3.357  0.00  0.00    -0.388 OA
ATOM     20  H   LIG    1       12.408  -0.233  -3.274  0.00  0.00    +0.210 HD
ENDBRANCH  12  19
ENDBRANCH  10  12
ENDBRANCH   1  11
BRANCH   2  21
ATOM     21  O   LIG    1        7.262  -4.185  -3.117  0.00  0.00    -0.391 OA
ATOM     22  H   LIG    1        6.558  -3.796  -3.663  0.00  0.00    +0.210 HD
ENDBRANCH   2  21
BRANCH   7  23
ATOM     23  C   LIG    1        9.706   1.173  -7.646  0.00  0.00    +0.028 C 
BRANCH  23  24
ATOM     24  C   LIG    1        8.492   1.881  -8.251  0.00  0.00    +0.015 C 
BRANCH  24  25
ATOM     25  C   LIG    1        8.309   1.554  -9.730  0.00  0.00    +0.121 C 
BRANCH  25  26
ATOM     26  C   LIG    1        7.103   2.240 -10.310  0.00  0.00    +0.307 C 
ATOM     27  O   LIG    1        6.687   3.343  -9.983  0.00  0.00    -0.251 OA
BRANCH  26  28
ATOM     28  O   LIG    1        6.580   1.465 -11.303  0.00  0.00    -0.457 OA
BRANCH  28  29
ATOM     29  C   LIG    1        5.377   1.985 -11.861  0.00  0.00    +0.311 C 
BRANCH  29  30
ATOM     30  C   LIG    1        4.180   1.774 -10.934  0.00  0.00    +0.200 C 
ATOM     31  O   LIG    1        4.107   0.821 -10.157  0.00  0.00    -0.288 OA
BRANCH  30  32
ATOM     32  C   LIG    1        3.039   2.723 -11.029  0.00  0.00    +0.021 A 
ATOM     33  C   LIG    1        3.236   4.065 -11.372  0.00  0.00    +0.011 A 
ATOM     34  C   LIG    1        2.152   4.937 -11.445  0.00  0.00    +0.001 A 
ATOM     35  C   LIG    1        0.868   4.479 -11.162  0.00  0.00    +0.000 A 
ATOM     36  C   LIG    1        0.663   3.146 -10.807  0.00  0.00    +0.001 A 
ATOM     37  C   LIG    1        1.747   2.266 -10.737  0.00  0.00    +0.011 A 
ENDBRANCH  30  32
ENDBRANCH  29  30
ENDBRANCH  28  29
ENDBRANCH  26  28
ENDBRANCH  25  26
ENDBRANCH  24  25
ENDBRANCH  23  24
ENDBRANCH   7  23
TORSDOF 15
