REMARK  Name = *****
REMARK                            x       y       z     vdW  Elec       q    Type
REMARK                         _______ _______ _______ _____ _____    ______ ____
ROOT
ATOM      1  C   LIG    1       -4.992  -1.741  -2.429  0.00  0.00    +0.075 C 
ATOM      2  C   LIG    1       -4.877  -0.740  -3.638  0.00  0.00    +0.000 C 
ATOM      3  C   LIG    1       -3.379  -0.613  -4.073  0.00  0.00    +0.014 C 
ATOM      4  C   LIG    1       -5.310   0.632  -3.031  0.00  0.00    +0.001 C 
ATOM      5  C   LIG    1       -6.753   1.113  -3.334  0.00  0.00    -0.003 C 
ATOM      6  C   LIG    1       -7.187   0.840  -4.786  0.00  0.00    -0.000 C 
ATOM      7  C   LIG    1       -7.060  -0.664  -5.054  0.00  0.00    +0.005 C 
ATOM      8  C   LIG    1       -6.449   1.751  -5.811  0.00  0.00    +0.018 C 
ATOM      9  C   LIG    1       -6.562   3.217  -5.410  0.00  0.00    -0.070 C 
ATOM     10  C   LIG    1       -6.884   4.186  -6.286  0.00  0.00    -0.027 C 
ATOM     11  C   LIG    1       -7.099   3.951  -7.750  0.00  0.00    +0.027 C 
ATOM     12  C   LIG    1       -6.562   2.599  -8.209  0.00  0.00    +0.005 C 
ATOM     13  C   LIG    1       -6.253   3.544  -3.970  0.00  0.00    +0.031 C 
ATOM     14  C   LIG    1       -6.974   1.496  -7.242  0.00  0.00    +0.008 C 
ATOM     15  C   LIG    1       -6.960   2.603  -2.999  0.00  0.00    +0.008 C 
ATOM     16  C   LIG    1       -5.081   0.499  -1.504  0.00  0.00    +0.007 C 
ATOM     17  C   LIG    1       -5.633  -1.174  -4.917  0.00  0.00    +0.010 C 
ATOM     18  C   LIG    1       -4.483  -0.881  -1.261  0.00  0.00    +0.036 C 
ENDROOT
BRANCH   1  19
ATOM     19  O   LIG    1       -4.112  -2.850  -2.638  0.00  0.00    -0.388 OA
ATOM     20  H   LIG    1       -3.983  -3.288  -1.779  0.00  0.00    +0.210 HD
ENDBRANCH   1  19
BRANCH   1  21
ATOM     21  C   LIG    1       -6.416  -2.305  -2.167  0.00  0.00    +0.062 C 
BRANCH  21  23
ATOM     22  C   LIG    1       -7.250  -2.915   0.136  0.00  0.00    +0.004 C 
ATOM     23  C   LIG    1       -6.524  -3.201  -0.954  0.00  0.00    -0.032 C 
ENDBRANCH  21  23
ENDBRANCH   1  21
TORSDOF 3
