REMARK  Name = *****
REMARK                            x       y       z     vdW  Elec       q    Type
REMARK                         _______ _______ _______ _____ _____    ______ ____
ROOT
ATOM      1  C   LIG    1       -0.436   2.432   5.798  0.00  0.00    +0.025 C 
ATOM      2  C   LIG    1       -0.862   1.010   5.388  0.00  0.00    +0.042 C 
ATOM      3  CA  LIG    1       -2.388   0.823   5.583  0.00  0.00    +0.201 C 
ATOM      4  N   LIG    1       -3.046   1.181   4.315  0.00  0.00    -0.271 N 
ATOM      5  C   LIG    1       -2.280   0.961   3.068  0.00  0.00    +0.165 C 
ATOM      6  CA  LIG    1       -2.800   2.338   2.571  0.00  0.00    +0.190 C 
ATOM      7  C   LIG    1       -3.294   2.499   4.025  0.00  0.00    +0.240 C 
ATOM      8  O   LIG    1       -3.624   3.411   4.748  0.00  0.00    -0.273 OA
ATOM      9  S   LIG    1       -0.530   0.833   3.581  0.00  0.00    -0.127 S 
ATOM     10  C   LIG    1        0.047   0.010   6.110  0.00  0.00    +0.025 C 
ENDROOT
BRANCH   6  11
ATOM     11  N   LIG    1       -1.799   3.319   2.080  0.00  0.00    -0.299 N 
ATOM     12  H   LIG    1       -1.696   4.234   2.512  0.00  0.00    +0.150 HD
ATOM     13  C   LIG    1       -1.017   3.033   0.978  0.00  0.00    +0.250 C 
ATOM     14  O   LIG    1       -1.121   1.961   0.381  0.00  0.00    -0.273 OA
BRANCH  13  15
ATOM     15  C   LIG    1       -0.060   4.151   0.511  0.00  0.00    +0.306 C 
BRANCH  15  16
ATOM     16  C   LIG    1       -0.731   5.039  -0.528  0.00  0.00    -0.007 A 
ATOM     17  C   LIG    1       -0.851   6.427  -0.361  0.00  0.00    +0.006 A 
ATOM     18  C   LIG    1       -1.488   7.211  -1.326  0.00  0.00    +0.000 A 
ATOM     19  C   LIG    1       -2.010   6.622  -2.476  0.00  0.00    +0.000 A 
ATOM     20  C   LIG    1       -1.883   5.250  -2.670  0.00  0.00    +0.000 A 
ATOM     21  C   LIG    1       -1.241   4.466  -1.709  0.00  0.00    +0.006 A 
ENDBRANCH  15  16
BRANCH  15  22
ATOM     22  N   LIG    1        0.405   4.888   1.712  0.00  0.00    +0.094 NA
ATOM     23  N   LIG    1        1.435   4.423   2.241  0.00  0.00    -0.014 NA
ATOM     24  N   LIG    1        2.369   3.997   2.727  0.00  0.00    -0.328 NA
ENDBRANCH  15  22
ENDBRANCH  13  15
ENDBRANCH   6  11
BRANCH   3  25
ATOM     25  C   LIG    1       -2.856  -0.576   6.008  0.00  0.00    +0.327 C 
ATOM     26  O   LIG    1       -2.467  -1.168   7.004  0.00  0.00    -0.249 OA
BRANCH  25  27
ATOM     27  OXT LIG    1       -3.825  -1.092   5.209  0.00  0.00    -0.479 OA
ATOM     28  HXT LIG    1       -4.077  -0.440   4.523  0.00  0.00    +0.295 HD
ENDBRANCH  25  27
ENDBRANCH   3  25
TORSDOF 6
