REMARK  Name = *****
REMARK                            x       y       z     vdW  Elec       q    Type
REMARK                         _______ _______ _______ _____ _____    ______ ____
ROOT
ATOM      1  C   LIG    1        4.558  -0.466   0.307  0.00  0.00    +0.127 C 
ATOM      2  C   LIG    1        5.161  -0.474  -1.083  0.00  0.00    +0.236 C 
ATOM      3  O   LIG    1        5.395  -1.511  -1.706  0.00  0.00    -0.274 OA
ATOM      4  N   LIG    1        5.374   0.736  -1.673  0.00  0.00    -0.239 N 
ATOM      5  H   LIG    1        5.714   0.725  -2.625  0.00  0.00    +0.159 HD
ATOM      6  C   LIG    1        5.187   1.960  -1.109  0.00  0.00    +0.312 C 
ATOM      7  O   LIG    1        5.386   2.992  -1.731  0.00  0.00    -0.252 OA
ATOM      8  N   LIG    1        4.793   1.976   0.193  0.00  0.00    -0.239 N 
ATOM      9  H   LIG    1        4.743   2.885   0.635  0.00  0.00    +0.159 HD
ATOM     10  C   LIG    1        4.582   0.888   0.990  0.00  0.00    +0.236 C 
ATOM     11  O   LIG    1        4.348   1.043   2.189  0.00  0.00    -0.274 OA
ENDROOT
BRANCH   1  12
ATOM     12  C   LIG    1        3.052  -0.853   0.152  0.00  0.00    +0.052 C 
BRANCH  12  14
ATOM     13  C   LIG    1        1.559  -0.202  -1.772  0.00  0.00    +0.004 C 
ATOM     14  C   LIG    1        2.207   0.117  -0.646  0.00  0.00    -0.033 C 
ENDBRANCH  12  14
ENDBRANCH   1  12
BRANCH   1  15
ATOM     15  C   LIG    1        5.263  -1.547   1.183  0.00  0.00    +0.028 C 
BRANCH  15  16
ATOM     16  C   LIG    1        6.798  -1.427   1.385  0.00  0.00    -0.016 C 
ATOM     17  C   LIG    1        7.295  -2.624   2.210  0.00  0.00    +0.007 C 
ATOM     18  C   LIG    1        7.241  -0.141   2.081  0.00  0.00    +0.007 C 
ENDBRANCH  15  16
ENDBRANCH   1  15
TORSDOF 4
