REMARK  Name = *****
REMARK                            x       y       z     vdW  Elec       q    Type
REMARK                         _______ _______ _______ _____ _____    ______ ____
ROOT
ATOM      1  C   LIG    1        6.001   3.816  -1.323  0.00  0.00    +0.162 C 
ENDROOT
BRANCH   1   2
ATOM      2  C   LIG    1        6.097   4.664  -2.588  0.00  0.00    -0.007 A 
ATOM      3  C   LIG    1        5.757   6.048  -2.630  0.00  0.00    +0.009 A 
ATOM      4  C   LIG    1        5.917   6.729  -3.869  0.00  0.00    +0.071 A 
ATOM      5  C   LIG    1        5.631   8.084  -3.939  0.00  0.00    +0.032 A 
ATOM      6  C   LIG    1        5.193   8.807  -2.830  0.00  0.00    +0.048 A 
ATOM      7  C   LIG    1        5.028   8.164  -1.611  0.00  0.00    +0.121 A 
ATOM      8  N   LIG    1        6.343   6.126  -4.984  0.00  0.00    -0.255 NA
ATOM      9  C   LIG    1        6.674   4.824  -4.915  0.00  0.00    +0.112 A 
ATOM     10  C   LIG    1        5.286   6.796  -1.526  0.00  0.00    +0.056 A 
ATOM     11  C   LIG    1        6.582   4.068  -3.761  0.00  0.00    +0.026 A 
BRANCH   7  12
ATOM     12  O   LIG    1        4.586   8.944  -0.579  0.00  0.00    -0.495 OA
ATOM     13  C   LIG    1        4.947   8.498   0.725  0.00  0.00    +0.277 C 
ENDBRANCH   7  12
ENDBRANCH   1   2
BRANCH   1  17
ATOM     14  C   LIG    1        2.936   0.688  -0.890  0.00  0.00    +0.028 C 
ATOM     15  C   LIG    1        2.669   2.206  -0.735  0.00  0.00    -0.000 C 
ATOM     16  C   LIG    1        3.592   2.944  -1.720  0.00  0.00    +0.026 C 
ATOM     17  C   LIG    1        5.061   2.571  -1.430  0.00  0.00    +0.090 C 
ATOM     18  N   LIG    1        5.169   1.663  -0.229  0.00  0.00    -0.296 NA
ATOM     19  C   LIG    1        4.512   2.258   0.961  0.00  0.00    +0.085 C 
ATOM     20  C   LIG    1        3.067   2.682   0.671  0.00  0.00    +0.019 C 
ATOM     21  C   LIG    1        4.426   0.407  -0.543  0.00  0.00    +0.092 C 
BRANCH  14  23
ATOM     22  C   LIG    1        0.797  -0.578  -0.547  0.00  0.00    +0.004 C 
ATOM     23  C   LIG    1        1.973  -0.141  -0.073  0.00  0.00    -0.029 C 
ENDBRANCH  14  23
ENDBRANCH   1  17
BRANCH   1  24
ATOM     24  O   LIG    1        7.323   3.356  -1.005  0.00  0.00    -0.386 OA
ATOM     25  H   LIG    1        7.178   2.583  -0.422  0.00  0.00    +0.210 HD
ENDBRANCH   1  24
TORSDOF 5
