REMARK  Name = *****
REMARK                            x       y       z     vdW  Elec       q    Type
REMARK                         _______ _______ _______ _____ _____    ______ ____
ROOT
ATOM      1  C   LIG    1        1.065  -0.069   0.612  0.00  0.00    +0.034 C 
ATOM      2  C   LIG    1        2.456  -0.158  -0.025  0.00  0.00    +0.122 C 
ATOM      3  N   LIG    1        2.691  -1.462  -0.688  0.00  0.00    -0.337 NA
ATOM      4  C   LIG    1        3.636  -1.422  -1.750  0.00  0.00    +0.097 C 
ATOM      5  C   LIG    1        4.029  -2.621  -2.369  0.00  0.00    +0.052 C 
ATOM      6  C   LIG    1        3.445  -3.903  -1.913  0.00  0.00    +0.204 C 
ATOM      7  C   LIG    1        2.606  -3.893  -0.699  0.00  0.00    +0.122 C 
ATOM      8  O   LIG    1        3.650  -4.957  -2.513  0.00  0.00    -0.286 OA
ATOM      9  C   LIG    1        4.968  -2.628  -3.397  0.00  0.00    +0.054 C 
ATOM     10  C   LIG    1        5.532  -1.430  -3.824  0.00  0.00    +0.149 C 
ATOM     11  F   LIG    1        6.411  -1.512  -4.833  0.00  0.00    -0.203 F 
ATOM     12  C   LIG    1        5.183  -0.186  -3.260  0.00  0.00    +0.110 C 
ATOM     13  C   LIG    1        4.213  -0.215  -2.220  0.00  0.00    +0.168 C 
ATOM     14  O   LIG    1        3.892   0.996  -1.634  0.00  0.00    -0.486 OA
ATOM     15  C   LIG    1        2.308  -2.694  -0.178  0.00  0.00    +0.105 C 
ATOM     16  C   LIG    1        2.589   0.971  -1.055  0.00  0.00    +0.254 C 
ENDROOT
BRANCH  12  17
ATOM     17  N   LIG    1        5.733   1.051  -3.684  0.00  0.00    -0.322 NA
ATOM     18  C   LIG    1        4.795   1.839  -4.519  0.00  0.00    +0.120 C 
ATOM     19  C   LIG    1        5.371   3.245  -4.833  0.00  0.00    +0.103 C 
ATOM     20  N   LIG    1        6.739   3.264  -5.399  0.00  0.00    -0.302 NA
ATOM     21  C   LIG    1        6.757   2.763  -6.773  0.00  0.00    +0.105 C 
ATOM     22  C   LIG    1        7.616   2.465  -4.511  0.00  0.00    +0.103 C 
ATOM     23  C   LIG    1        7.113   1.031  -4.217  0.00  0.00    +0.120 C 
ENDBRANCH  12  17
BRANCH   7  24
ATOM     24  C   LIG    1        2.077  -5.115  -0.062  0.00  0.00    +0.342 C 
ATOM     25  O   LIG    1        1.567  -5.125   1.052  0.00  0.00    -0.245 OA
BRANCH  24  26
ATOM     26  O   LIG    1        2.167  -6.226  -0.823  0.00  0.00    -0.477 OA
ATOM     27  H   LIG    1        2.653  -6.091  -1.673  0.00  0.00    +0.295 HD
ENDBRANCH  24  26
ENDBRANCH   7  24
TORSDOF 3
