REMARK  Name = *****
REMARK                            x       y       z     vdW  Elec       q    Type
REMARK                         _______ _______ _______ _____ _____    ______ ____
ROOT
ATOM      1  C   LIG    1        5.623 -11.524   0.143  0.00  0.00    +0.087 C 
ATOM      2  C   LIG    1        7.135 -11.493   0.483  0.00  0.00    +0.169 C 
ATOM      3  C   LIG    1        7.855 -10.489  -0.476  0.00  0.00    +0.175 C 
ATOM      4  C   LIG    1        7.358  -9.017  -0.397  0.00  0.00    +0.170 C 
ATOM      5  C   LIG    1        5.795  -8.908  -0.216  0.00  0.00    +0.084 C 
ATOM      6  C   LIG    1        5.056 -10.119   0.407  0.00  0.00    +0.042 C 
ENDROOT
BRANCH   5   7
ATOM      7  N   LIG    1        5.095  -8.588  -1.478  0.00  0.00    -0.325 NA
ATOM      8  H   LIG    1        5.468  -7.731  -1.885  0.00  0.00    +0.118 HD
ATOM      9  H   LIG    1        5.231  -9.332  -2.161  0.00  0.00    +0.118 HD
ENDBRANCH   5   7
BRANCH   1  10
ATOM     10  N   LIG    1        5.272 -11.984  -1.225  0.00  0.00    -0.311 NA
ATOM     11  H   LIG    1        4.247 -11.995  -1.289  0.00  0.00    +0.122 HD
BRANCH  10  13
ATOM     12  C   LIG    1        5.332 -13.779  -2.904  0.00  0.00    +0.020 C 
ATOM     13  C   LIG    1        5.742 -13.356  -1.500  0.00  0.00    +0.078 C 
ENDBRANCH  10  13
ENDBRANCH   1  10
BRANCH   3  14
ATOM     14  O   LIG    1        7.753 -10.925  -1.848  0.00  0.00    -0.387 OA
ATOM     15  H   LIG    1        6.816 -11.182  -1.995  0.00  0.00    +0.210 HD
ENDBRANCH   3  14
BRANCH   2  16
ATOM     16  O   LIG    1        7.389 -11.160   1.866  0.00  0.00    -0.341 OA
BRANCH  16  17
ATOM     17  C   LIG    1        6.858 -12.070   2.855  0.00  0.00    +0.281 C 
ATOM     18  C   LIG    1        7.357 -11.613   4.249  0.00  0.00    +0.190 C 
ATOM     19  C   LIG    1        6.847 -12.537   5.391  0.00  0.00    +0.121 C 
ATOM     20  C   LIG    1        7.131 -14.038   5.056  0.00  0.00    +0.104 C 
ATOM     21  C   LIG    1        8.575 -14.435   5.378  0.00  0.00    +0.045 C 
ATOM     22  C   LIG    1        6.758 -14.330   3.586  0.00  0.00    +0.199 C 
ATOM     23  O   LIG    1        7.318 -13.407   2.641  0.00  0.00    -0.346 OA
BRANCH  19  24
ATOM     24  N   LIG    1        5.402 -12.426   5.746  0.00  0.00    -0.311 NA
ATOM     25  H   LIG    1        4.800 -12.771   4.999  0.00  0.00    +0.122 HD
ATOM     26  C   LIG    1        5.002 -11.071   6.100  0.00  0.00    +0.101 C 
ENDBRANCH  19  24
BRANCH  18  27
ATOM     27  O   LIG    1        8.797 -11.593   4.272  0.00  0.00    -0.385 OA
ATOM     28  H   LIG    1        9.087 -12.036   3.448  0.00  0.00    +0.210 HD
ENDBRANCH  18  27
BRANCH  20  29
ATOM     29  O   LIG    1        6.308 -14.883   5.892  0.00  0.00    -0.385 OA
ATOM     30  H   LIG    1        5.692 -14.274   6.353  0.00  0.00    +0.210 HD
ENDBRANCH  20  29
ENDBRANCH  16  17
ENDBRANCH   2  16
BRANCH   4  31
ATOM     31  O   LIG    1        8.187  -8.310   0.570  0.00  0.00    -0.333 OA
BRANCH  31  32
ATOM     32  C   LIG    1        8.042  -6.875   0.612  0.00  0.00    +0.324 C 
ATOM     33  C   LIG    1        9.286  -6.111   1.214  0.00  0.00    +0.124 C 
ATOM     34  C   LIG    1        9.548  -6.640   2.631  0.00  0.00    +0.055 C 
ATOM     35  C   LIG    1        8.267  -6.764   3.383  0.00  0.00    +0.017 C 
ATOM     36  C   LIG    1        7.053  -6.693   2.772  0.00  0.00    +0.111 C 
ATOM     37  O   LIG    1        6.897  -6.523   1.411  0.00  0.00    -0.465 OA
BRANCH  33  38
ATOM     38  N   LIG    1       10.529  -6.038   0.423  0.00  0.00    -0.322 NA
ATOM     39  H   LIG    1       10.504  -6.689  -0.357  0.00  0.00    +0.119 HD
ATOM     40  H   LIG    1       11.331  -6.294   0.999  0.00  0.00    +0.119 HD
ENDBRANCH  33  38
BRANCH  36  41
ATOM     41  C   LIG    1        5.773  -6.853   3.534  0.00  0.00    +0.152 C 
BRANCH  41  42
ATOM     42  N   LIG    1        5.503  -8.273   3.748  0.00  0.00    -0.324 NA
ATOM     43  H   LIG    1        5.535  -8.705   2.829  0.00  0.00    +0.119 HD
ATOM     44  H   LIG    1        6.314  -8.653   4.234  0.00  0.00    +0.119 HD
ENDBRANCH  41  42
ENDBRANCH  36  41
ENDBRANCH  31  32
ENDBRANCH   4  31
TORSDOF 14
