REMARK  Name = *****
REMARK                            x       y       z     vdW  Elec       q    Type
REMARK                         _______ _______ _______ _____ _____    ______ ____
ROOT
ATOM      1  C   LIG    1        6.785  -1.056   2.112  0.00  0.00    +0.159 A 
ATOM      2  C   LIG    1        7.691  -2.045   2.510  0.00  0.00    +0.164 A 
ATOM      3  F   LIG    1        7.405  -3.351   2.397  0.00  0.00    -0.202 F 
ATOM      4  C   LIG    1        8.912  -1.696   3.054  0.00  0.00    +0.057 A 
ATOM      5  C   LIG    1        9.217  -0.346   3.206  0.00  0.00    +0.068 A 
ATOM      6  C   LIG    1       10.517   0.017   3.786  0.00  0.00    +0.205 A 
ATOM      7  C   LIG    1       10.815   1.440   3.989  0.00  0.00    +0.122 A 
ATOM      8  C   LIG    1        9.878   2.314   3.594  0.00  0.00    +0.112 A 
ATOM      9  N   LIG    1        8.644   2.038   2.989  0.00  0.00    -0.297 N 
ATOM     10  O   LIG    1       11.335  -0.839   4.112  0.00  0.00    -0.286 OA
ATOM     11  C   LIG    1        8.298   0.637   2.817  0.00  0.00    +0.151 A 
ATOM     12  N   LIG    1        7.107   0.259   2.274  0.00  0.00    -0.211 NA
ENDROOT
BRANCH   9  13
ATOM     13  C   LIG    1        7.788   3.133   2.578  0.00  0.00    +0.083 A 
ATOM     14  C   LIG    1        8.303   4.376   2.134  0.00  0.00    +0.150 A 
ATOM     15  F   LIG    1        9.627   4.570   2.018  0.00  0.00    -0.203 F 
ATOM     16  C   LIG    1        7.483   5.442   1.762  0.00  0.00    +0.078 A 
ATOM     17  C   LIG    1        6.110   5.279   1.795  0.00  0.00    +0.126 A 
ATOM     18  F   LIG    1        5.313   6.288   1.421  0.00  0.00    -0.205 F 
ATOM     19  C   LIG    1        5.552   4.080   2.208  0.00  0.00    +0.040 A 
ATOM     20  C   LIG    1        6.383   3.026   2.611  0.00  0.00    +0.032 A 
ENDBRANCH   9  13
BRANCH   1  24
ATOM     21  C   LIG    1        2.805  -2.111   0.672  0.00  0.00    +0.061 C 
ATOM     22  C   LIG    1        4.126  -2.343  -0.010  0.00  0.00    +0.029 C 
ATOM     23  C   LIG    1        5.384  -2.578   0.766  0.00  0.00    +0.112 C 
ATOM     24  N   LIG    1        5.541  -1.373   1.589  0.00  0.00    -0.312 N 
ATOM     25  C   LIG    1        4.640  -0.294   1.180  0.00  0.00    +0.112 C 
ATOM     26  C   LIG    1        3.666  -0.950   0.247  0.00  0.00    +0.029 C 
BRANCH  21  27
ATOM     27  N   LIG    1        1.579  -2.380  -0.080  0.00  0.00    -0.327 NA
ATOM     28  H   LIG    1        1.303  -3.357   0.012  0.00  0.00    +0.118 HD
ATOM     29  H   LIG    1        0.801  -1.832   0.287  0.00  0.00    +0.118 HD
ENDBRANCH  21  27
ENDBRANCH   1  24
BRANCH   7  30
ATOM     30  C   LIG    1       12.066   1.925   4.610  0.00  0.00    +0.342 C 
ATOM     31  O   LIG    1       12.303   3.111   4.802  0.00  0.00    -0.245 OA
BRANCH  30  32
ATOM     32  O   LIG    1       12.938   0.956   4.958  0.00  0.00    -0.477 OA
ATOM     33  H   LIG    1       12.638   0.038   4.746  0.00  0.00    +0.295 HD
ENDBRANCH  30  32
ENDBRANCH   7  30
TORSDOF 5
