REMARK  Name = *****
REMARK                            x       y       z     vdW  Elec       q    Type
REMARK                         _______ _______ _______ _____ _____    ______ ____
ROOT
ATOM      1  N   LIG    1        8.379  -2.031  -1.062  0.00  0.00    -0.299 N 
ATOM      2  C   LIG    1        9.024  -3.291  -1.139  0.00  0.00    +0.038 A 
ATOM      3  C   LIG    1        9.947  -3.671  -2.134  0.00  0.00    -0.026 A 
ATOM      4  C   LIG    1       10.529  -4.963  -2.087  0.00  0.00    +0.007 A 
ATOM      5  C   LIG    1       10.233  -5.861  -1.066  0.00  0.00    +0.020 A 
ATOM      6  C   LIG    1        9.371  -5.473  -0.060  0.00  0.00    +0.043 A 
ATOM      7 CL   LIG    1        9.047  -6.539   1.252  0.00  0.00    -0.084 Cl
ATOM      8  C   LIG    1       10.437  -2.786  -3.261  0.00  0.00    +0.041 C 
ATOM      9  C   LIG    1        9.473  -1.733  -3.784  0.00  0.00    +0.041 C 
ATOM     10  C   LIG    1        9.353  -0.585  -2.822  0.00  0.00    -0.026 A 
ATOM     11  C   LIG    1        9.748   0.703  -3.228  0.00  0.00    +0.005 A 
ATOM     12  C   LIG    1        9.677   1.783  -2.349  0.00  0.00    +0.000 A 
ATOM     13  C   LIG    1        9.212   1.589  -1.056  0.00  0.00    +0.002 A 
ATOM     14  C   LIG    1        8.797   0.319  -0.654  0.00  0.00    +0.024 A 
ATOM     15  C   LIG    1        8.775  -4.211  -0.093  0.00  0.00    +0.043 A 
ATOM     16  C   LIG    1        8.851  -0.782  -1.530  0.00  0.00    +0.037 A 
ENDROOT
BRANCH   1  17
ATOM     17  C   LIG    1        6.887  -2.075  -0.998  0.00  0.00    +0.112 C 
BRANCH  17  18
ATOM     18  C   LIG    1        6.265  -2.455  -2.351  0.00  0.00    +0.035 C 
BRANCH  18  19
ATOM     19  C   LIG    1        4.734  -2.536  -2.291  0.00  0.00    +0.085 C 
BRANCH  19  21
ATOM     20  C   LIG    1        4.532  -4.152  -4.118  0.00  0.00    +0.104 C 
ATOM     21  N   LIG    1        4.118  -2.848  -3.597  0.00  0.00    -0.308 NA
ATOM     22  C   LIG    1        2.656  -2.801  -3.490  0.00  0.00    +0.104 C 
ENDBRANCH  19  21
ENDBRANCH  18  19
ENDBRANCH  17  18
ENDBRANCH   1  17
TORSDOF 4
