REMARK  Name = *****
REMARK                            x       y       z     vdW  Elec       q    Type
REMARK                         _______ _______ _______ _____ _____    ______ ____
ROOT
ATOM      1  C   LIG    1        5.143   3.648   0.829  0.00  0.00    +0.033 C 
ENDROOT
BRANCH   1   2
ATOM      2  C   LIG    1        5.500   2.245   0.351  0.00  0.00    +0.193 C 
BRANCH   2   3
ATOM      3  O   LIG    1        5.360   1.357   1.445  0.00  0.00    -0.239 OA
BRANCH   3   5
ATOM      4  C   LIG    1        5.255  -0.768   2.837  0.00  0.00    +0.228 C 
ATOM      5  S   LIG    1        5.492  -0.237   1.159  0.00  0.00    +0.079 S 
ATOM      6  O   LIG    1        4.342  -0.654   0.371  0.00  0.00    -0.147 OA
ATOM      7  O   LIG    1        6.846  -0.527   0.755  0.00  0.00    -0.147 OA
ENDBRANCH   3   5
ENDBRANCH   2   3
ENDBRANCH   1   2
BRANCH   1   8
ATOM      8  C   LIG    1        6.023   4.136   1.991  0.00  0.00    +0.033 C 
BRANCH   8   9
ATOM      9  C   LIG    1        7.492   4.318   1.610  0.00  0.00    +0.193 C 
BRANCH   9  10
ATOM     10  O   LIG    1        7.638   5.170   0.479  0.00  0.00    -0.239 OA
BRANCH  10  11
ATOM     11  S   LIG    1        7.187   6.738   0.625  0.00  0.00    +0.079 S 
ATOM     12  O   LIG    1        8.044   7.380   1.584  0.00  0.00    -0.147 OA
ATOM     13  O   LIG    1        5.736   6.806   0.717  0.00  0.00    -0.147 OA
ATOM     14  C   LIG    1        7.618   7.259  -1.004  0.00  0.00    +0.228 C 
ENDBRANCH  10  11
ENDBRANCH   9  10
ENDBRANCH   8   9
ENDBRANCH   1   8
TORSDOF 7
