REMARK  Name = *****
REMARK                            x       y       z     vdW  Elec       q    Type
REMARK                         _______ _______ _______ _____ _____    ______ ____
ROOT
ATOM      1  C   LIG    1        1.117   0.153   0.170  0.00  0.00    +0.028 A 
ATOM      2  C   LIG    1        1.765  -1.080   0.067  0.00  0.00    +0.069 A 
ATOM      3  C   LIG    1        3.150  -1.146  -0.109  0.00  0.00    +0.133 A 
ATOM      4  C   LIG    1        3.920   0.025  -0.131  0.00  0.00    +0.101 A 
ATOM      5  C   LIG    1        3.276   1.260   0.029  0.00  0.00    +0.020 A 
ATOM      6  C   LIG    1        1.889   1.315   0.197  0.00  0.00    +0.024 A 
ENDROOT
BRANCH   1   7
ATOM      7  N   LIG    1       -0.247   0.214   0.474  0.00  0.00    -0.358 N 
ATOM      8  H   LIG    1       -0.776  -0.590   0.150  0.00  0.00    +0.142 HD
ATOM      9  H   LIG    1       -0.688   1.091   0.217  0.00  0.00    +0.142 HD
ENDBRANCH   1   7
BRANCH   3  10
ATOM     10  O   LIG    1        3.679  -2.403  -0.247  0.00  0.00    -0.506 OA
ATOM     11  H   LIG    1        4.652  -2.330  -0.361  0.00  0.00    +0.292 HD
ENDBRANCH   3  10
BRANCH   4  12
ATOM     12  C   LIG    1        5.391  -0.067  -0.304  0.00  0.00    +0.348 C 
ATOM     13  O   LIG    1        5.964  -1.141  -0.432  0.00  0.00    -0.244 OA
BRANCH  12  14
ATOM     14  O   LIG    1        5.950   1.199  -0.293  0.00  0.00    -0.422 OA
BRANCH  14  15
ATOM     15  C   LIG    1        7.323   1.392  -0.533  0.00  0.00    +0.132 A 
ATOM     16  C   LIG    1        7.923   2.454   0.145  0.00  0.00    +0.046 A 
ATOM     17  C   LIG    1        9.268   2.743  -0.084  0.00  0.00    +0.004 A 
ATOM     18  C   LIG    1       10.000   1.975  -0.991  0.00  0.00    +0.000 A 
ATOM     19  C   LIG    1        9.385   0.928  -1.679  0.00  0.00    +0.004 A 
ATOM     20  C   LIG    1        8.040   0.640  -1.462  0.00  0.00    +0.046 A 
ENDBRANCH  14  15
ENDBRANCH  12  14
ENDBRANCH   4  12
TORSDOF 5
