REMARK  Name = *****
REMARK                            x       y       z     vdW  Elec       q    Type
REMARK                         _______ _______ _______ _____ _____    ______ ____
ROOT
ATOM      1  C   LIG    1        8.425   1.426   4.504  0.00  0.00    +0.121 A 
ATOM      2  C   LIG    1        9.317   0.451   4.060  0.00  0.00    +0.046 A 
ATOM      3  C   LIG    1       10.683   0.748   3.949  0.00  0.00    +0.009 A 
ATOM      4  C   LIG    1       11.163   2.037   4.258  0.00  0.00    -0.022 A 
ATOM      5  C   LIG    1       10.270   2.988   4.734  0.00  0.00    +0.009 A 
ATOM      6  C   LIG    1        8.917   2.695   4.845  0.00  0.00    +0.046 A 
ENDROOT
BRANCH   1   7
ATOM      7  O   LIG    1        7.096   1.104   4.550  0.00  0.00    -0.489 OA
BRANCH   7   8
ATOM      8  C   LIG    1        6.340   1.805   5.543  0.00  0.00    +0.261 C 
BRANCH   8   9
ATOM      9  C   LIG    1        4.860   1.419   5.497  0.00  0.00    +0.166 C 
BRANCH   9  10
ATOM     10  O   LIG    1        4.141   2.170   6.488  0.00  0.00    -0.387 OA
ATOM     11  H   LIG    1        4.188   3.106   6.226  0.00  0.00    +0.210 HD
ENDBRANCH   9  10
BRANCH   9  12
ATOM     12  C   LIG    1        4.702  -0.082   5.768  0.00  0.00    +0.115 C 
BRANCH  12  13
ATOM     13  N   LIG    1        3.297  -0.496   5.646  0.00  0.00    -0.311 NA
ATOM     14  H   LIG    1        2.753   0.087   6.288  0.00  0.00    +0.122 HD
BRANCH  13  16
ATOM     15  C   LIG    1        1.606  -2.221   5.896  0.00  0.00    +0.024 C 
ATOM     16  C   LIG    1        3.103  -1.915   5.967  0.00  0.00    +0.048 C 
ATOM     17  C   LIG    1        3.849  -2.843   5.003  0.00  0.00    +0.024 C 
ENDBRANCH  13  16
ENDBRANCH  12  13
ENDBRANCH   9  12
ENDBRANCH   8   9
ENDBRANCH   7   8
ENDBRANCH   1   7
BRANCH   4  18
ATOM     18  C   LIG    1       12.616   2.386   4.065  0.00  0.00    +0.195 C 
BRANCH  18  19
ATOM     19  O   LIG    1       13.323   2.118   5.269  0.00  0.00    -0.373 OA
BRANCH  19  20
ATOM     20  C   LIG    1       14.714   2.421   5.137  0.00  0.00    +0.188 C 
BRANCH  20  21
ATOM     21  C   LIG    1       15.403   2.078   6.452  0.00  0.00    +0.188 C 
BRANCH  21  22
ATOM     22  O   LIG    1       16.806   2.342   6.392  0.00  0.00    -0.375 OA
BRANCH  22  23
ATOM     23  C   LIG    1       17.484   2.040   7.623  0.00  0.00    +0.112 C 
ATOM     24  C   LIG    1       18.949   2.449   7.480  0.00  0.00    +0.037 C 
ATOM     25  C   LIG    1       17.394   0.553   7.961  0.00  0.00    +0.037 C 
ENDBRANCH  22  23
ENDBRANCH  21  22
ENDBRANCH  20  21
ENDBRANCH  19  20
ENDBRANCH  18  19
ENDBRANCH   4  18
TORSDOF 13
