REMARK  Name = *****
REMARK                            x       y       z     vdW  Elec       q    Type
REMARK                         _______ _______ _______ _____ _____    ______ ____
ROOT
ATOM      1  N   LIG    1        1.080  -6.427   2.205  0.00  0.00    -0.284 N 
ATOM      2  H   LIG    1        0.721  -7.119   1.562  0.00  0.00    +0.155 HD
ATOM      3  C   LIG    1        2.124  -5.663   1.690  0.00  0.00    +0.234 C 
ATOM      4  O   LIG    1        3.065  -5.213   2.345  0.00  0.00    -0.274 OA
ENDROOT
BRANCH   1   7
ATOM      5  C   LIG    1        0.961  -4.251   4.227  0.00  0.00    +0.045 C 
ATOM      6  C   LIG    1        0.962  -5.720   4.563  0.00  0.00    -0.029 A 
ATOM      7  C   LIG    1        0.997  -6.738   3.583  0.00  0.00    +0.039 A 
ATOM      8  C   LIG    1        0.913  -8.095   3.967  0.00  0.00    -0.029 A 
ATOM      9  C   LIG    1        0.946  -9.221   2.970  0.00  0.00    +0.045 C 
ATOM     10  C   LIG    1        0.834  -8.416   5.331  0.00  0.00    +0.005 A 
ATOM     11  C   LIG    1        0.844  -7.417   6.300  0.00  0.00    +0.001 A 
ATOM     12  C   LIG    1        0.907  -6.080   5.918  0.00  0.00    +0.005 A 
ENDBRANCH   1   7
BRANCH   3  13
ATOM     13  C   LIG    1        2.001  -5.447   0.169  0.00  0.00    +0.135 C 
ATOM     14  C   LIG    1        3.234  -4.738  -0.383  0.00  0.00    +0.033 C 
BRANCH  13  15
ATOM     15  N   LIG    1        0.796  -4.647  -0.126  0.00  0.00    -0.320 NA
ATOM     16  H   LIG    1       -0.005  -5.047   0.364  0.00  0.00    +0.119 HD
ATOM     17  H   LIG    1        0.920  -3.717   0.280  0.00  0.00    +0.119 HD
ENDBRANCH  13  15
ENDBRANCH   3  13
TORSDOF 3
