REMARK  Name = *****
REMARK                            x       y       z     vdW  Elec       q    Type
REMARK                         _______ _______ _______ _____ _____    ______ ____
ROOT
ATOM      1  N   LIG    1        3.582  -1.124  -0.198  0.00  0.00    -0.314 N 
ENDROOT
BRANCH   1   2
ATOM      2  C   LIG    1        4.944  -1.415  -0.253  0.00  0.00    +0.030 A 
ATOM      3  C   LIG    1        5.426  -2.726  -0.436  0.00  0.00    +0.023 A 
ATOM      4  C   LIG    1        6.796  -3.027  -0.491  0.00  0.00    +0.002 A 
ATOM      5  C   LIG    1        7.737  -2.018  -0.363  0.00  0.00    +0.000 A 
ATOM      6  C   LIG    1        7.305  -0.714  -0.176  0.00  0.00    +0.002 A 
ATOM      7  C   LIG    1        5.934  -0.426  -0.117  0.00  0.00    +0.023 A 
ENDBRANCH   1   2
BRANCH   1   8
ATOM      8  C   LIG    1        3.053   0.231   0.037  0.00  0.00    +0.140 C 
BRANCH   8  12
ATOM      9  C   LIG    1        1.824   0.953   4.126  0.00  0.00    +0.000 A 
ATOM     10  C   LIG    1        3.142   0.591   3.856  0.00  0.00    +0.000 A 
ATOM     11  C   LIG    1        3.552   0.358   2.539  0.00  0.00    +0.005 A 
ATOM     12  C   LIG    1        2.645   0.470   1.476  0.00  0.00    -0.030 A 
ATOM     13  C   LIG    1        1.326   0.861   1.765  0.00  0.00    +0.005 A 
ATOM     14  C   LIG    1        0.918   1.097   3.079  0.00  0.00    +0.000 A 
ENDBRANCH   8  12
ENDBRANCH   1   8
BRANCH   1  15
ATOM     15  C   LIG    1        2.587  -2.094  -0.723  0.00  0.00    +0.233 C 
BRANCH  15  16
ATOM     16  C   LIG    1        2.587  -2.104  -2.251  0.00  0.00    +0.298 C 
ATOM     17  N   LIG    1        2.899  -0.972  -2.981  0.00  0.00    -0.232 N 
ATOM     18  H   LIG    1        3.607  -0.393  -2.542  0.00  0.00    +0.291 HD
ATOM     19  C   LIG    1        3.147  -1.390  -4.340  0.00  0.00    +0.273 C 
ATOM     20  C   LIG    1        2.454  -2.757  -4.361  0.00  0.00    +0.333 C 
ATOM     21  N   LIG    1        2.295  -3.179  -2.937  0.00  0.00    -0.082 NA
ENDBRANCH  15  16
ENDBRANCH   1  15
TORSDOF 5
