REMARK  Name = *****
REMARK                            x       y       z     vdW  Elec       q    Type
REMARK                         _______ _______ _______ _____ _____    ______ ____
ROOT
ATOM      1  C   LIG    1       -4.733  -0.524   1.060  0.00  0.00    +0.130 C 
ATOM      2  C   LIG    1       -5.221   0.823   1.641  0.00  0.00    +0.011 C 
ATOM      3  C   LIG    1       -6.771   0.935   1.633  0.00  0.00    +0.007 C 
ATOM      4  C   LIG    1       -7.338   1.771   0.469  0.00  0.00    +0.088 C 
ATOM      5  N   LIG    1       -6.628   3.009   0.179  0.00  0.00    -0.293 NA
ATOM      6  C   LIG    1       -5.457   3.279   1.032  0.00  0.00    +0.104 C 
ATOM      7  C   LIG    1       -4.792   4.530   0.545  0.00  0.00    +0.038 C 
ATOM      8  C   LIG    1       -5.393   5.510  -0.222  0.00  0.00    -0.016 C 
ATOM      9  C   LIG    1       -4.447   6.547  -0.430  0.00  0.00    +0.003 C 
ATOM     10  C   LIG    1       -3.278   6.168   0.236  0.00  0.00    +0.047 C 
ATOM     11  C   LIG    1       -2.124   6.960   0.241  0.00  0.00    +0.026 C 
ATOM     12  C   LIG    1       -2.167   8.173  -0.455  0.00  0.00    +0.002 C 
ATOM     13  C   LIG    1       -3.319   8.576  -1.126  0.00  0.00    +0.001 C 
ATOM     14  C   LIG    1       -4.465   7.773  -1.122  0.00  0.00    +0.010 C 
ATOM     15  C   LIG    1       -6.793   5.357  -0.709  0.00  0.00    +0.053 C 
ATOM     16  N   LIG    1       -3.518   4.944   0.828  0.00  0.00    -0.356 NA
ATOM     17  H   LIG    1       -2.841   4.437   1.380  0.00  0.00    +0.166 HD
ATOM     18  C   LIG    1       -7.505   4.183   0.011  0.00  0.00    +0.090 C 
ATOM     19  C   LIG    1       -7.477  -0.432   1.676  0.00  0.00    +0.007 C 
ATOM     20  C   LIG    1       -6.673  -1.438   2.480  0.00  0.00    +0.032 C 
ATOM     21  C   LIG    1       -4.553   2.045   0.973  0.00  0.00    +0.029 C 
ATOM     22  C   LIG    1       -5.324  -1.734   1.817  0.00  0.00    +0.129 C 
ENDROOT
BRANCH   1  23
ATOM     23  C   LIG    1       -3.219  -0.627   1.042  0.00  0.00    +0.313 C 
ATOM     24  O   LIG    1       -2.487  -0.163   1.907  0.00  0.00    -0.250 OA
BRANCH  23  26
ATOM     25  C   LIG    1       -1.392  -1.496  -0.135  0.00  0.00    +0.280 C 
ATOM     26  O   LIG    1       -2.807  -1.316  -0.059  0.00  0.00    -0.468 OA
ENDBRANCH  23  26
ENDBRANCH   1  23
BRANCH  22  27
ATOM     27  O   LIG    1       -4.463  -2.252   2.829  0.00  0.00    -0.391 OA
ATOM     28  H   LIG    1       -4.114  -1.513   3.361  0.00  0.00    +0.210 HD
ENDBRANCH  22  27
TORSDOF 3
