REMARK  Name = *****
REMARK                            x       y       z     vdW  Elec       q    Type
REMARK                         _______ _______ _______ _____ _____    ______ ____
ROOT
ATOM      1  C   LIG    1        3.239  -0.993  -1.174  0.00  0.00    +0.180 C 
ATOM      2  O   LIG    1        3.552  -2.190  -1.064  0.00  0.00    -0.290 OA
ENDROOT
BRANCH   1   3
ATOM      3  C   LIG    1        3.277  -0.371  -2.545  0.00  0.00    +0.020 A 
ATOM      4  C   LIG    1        3.011   0.983  -2.781  0.00  0.00    +0.031 A 
ATOM      5  C   LIG    1        3.058   1.493  -4.083  0.00  0.00    +0.042 A 
ATOM      6 CL   LIG    1        2.737   3.164  -4.348  0.00  0.00    -0.084 Cl
ATOM      7  C   LIG    1        3.370   0.673  -5.163  0.00  0.00    +0.020 A 
ATOM      8  C   LIG    1        3.625  -0.678  -4.944  0.00  0.00    +0.002 A 
ATOM      9  C   LIG    1        3.570  -1.197  -3.646  0.00  0.00    +0.011 A 
ENDBRANCH   1   3
BRANCH   1  11
ATOM     10  C   LIG    1        3.983  -0.171   1.054  0.00  0.00    +0.032 C 
ATOM     11  C   LIG    1        2.811  -0.174   0.059  0.00  0.00    +0.123 C 
BRANCH  11  12
ATOM     12  N   LIG    1        1.649  -0.775   0.749  0.00  0.00    -0.302 NA
ATOM     13  H   LIG    1        1.867  -1.755   0.947  0.00  0.00    +0.123 HD
BRANCH  12  14
ATOM     14  C   LIG    1        0.304  -0.662   0.155  0.00  0.00    +0.011 C 
ATOM     15  C   LIG    1       -0.667  -1.349   1.141  0.00  0.00    +0.027 C 
ATOM     16  C   LIG    1        0.160  -1.380  -1.194  0.00  0.00    +0.027 C 
ATOM     17  C   LIG    1       -0.146   0.800   0.005  0.00  0.00    +0.027 C 
ENDBRANCH  12  14
ENDBRANCH  11  12
ENDBRANCH   1  11
TORSDOF 4
