REMARK  Name = *****
REMARK                            x       y       z     vdW  Elec       q    Type
REMARK                         _______ _______ _______ _____ _____    ______ ____
ROOT
ATOM      1  C   LIG    1        6.652  -1.969  -3.977  0.00  0.00    +0.097 C 
ENDROOT
BRANCH   1   2
ATOM      2  N   LIG    1        6.109  -1.113  -2.903  0.00  0.00    -0.302 NA
ATOM      3  H   LIG    1        6.419  -1.491  -2.010  0.00  0.00    +0.123 HD
BRANCH   2   4
ATOM      4  C   LIG    1        4.620  -1.074  -2.920  0.00  0.00    +0.173 C 
BRANCH   4   5
ATOM      5  C   LIG    1        4.109  -0.516  -4.261  0.00  0.00    +0.325 C 
ATOM      6  O   LIG    1        3.895  -1.202  -5.247  0.00  0.00    -0.249 OA
BRANCH   5   7
ATOM      7  O   LIG    1        4.008   0.846  -4.217  0.00  0.00    -0.464 OA
BRANCH   7   9
ATOM      8  C   LIG    1        4.923   1.631  -6.295  0.00  0.00    +0.048 C 
ATOM      9  C   LIG    1        3.672   1.482  -5.453  0.00  0.00    +0.229 C 
ENDBRANCH   7   9
ENDBRANCH   5   7
ENDBRANCH   4   5
BRANCH   4  10
ATOM     10  C   LIG    1        4.053  -0.195  -1.783  0.00  0.00    +0.095 C 
BRANCH  10  11
ATOM     11  S   LIG    1        4.401  -0.801  -0.100  0.00  0.00    -0.176 S 
ATOM     12  H   LIG    1        5.721  -0.961  -0.252  0.00  0.00    +0.102 HD
ENDBRANCH  10  11
ENDBRANCH   4  10
ENDBRANCH   2   4
ENDBRANCH   1   2
BRANCH   1  13
ATOM     13  C   LIG    1        8.190  -2.009  -3.920  0.00  0.00    +0.097 C 
BRANCH  13  14
ATOM     14  N   LIG    1        8.773  -0.667  -4.059  0.00  0.00    -0.302 NA
ATOM     15  H   LIG    1        8.392  -0.071  -3.318  0.00  0.00    +0.123 HD
BRANCH  14  16
ATOM     16  C   LIG    1       10.260  -0.680  -4.009  0.00  0.00    +0.173 C 
BRANCH  16  17
ATOM     17  C   LIG    1       10.739  -1.208  -2.657  0.00  0.00    +0.325 C 
ATOM     18  O   LIG    1       10.894  -0.517  -1.650  0.00  0.00    -0.249 OA
BRANCH  17  19
ATOM     19  O   LIG    1       10.819  -2.570  -2.684  0.00  0.00    -0.464 OA
BRANCH  19  20
ATOM     20  C   LIG    1       10.786  -3.221  -1.407  0.00  0.00    +0.229 C 
ATOM     21  C   LIG    1       12.155  -3.237  -0.767  0.00  0.00    +0.048 C 
ENDBRANCH  19  20
ENDBRANCH  17  19
ENDBRANCH  16  17
BRANCH  16  22
ATOM     22  C   LIG    1       10.785   0.753  -4.236  0.00  0.00    +0.095 C 
BRANCH  22  23
ATOM     23  S   LIG    1       12.597   0.820  -4.459  0.00  0.00    -0.176 S 
ATOM     24  H   LIG    1       12.920   0.525  -3.188  0.00  0.00    +0.102 HD
ENDBRANCH  22  23
ENDBRANCH  16  22
ENDBRANCH  14  16
ENDBRANCH  13  14
ENDBRANCH   1  13
TORSDOF 15
