REMARK  Name = *****
REMARK                            x       y       z     vdW  Elec       q    Type
REMARK                         _______ _______ _______ _____ _____    ______ ____
ROOT
ATOM      1  C   LIG    1        3.465  -0.363  -1.085  0.00  0.00    +0.162 A 
ATOM      2  C   LIG    1        2.873   0.754  -1.700  0.00  0.00    +0.162 A 
ATOM      3  C   LIG    1        3.607   1.493  -2.620  0.00  0.00    +0.054 A 
ATOM      4  C   LIG    1        4.913   1.136  -2.964  0.00  0.00    -0.023 A 
ATOM      5  C   LIG    1        5.593   1.912  -4.068  0.00  0.00    +0.094 C 
ATOM      6  N   LIG    1        6.595   1.169  -4.827  0.00  0.00    -0.294 NA
ATOM      7  C   LIG    1        7.012  -0.140  -4.339  0.00  0.00    +0.089 C 
ATOM      8  C   LIG    1        6.890  -0.354  -2.821  0.00  0.00    +0.051 C 
ATOM      9  C   LIG    1        7.587   1.964  -5.532  0.00  0.00    +0.096 C 
ATOM     10  C   LIG    1        6.953   3.237  -6.118  0.00  0.00    +0.070 C 
ATOM     11  C   LIG    1        6.564   4.042  -4.884  0.00  0.00    +0.139 C 
ATOM     12  O   LIG    1        6.710   5.294  -4.852  0.00  0.00    -0.297 OA
ATOM     13  C   LIG    1        6.086   3.295  -3.650  0.00  0.00    +0.098 C 
ATOM     14  C   LIG    1        5.507   0.023  -2.364  0.00  0.00    -0.038 A 
ATOM     15  C   LIG    1        4.790  -0.712  -1.406  0.00  0.00    +0.053 A 
ENDROOT
BRANCH   1  17
ATOM     16  C   LIG    1        1.426  -1.232  -0.242  0.00  0.00    +0.277 C 
ATOM     17  O   LIG    1        2.852  -1.183  -0.161  0.00  0.00    -0.491 OA
ENDBRANCH   1  17
BRANCH   2  18
ATOM     18  O   LIG    1        1.584   1.069  -1.382  0.00  0.00    -0.491 OA
ATOM     19  C   LIG    1        0.960   2.160  -2.031  0.00  0.00    +0.277 C 
ENDBRANCH   2  18
BRANCH  10  20
ATOM     20  C   LIG    1        5.782   3.047  -7.137  0.00  0.00    +0.015 C 
BRANCH  20  21
ATOM     21  C   LIG    1        6.103   2.304  -8.466  0.00  0.00    -0.016 C 
ATOM     22  C   LIG    1        4.916   2.377  -9.448  0.00  0.00    +0.007 C 
ATOM     23  C   LIG    1        6.436   0.814  -8.338  0.00  0.00    +0.007 C 
ENDBRANCH  20  21
ENDBRANCH  10  20
TORSDOF 4
