REMARK  Name = *****
REMARK                            x       y       z     vdW  Elec       q    Type
REMARK                         _______ _______ _______ _____ _____    ______ ____
ROOT
ATOM      1  C   LIG    1        4.324  -0.081  -0.030  0.00  0.00    +0.278 C 
ENDROOT
BRANCH   1   3
ATOM      2  O   LIG    1        0.950  -0.081  -0.030  0.00  0.00    -0.257 OA
ATOM      3  P   LIG    1        2.494  -0.081  -0.030  0.00  0.00    +0.353 P 
BRANCH   3   4
ATOM      4  O   LIG    1        2.507  -0.636   1.521  0.00  0.00    -0.323 OA
ATOM      5  H   LIG    1        1.578  -0.657   1.831  0.00  0.00    +0.220 HD
ENDBRANCH   3   4
BRANCH   3   6
ATOM      6  O   LIG    1        2.518   1.514   0.345  0.00  0.00    -0.323 OA
ATOM      7  H   LIG    1        1.583   1.792   0.450  0.00  0.00    +0.220 HD
ENDBRANCH   3   6
ENDBRANCH   1   3
BRANCH   1   8
ATOM      8  P   LIG    1        5.341   0.980  -1.043  0.00  0.00    +0.353 P 
ATOM      9  O   LIG    1        5.732   2.314  -0.519  0.00  0.00    -0.257 OA
BRANCH   8  10
ATOM     10  O   LIG    1        4.638   1.118  -2.482  0.00  0.00    -0.323 OA
ATOM     11  H   LIG    1        5.022   1.862  -2.988  0.00  0.00    +0.220 HD
ENDBRANCH   8  10
BRANCH   8  12
ATOM     12  O   LIG    1        6.676   0.185  -1.485  0.00  0.00    -0.323 OA
ATOM     13  H   LIG    1        7.388   0.781  -1.780  0.00  0.00    +0.220 HD
ENDBRANCH   8  12
ENDBRANCH   1   8
BRANCH   1  14
ATOM     14  S   LIG    1        4.925  -1.847  -0.179  0.00  0.00    -0.098 S 
BRANCH  14  15
ATOM     15  C   LIG    1        4.288  -2.481  -1.722  0.00  0.00    +0.009 A 
ATOM     16  C   LIG    1        3.151  -3.297  -1.670  0.00  0.00    +0.016 A 
ATOM     17  C   LIG    1        2.684  -3.957  -2.813  0.00  0.00    +0.021 A 
ATOM     18  C   LIG    1        3.379  -3.844  -4.013  0.00  0.00    +0.041 A 
ATOM     19 CL   LIG    1        2.800  -4.655  -5.415  0.00  0.00    -0.084 Cl
ATOM     20  C   LIG    1        4.547  -3.087  -4.072  0.00  0.00    +0.021 A 
ATOM     21  C   LIG    1        4.998  -2.403  -2.929  0.00  0.00    +0.016 A 
ENDBRANCH  14  15
ENDBRANCH   1  14
TORSDOF 8
