REMARK  Name = *****
REMARK                            x       y       z     vdW  Elec       q    Type
REMARK                         _______ _______ _______ _____ _____    ______ ____
ROOT
ATOM      1  C   LIG    1        6.183 -12.511  -4.353  0.00  0.00    +0.045 C 
ATOM      2  C   LIG    1        4.728 -12.180  -4.432  0.00  0.00    -0.038 C 
ATOM      3  C   LIG    1        4.161 -10.939  -3.877  0.00  0.00    -0.014 C 
ATOM      4  C   LIG    1        4.881 -10.058  -3.162  0.00  0.00    +0.016 C 
ATOM      5  C   LIG    1        2.731 -10.931  -4.223  0.00  0.00    -0.010 A 
ATOM      6  C   LIG    1        2.491 -12.155  -4.883  0.00  0.00    -0.011 A 
ATOM      7  C   LIG    1        1.218 -12.488  -5.325  0.00  0.00    +0.047 A 
ATOM      8  C   LIG    1        0.198 -11.559  -5.132  0.00  0.00    +0.124 A 
ATOM      9  C   LIG    1        0.433 -10.331  -4.506  0.00  0.00    +0.039 A 
ATOM     10  F   LIG    1       -1.037 -11.846  -5.566  0.00  0.00    -0.205 F 
ATOM     11  C   LIG    1        1.710 -10.011  -4.035  0.00  0.00    +0.012 A 
ATOM     12  C   LIG    1        3.746 -12.918  -4.995  0.00  0.00    -0.025 C 
ENDROOT
BRANCH   4  13
ATOM     13  C   LIG    1        4.455  -8.816  -2.517  0.00  0.00    -0.024 A 
ATOM     14  C   LIG    1        4.114  -8.817  -1.161  0.00  0.00    +0.009 A 
ATOM     15  C   LIG    1        3.837  -7.614  -0.506  0.00  0.00    +0.017 A 
ATOM     16  C   LIG    1        3.903  -6.400  -1.198  0.00  0.00    +0.039 A 
ATOM     17  C   LIG    1        4.216  -6.405  -2.562  0.00  0.00    +0.017 A 
ATOM     18  C   LIG    1        4.496  -7.608  -3.218  0.00  0.00    +0.009 A 
BRANCH  16  19
ATOM     19  S   LIG    1        3.579  -4.833  -0.353  0.00  0.00    +0.051 S 
ATOM     20  C   LIG    1        5.273  -4.191  -0.389  0.00  0.00    +0.127 C 
ATOM     21  O   LIG    1        3.269  -5.188   1.072  0.00  0.00    -0.252 OA
ENDBRANCH  16  19
ENDBRANCH   4  13
BRANCH  12  22
ATOM     22  C   LIG    1        3.846 -14.255  -5.658  0.00  0.00    +0.156 C 
BRANCH  22  23
ATOM     23  C   LIG    1        3.720 -15.449  -4.715  0.00  0.00    +0.309 C 
ATOM     24  O   LIG    1        4.231 -16.535  -4.958  0.00  0.00    -0.251 OA
BRANCH  23  25
ATOM     25  O   LIG    1        2.942 -15.260  -3.622  0.00  0.00    -0.480 OA
ATOM     26  H   LIG    1        2.584 -14.348  -3.516  0.00  0.00    +0.295 HD
ENDBRANCH  23  25
ENDBRANCH  22  23
ENDBRANCH  12  22
TORSDOF 5
