REMARK  Name = *****
REMARK                            x       y       z     vdW  Elec       q    Type
REMARK                         _______ _______ _______ _____ _____    ______ ____
ROOT
ATOM      1  C   LIG    1        6.523  10.021   8.211  0.00  0.00    +0.014 C 
ATOM      2  C   LIG    1        5.408   9.151   7.615  0.00  0.00    +0.056 C 
ATOM      3  C   LIG    1        4.098  10.008   7.574  0.00  0.00    +0.179 C 
ATOM      4  C   LIG    1        3.046   9.671   6.523  0.00  0.00    +0.052 C 
ATOM      5  O   LIG    1        3.489  10.086   8.898  0.00  0.00    -0.461 OA
ATOM      6  C   LIG    1        2.821   8.998   9.384  0.00  0.00    +0.310 C 
ATOM      7  O   LIG    1        2.704   7.925   8.806  0.00  0.00    -0.251 OA
ATOM      8  C   LIG    1        2.260   9.284  10.758  0.00  0.00    +0.152 C 
ATOM      9  C   LIG    1        0.731   9.262  10.788  0.00  0.00    +0.128 C 
ATOM     10  C   LIG    1        0.103  10.460  10.054  0.00  0.00    +0.063 C 
ATOM     11  C   LIG    1       -1.410  10.385   9.743  0.00  0.00    +0.117 C 
ATOM     12  C   LIG    1       -1.712  10.373   8.231  0.00  0.00    +0.034 C 
ATOM     13  C   LIG    1       -1.159   9.133   7.516  0.00  0.00    +0.036 C 
ATOM     14  C   LIG    1       -1.318   9.172   5.983  0.00  0.00    +0.143 C 
ATOM     15  C   LIG    1       -0.974   7.812   5.311  0.00  0.00    +0.145 C 
ATOM     16  C   LIG    1        0.451   7.339   5.654  0.00  0.00    +0.065 C 
ATOM     17  C   LIG    1        0.860   5.922   5.221  0.00  0.00    +0.122 C 
ATOM     18  C   LIG    1        2.173   5.460   5.912  0.00  0.00    +0.096 C 
ATOM     19  C   LIG    1        2.038   4.862   7.334  0.00  0.00    +0.172 C 
ATOM     20  C   LIG    1        3.366   4.855   8.084  0.00  0.00    +0.097 C 
ATOM     21  C   LIG    1        3.194   4.194   9.453  0.00  0.00    +0.136 C 
ATOM     22  C   LIG    1        2.654   2.790   9.268  0.00  0.00    +0.155 C 
ATOM     23  C   LIG    1        1.425   2.711   8.351  0.00  0.00    +0.141 C 
ATOM     24  C   LIG    1       -0.023   2.919   8.861  0.00  0.00    +0.068 C 
ATOM     25  C   LIG    1       -0.991   1.859   8.250  0.00  0.00    +0.147 C 
ATOM     26  C   LIG    1       -0.836   1.775   6.753  0.00  0.00    +0.004 C 
ATOM     27  C   LIG    1       -0.270   0.720   6.140  0.00  0.00    -0.002 C 
ATOM     28  C   LIG    1        0.289   0.855   4.816  0.00  0.00    -0.000 C 
ATOM     29  C   LIG    1        1.377   0.161   4.441  0.00  0.00    +0.000 C 
ATOM     30  C   LIG    1        2.187   0.617   3.334  0.00  0.00    +0.000 C 
ATOM     31  C   LIG    1        3.501   0.348   3.251  0.00  0.00    +0.000 C 
ATOM     32  C   LIG    1        4.362   1.173   2.429  0.00  0.00    +0.000 C 
ATOM     33  C   LIG    1        5.670   1.320   2.694  0.00  0.00    +0.000 C 
ATOM     34  C   LIG    1        6.371   2.504   2.236  0.00  0.00    +0.000 C 
ATOM     35  C   LIG    1        7.374   3.028   2.959  0.00  0.00    +0.000 C 
ATOM     36  C   LIG    1        7.670   4.447   2.884  0.00  0.00    +0.000 C 
ATOM     37  C   LIG    1        8.028   5.104   3.999  0.00  0.00    -0.000 C 
ATOM     38  C   LIG    1        7.867   6.535   4.152  0.00  0.00    -0.004 C 
ATOM     39  C   LIG    1        7.730   7.059   5.381  0.00  0.00    -0.021 C 
ATOM     40  C   LIG    1        7.253   8.446   5.772  0.00  0.00    +0.037 C 
ATOM     41  C   LIG    1        7.407   9.495   4.660  0.00  0.00    +0.014 C 
ATOM     42  O   LIG    1        1.617   3.502   7.162  0.00  0.00    -0.344 OA
ATOM     43  C   LIG    1        5.759   8.443   6.268  0.00  0.00    +0.127 C 
ENDROOT
BRANCH   9  44
ATOM     44  O   LIG    1        0.274   8.012  10.288  0.00  0.00    -0.391 OA
ATOM     45  H   LIG    1       -0.706   8.040  10.357  0.00  0.00    +0.210 HD
ENDBRANCH   9  44
BRANCH  11  46
ATOM     46  O   LIG    1       -2.015   9.261  10.379  0.00  0.00    -0.392 OA
ATOM     47  H   LIG    1       -2.958   9.251  10.129  0.00  0.00    +0.210 HD
ENDBRANCH  11  46
BRANCH  14  48
ATOM     48  O   LIG    1       -0.478  10.197   5.445  0.00  0.00    -0.389 OA
ATOM     49  H   LIG    1       -0.921  11.046   5.612  0.00  0.00    +0.210 HD
ENDBRANCH  14  48
BRANCH  15  50
ATOM     50  O   LIG    1       -1.968   6.868   5.705  0.00  0.00    -0.389 OA
ATOM     51  H   LIG    1       -1.637   5.989   5.420  0.00  0.00    +0.210 HD
ENDBRANCH  15  50
BRANCH  17  52
ATOM     52  O   LIG    1       -0.203   5.002   5.436  0.00  0.00    -0.392 OA
ATOM     53  H   LIG    1       -0.180   4.788   6.395  0.00  0.00    +0.210 HD
ENDBRANCH  17  52
BRANCH  19  54
ATOM     54  O   LIG    1        1.074   5.590   8.070  0.00  0.00    -0.364 OA
ATOM     55  H   LIG    1        1.509   6.379   8.463  0.00  0.00    +0.213 HD
ENDBRANCH  19  54
BRANCH  21  56
ATOM     56  O   LIG    1        4.491   4.104  10.062  0.00  0.00    -0.391 OA
ATOM     57  H   LIG    1        4.791   5.022  10.206  0.00  0.00    +0.210 HD
ENDBRANCH  21  56
BRANCH  22  58
ATOM     58  C   LIG    1        2.518   2.047  10.579  0.00  0.00    +0.313 C 
ATOM     59  O   LIG    1        1.511   2.001  11.278  0.00  0.00    -0.251 OA
BRANCH  58  60
ATOM     60  O   LIG    1        3.644   1.387  10.937  0.00  0.00    -0.480 OA
ATOM     61  H   LIG    1        4.416   1.647  10.393  0.00  0.00    +0.295 HD
ENDBRANCH  58  60
ENDBRANCH  22  58
BRANCH  43  62
ATOM     62  O   LIG    1        5.267   7.097   6.419  0.00  0.00    -0.391 OA
ATOM     63  H   LIG    1        5.370   6.646   5.562  0.00  0.00    +0.210 HD
ENDBRANCH  43  62
BRANCH  25  64
ATOM     64  O   LIG    1       -2.326   2.195   8.635  0.00  0.00    -0.341 OA
BRANCH  64  65
ATOM     65  C   LIG    1       -3.348   1.289   8.209  0.00  0.00    +0.281 C 
ATOM     66  C   LIG    1       -3.216  -0.171   8.713  0.00  0.00    +0.189 C 
ATOM     67  C   LIG    1       -3.343  -0.228  10.249  0.00  0.00    +0.116 C 
ATOM     68  C   LIG    1       -4.688   0.405  10.647  0.00  0.00    +0.162 C 
ATOM     69  C   LIG    1       -4.964   1.774   9.988  0.00  0.00    +0.148 C 
ATOM     70  C   LIG    1       -4.391   2.968  10.744  0.00  0.00    +0.040 C 
ATOM     71  O   LIG    1       -4.647   1.798   8.586  0.00  0.00    -0.343 OA
BRANCH  67  72
ATOM     72  N   LIG    1       -2.196   0.348  10.973  0.00  0.00    -0.323 NA
ATOM     73  H   LIG    1       -1.336  -0.103  10.652  0.00  0.00    +0.119 HD
ATOM     74  H   LIG    1       -2.070   1.327  10.696  0.00  0.00    +0.119 HD
ENDBRANCH  67  72
BRANCH  66  75
ATOM     75  O   LIG    1       -2.033  -0.852   8.280  0.00  0.00    -0.385 OA
ATOM     76  H   LIG    1       -2.062  -1.748   8.660  0.00  0.00    +0.210 HD
ENDBRANCH  66  75
BRANCH  68  77
ATOM     77  O   LIG    1       -5.727  -0.518  10.250  0.00  0.00    -0.388 OA
ATOM     78  H   LIG    1       -6.054  -0.241   9.375  0.00  0.00    +0.210 HD
ENDBRANCH  68  77
ENDBRANCH  64  65
ENDBRANCH  25  64
TORSDOF 15
