REMARK  Name = *****
REMARK                            x       y       z     vdW  Elec       q    Type
REMARK                         _______ _______ _______ _____ _____    ______ ____
ROOT
ATOM      1  C   LIG    1        6.753  -3.018   3.322  0.00  0.00    -0.013 A 
ATOM      2  C   LIG    1        7.036  -2.579   4.625  0.00  0.00    +0.096 A 
ATOM      3  C   LIG    1        7.599  -3.475   5.549  0.00  0.00    +0.318 A 
ATOM      4  C   LIG    1        7.872  -4.793   5.208  0.00  0.00    +0.237 A 
ATOM      5  C   LIG    1        7.587  -5.219   3.912  0.00  0.00    +0.166 A 
ATOM      6  C   LIG    1        7.033  -4.350   2.969  0.00  0.00    +0.057 A 
ENDROOT
BRANCH   3   7
ATOM      7  N   LIG    1        7.904  -3.010   6.886  0.00  0.00    +0.084 N 
ATOM      8  O   LIG    1        6.943  -2.584   7.557  0.00  0.00    -0.576 OA
ATOM      9  O   LIG    1        9.085  -2.991   7.235  0.00  0.00    +0.042 OA
ENDBRANCH   3   7
BRANCH   1  11
ATOM     10  C   LIG    1        4.824  -1.922   2.140  0.00  0.00    +0.114 C 
ATOM     11  C   LIG    1        6.153  -2.099   2.332  0.00  0.00    +0.032 C 
BRANCH  10  13
ATOM     12  N   LIG    1        3.076  -0.381   1.104  0.00  0.00    -0.297 N 
ATOM     13  C   LIG    1        4.379  -0.893   1.132  0.00  0.00    +0.257 C 
ATOM     14  O   LIG    1        5.227  -0.489   0.325  0.00  0.00    -0.269 OA
BRANCH  12  16
ATOM     15  C   LIG    1        1.909  -0.025   3.305  0.00  0.00    +0.024 C 
ATOM     16  C   LIG    1        1.928  -0.737   1.960  0.00  0.00    +0.104 C 
ENDBRANCH  12  16
BRANCH  12  17
ATOM     17  C   LIG    1        2.822   0.713   0.157  0.00  0.00    +0.104 C 
ATOM     18  C   LIG    1        3.194   2.078   0.716  0.00  0.00    +0.024 C 
ENDBRANCH  12  17
ENDBRANCH  10  13
BRANCH  10  19
ATOM     19  C   LIG    1        3.910  -2.642   2.929  0.00  0.00    +0.104 C 
ATOM     20  N   LIG    1        3.162  -3.231   3.576  0.00  0.00    -0.191 NA
ENDBRANCH  10  19
ENDBRANCH   1  11
BRANCH   4  21
ATOM     21  O   LIG    1        8.389  -5.687   6.099  0.00  0.00    -0.499 OA
ATOM     22  H   LIG    1        8.490  -6.527   5.607  0.00  0.00    +0.292 HD
ENDBRANCH   4  21
BRANCH   5  23
ATOM     23  O   LIG    1        7.873  -6.525   3.614  0.00  0.00    -0.503 OA
ATOM     24  H   LIG    1        7.635  -6.698   2.687  0.00  0.00    +0.292 HD
ENDBRANCH   5  23
TORSDOF 8
