REMARK  Name = *****
REMARK                            x       y       z     vdW  Elec       q    Type
REMARK                         _______ _______ _______ _____ _____    ______ ____
ROOT
ATOM      1  C   LIG    1       10.500  -0.041   0.536  0.00  0.00    +0.079 A 
ATOM      2  C   LIG    1       10.086  -1.151  -0.230  0.00  0.00    +0.134 A 
ATOM      3  C   LIG    1       11.018  -2.147  -0.556  0.00  0.00    +0.070 A 
ATOM      4  C   LIG    1       12.346  -2.090  -0.112  0.00  0.00    +0.042 A 
ATOM      5  C   LIG    1       12.768  -0.931   0.554  0.00  0.00    +0.039 A 
ATOM      6 BR   LIG    1       14.587  -0.711   1.056  0.00  0.00    -0.048 Br
ATOM      7  C   LIG    1       11.856   0.069   0.897  0.00  0.00    +0.033 A 
ENDROOT
BRANCH   1  10
ATOM      8  N   LIG    1        8.419   1.244   0.331  0.00  0.00    -0.310 N 
ATOM      9  H   LIG    1        8.202   0.608  -0.431  0.00  0.00    +0.149 HD
ATOM     10  C   LIG    1        9.582   1.030   1.039  0.00  0.00    +0.248 C 
ATOM     11  O   LIG    1        9.884   1.670   2.038  0.00  0.00    -0.270 OA
BRANCH   8  12
ATOM     12  C   LIG    1        7.343   2.094   0.802  0.00  0.00    +0.120 C 
BRANCH  12  13
ATOM     13  C   LIG    1        6.085   1.287   1.214  0.00  0.00    +0.103 C 
BRANCH  13  14
ATOM     14  N   LIG    1        5.430   0.458   0.168  0.00  0.00    -0.301 NA
BRANCH  14  16
ATOM     15  C   LIG    1        3.008   0.620   0.986  0.00  0.00    +0.020 C 
ATOM     16  C   LIG    1        4.247  -0.239   0.720  0.00  0.00    +0.081 C 
ENDBRANCH  14  16
BRANCH  14  17
ATOM     17  C   LIG    1        5.147   1.193  -1.071  0.00  0.00    +0.081 C 
ATOM     18  C   LIG    1        4.679   0.291  -2.211  0.00  0.00    +0.020 C 
ENDBRANCH  14  17
ENDBRANCH  13  14
ENDBRANCH  12  13
ENDBRANCH   8  12
ENDBRANCH   1  10
BRANCH   4  19
ATOM     19  N   LIG    1       13.240  -3.088  -0.537  0.00  0.00    -0.357 N 
ATOM     20  H   LIG    1       12.814  -4.006  -0.635  0.00  0.00    +0.142 HD
ATOM     21  H   LIG    1       14.085  -3.120   0.029  0.00  0.00    +0.142 HD
ENDBRANCH   4  19
BRANCH   2  22
ATOM     22  O   LIG    1        8.771  -1.204  -0.622  0.00  0.00    -0.494 OA
ATOM     23  C   LIG    1        8.346  -2.349  -1.354  0.00  0.00    +0.277 C 
ENDBRANCH   2  22
TORSDOF 8
