REMARK  Name = *****
REMARK                            x       y       z     vdW  Elec       q    Type
REMARK                         _______ _______ _______ _____ _____    ______ ____
ROOT
ATOM      1  C   LIG    1        3.154  -3.062   2.174  0.00  0.00    +0.095 C 
ENDROOT
BRANCH   1   2
ATOM      2  C   LIG    1        2.088  -2.126   2.823  0.00  0.00    +0.033 C 
ATOM      3  C   LIG    1        0.625  -2.260   2.289  0.00  0.00    +0.018 C 
ATOM      4  C   LIG    1        0.522  -1.153   1.234  0.00  0.00    +0.015 C 
ATOM      5  C   LIG    1        0.963  -0.052   2.197  0.00  0.00    +0.012 C 
ATOM      6  C   LIG    1       -0.032  -0.303   3.306  0.00  0.00    -0.027 C 
ATOM      7  C   LIG    1       -0.258  -1.618   3.347  0.00  0.00    -0.027 C 
ATOM      8  C   LIG    1        2.342  -0.590   2.629  0.00  0.00    +0.015 C 
ENDBRANCH   1   2
BRANCH   1   9
ATOM      9  C   LIG    1        2.833  -4.561   2.363  0.00  0.00    -0.016 A 
ATOM     10  C   LIG    1        2.139  -5.029   3.494  0.00  0.00    +0.006 A 
ATOM     11  C   LIG    1        1.764  -6.370   3.623  0.00  0.00    +0.000 A 
ATOM     12  C   LIG    1        2.080  -7.282   2.625  0.00  0.00    +0.000 A 
ATOM     13  C   LIG    1        2.804  -6.861   1.515  0.00  0.00    +0.000 A 
ATOM     14  C   LIG    1        3.195  -5.520   1.394  0.00  0.00    +0.006 A 
ENDBRANCH   1   9
BRANCH   1  15
ATOM     15  O   LIG    1        3.169  -2.778   0.759  0.00  0.00    -0.384 OA
ATOM     16  H   LIG    1        2.490  -3.329   0.335  0.00  0.00    +0.211 HD
ENDBRANCH   1  15
BRANCH   1  17
ATOM     17  C   LIG    1        4.589  -2.715   2.671  0.00  0.00    +0.055 C 
BRANCH  17  18
ATOM     18  C   LIG    1        4.860  -2.873   4.181  0.00  0.00    +0.087 C 
BRANCH  18  19
ATOM     19  N   LIG    1        6.210  -2.419   4.577  0.00  0.00    -0.302 NA
ATOM     20  C   LIG    1        6.396  -2.394   6.039  0.00  0.00    +0.084 C 
ATOM     21  C   LIG    1        6.593  -3.773   6.677  0.00  0.00    +0.015 C 
ATOM     22  C   LIG    1        7.710  -4.557   5.994  0.00  0.00    +0.002 C 
ATOM     23  C   LIG    1        7.523  -4.566   4.481  0.00  0.00    +0.015 C 
ATOM     24  C   LIG    1        7.315  -3.150   3.941  0.00  0.00    +0.084 C 
ENDBRANCH  18  19
ENDBRANCH  17  18
ENDBRANCH   1  17
TORSDOF 6
