REMARK  Name = *****
REMARK                            x       y       z     vdW  Elec       q    Type
REMARK                         _______ _______ _______ _____ _____    ______ ____
ROOT
ATOM      1  C   LIG    1       14.142  -4.951  -1.234  0.00  0.00    +0.073 C 
ATOM      2  C   LIG    1       13.206  -5.151  -0.045  0.00  0.00    +0.166 C 
ATOM      3  O   LIG    1       12.339  -4.025   0.071  0.00  0.00    -0.332 OA
ATOM      4  C   LIG    1       11.057  -4.397  -0.444  0.00  0.00    +0.163 C 
ATOM      5  C   LIG    1       11.119  -5.934  -0.604  0.00  0.00    +0.162 C 
ATOM      6  C   LIG    1       10.142  -6.540   0.414  0.00  0.00    +0.039 C 
ATOM      7  C   LIG    1       10.047  -5.445   1.468  0.00  0.00    +0.007 C 
ATOM      8  C   LIG    1        8.989  -5.575   2.573  0.00  0.00    +0.034 C 
ATOM      9  C   LIG    1        9.080  -4.348   3.531  0.00  0.00    +0.149 C 
ATOM     10  C   LIG    1        9.144  -2.994   2.756  0.00  0.00    +0.153 C 
ATOM     11  C   LIG    1       10.165  -2.984   1.598  0.00  0.00    +0.044 C 
ATOM     12  F   LIG    1       10.315  -4.466   4.148  0.00  0.00    -0.238 F 
ATOM     13  C   LIG    1        7.971  -4.421   4.671  0.00  0.00    +0.026 C 
ATOM     14  C   LIG    1        7.644  -5.887   5.004  0.00  0.00    -0.057 C 
ATOM     15  C   LIG    1        6.429  -6.317   5.388  0.00  0.00    +0.046 C 
ATOM     16  C   LIG    1        5.287  -5.387   5.542  0.00  0.00    +0.156 C 
ATOM     17  C   LIG    1        5.495  -3.932   5.207  0.00  0.00    +0.080 C 
ATOM     18  O   LIG    1        4.220  -5.812   5.973  0.00  0.00    -0.293 OA
ATOM     19  C   LIG    1        8.772  -6.858   4.808  0.00  0.00    +0.032 C 
ATOM     20  C   LIG    1        8.488  -3.752   5.968  0.00  0.00    +0.019 C 
ATOM     21  C   LIG    1        6.650  -3.736   4.227  0.00  0.00    +0.022 C 
ATOM     22  C   LIG    1        9.183  -6.908   3.338  0.00  0.00    +0.011 C 
ATOM     23  C   LIG    1        9.934  -4.152   0.623  0.00  0.00    +0.012 C 
ATOM     24  C   LIG    1        8.545  -4.009  -0.053  0.00  0.00    +0.015 C 
ATOM     25  O   LIG    1       12.447  -6.333  -0.251  0.00  0.00    -0.343 OA
ATOM     26  C   LIG    1       14.004  -5.283   1.246  0.00  0.00    +0.073 C 
ENDROOT
BRANCH  10  27
ATOM     27  O   LIG    1        9.484  -1.922   3.638  0.00  0.00    -0.389 OA
ATOM     28  H   LIG    1       10.303  -2.188   4.099  0.00  0.00    +0.210 HD
ENDBRANCH  10  27
BRANCH   4  29
ATOM     29  C   LIG    1       10.829  -3.712  -1.806  0.00  0.00    +0.182 C 
ATOM     30  O   LIG    1       10.216  -4.279  -2.717  0.00  0.00    -0.293 OA
BRANCH  29  31
ATOM     31  C   LIG    1       11.346  -2.302  -1.989  0.00  0.00    +0.186 C 
ATOM     32 CL   LIG    1        9.983  -1.179  -2.122  0.00  0.00    -0.117 Cl
ENDBRANCH  29  31
ENDBRANCH   4  29
TORSDOF 3
