REMARK  Name = *****
REMARK                            x       y       z     vdW  Elec       q    Type
REMARK                         _______ _______ _______ _____ _____    ______ ____
ROOT
ATOM      1  N   LIG    1        8.598   0.751  -2.280  0.00  0.00    -0.324 N 
ENDROOT
BRANCH   1   2
ATOM      2  C   LIG    1        9.633   1.440  -2.928  0.00  0.00    +0.030 A 
ATOM      3  C   LIG    1        9.937   2.772  -2.616  0.00  0.00    +0.023 A 
ATOM      4  C   LIG    1       10.866   3.515  -3.372  0.00  0.00    +0.002 A 
ATOM      5  C   LIG    1       11.538   2.921  -4.437  0.00  0.00    +0.000 A 
ATOM      6  C   LIG    1       11.314   1.584  -4.719  0.00  0.00    +0.002 A 
ATOM      7  C   LIG    1       10.378   0.862  -3.974  0.00  0.00    +0.023 A 
ENDBRANCH   1   2
BRANCH   1   8
ATOM      8  C   LIG    1        7.809  -0.263  -3.038  0.00  0.00    +0.126 C 
BRANCH   8   9
ATOM      9  C   LIG    1        6.478   0.275  -3.660  0.00  0.00    +0.100 C 
BRANCH   9  10
ATOM     10  N   LIG    1        6.341  -0.088  -5.106  0.00  0.00    -0.296 NA
ATOM     11  C   LIG    1        5.226   0.556  -5.803  0.00  0.00    +0.085 C 
ATOM     12  C   LIG    1        5.092  -0.231  -7.105  0.00  0.00    +0.017 C 
ATOM     13  C   LIG    1        5.849  -1.531  -6.874  0.00  0.00    +0.017 C 
ATOM     14  C   LIG    1        6.197  -1.515  -5.396  0.00  0.00    +0.085 C 
ENDBRANCH   9  10
BRANCH   9  15
ATOM     15  C   LIG    1        5.295  -0.189  -2.764  0.00  0.00    +0.180 C 
BRANCH  15  16
ATOM     16  O   LIG    1        5.272  -1.618  -2.619  0.00  0.00    -0.378 OA
BRANCH  16  17
ATOM     17  C   LIG    1        4.142  -2.068  -1.881  0.00  0.00    +0.162 C 
BRANCH  17  19
ATOM     18  C   LIG    1        3.006  -4.065  -0.875  0.00  0.00    +0.009 C 
ATOM     19  C   LIG    1        4.175  -3.597  -1.740  0.00  0.00    +0.009 C 
ATOM     20  C   LIG    1        4.142  -4.309  -3.095  0.00  0.00    +0.009 C 
ENDBRANCH  17  19
ENDBRANCH  16  17
ENDBRANCH  15  16
ENDBRANCH   9  15
ENDBRANCH   8   9
ENDBRANCH   1   8
BRANCH   1  21
ATOM     21  C   LIG    1        8.593   0.679  -0.803  0.00  0.00    +0.140 C 
BRANCH  21  22
ATOM     22  C   LIG    1        9.277  -0.533  -0.172  0.00  0.00    -0.030 A 
ATOM     23  C   LIG    1        9.859  -1.558  -0.940  0.00  0.00    +0.005 A 
ATOM     24  C   LIG    1       10.459  -2.669  -0.353  0.00  0.00    +0.000 A 
ATOM     25  C   LIG    1       10.539  -2.769   1.023  0.00  0.00    +0.000 A 
ATOM     26  C   LIG    1        9.975  -1.767   1.821  0.00  0.00    +0.000 A 
ATOM     27  C   LIG    1        9.336  -0.665   1.226  0.00  0.00    +0.005 A 
ENDBRANCH  21  22
ENDBRANCH   1  21
TORSDOF 10
