REMARK  Name = *****
REMARK                            x       y       z     vdW  Elec       q    Type
REMARK                         _______ _______ _______ _____ _____    ______ ____
ROOT
ATOM      1  C   LIG    1        9.270   6.836   0.002  0.00  0.00    +0.000 C 
ENDROOT
BRANCH   1   2
ATOM      2  C   LIG    1        8.566   5.487   0.199  0.00  0.00    -0.000 C 
BRANCH   2   3
ATOM      3  C   LIG    1        7.044   5.468  -0.070  0.00  0.00    -0.000 C 
BRANCH   3   4
ATOM      4  C   LIG    1        6.404   4.066   0.040  0.00  0.00    -0.000 C 
BRANCH   4   5
ATOM      5  C   LIG    1        4.926   3.881  -0.258  0.00  0.00    -0.000 C 
BRANCH   5   6
ATOM      6  C   LIG    1        4.505   4.249  -1.693  0.00  0.00    -0.000 C 
BRANCH   6   7
ATOM      7  C   LIG    1        5.134   3.438  -2.840  0.00  0.00    -0.000 C 
BRANCH   7   9
ATOM      8  C   LIG    1        3.148   3.699  -4.411  0.00  0.00    +0.004 C 
ATOM      9  C   LIG    1        4.646   3.848  -4.233  0.00  0.00    -0.003 C 
ENDBRANCH   7   9
ENDBRANCH   6   7
ENDBRANCH   5   6
ENDBRANCH   4   5
ENDBRANCH   3   4
ENDBRANCH   2   3
ENDBRANCH   1   2
BRANCH   1  10
ATOM     10  C   LIG    1       10.802   6.839   0.210  0.00  0.00    +0.002 C 
BRANCH  10  11
ATOM     11  C   LIG    1       11.684   6.066  -0.799  0.00  0.00    +0.028 C 
BRANCH  11  12
ATOM     12  C   LIG    1       11.627   4.532  -0.773  0.00  0.00    +0.160 C 
BRANCH  12  13
ATOM     13  O   LIG    1       10.502   4.015  -1.472  0.00  0.00    -0.378 OA
BRANCH  13  14
ATOM     14  C   LIG    1       10.220   2.650  -1.137  0.00  0.00    +0.187 C 
BRANCH  14  15
ATOM     15  C   LIG    1        8.747   2.345  -1.317  0.00  0.00    +0.184 C 
BRANCH  15  16
ATOM     16  O   LIG    1        8.214   2.915  -2.510  0.00  0.00    -0.393 OA
ATOM     17  H   LIG    1        8.897   3.132  -3.094  0.00  0.00    +0.209 HD
ENDBRANCH  15  16
ENDBRANCH  14  15
ENDBRANCH  13  14
ENDBRANCH  12  13
ENDBRANCH  11  12
ENDBRANCH  10  11
ENDBRANCH   1  10
TORSDOF 14
