REMARK  Name = *****
REMARK                            x       y       z     vdW  Elec       q    Type
REMARK                         _______ _______ _______ _____ _____    ______ ____
ROOT
ATOM      1  C   LIG    1        9.746  -2.059  -3.858  0.00  0.00    -0.035 A 
ATOM      2  C   LIG    1       10.446  -2.344  -2.671  0.00  0.00    +0.050 A 
ATOM      3  C   LIG    1       11.838  -2.590  -2.680  0.00  0.00    +0.129 A 
ATOM      4  O   LIG    1       12.408  -2.865  -1.461  0.00  0.00    -0.485 OA
ATOM      5  C   LIG    1       13.710  -3.506  -1.492  0.00  0.00    +0.108 C 
ATOM      6  C   LIG    1       14.650  -2.699  -2.432  0.00  0.00    +0.041 C 
ATOM      7  C   LIG    1       14.091  -2.618  -3.872  0.00  0.00    +0.040 C 
ATOM      8  C   LIG    1       14.574  -3.728  -4.817  0.00  0.00    +0.083 C 
ATOM      9  C   LIG    1       16.049  -4.006  -4.700  0.00  0.00    +0.134 C 
ATOM     10  O   LIG    1       16.743  -4.212  -5.678  0.00  0.00    -0.297 OA
ATOM     11  C   LIG    1       16.578  -4.195  -3.312  0.00  0.00    +0.075 C 
ATOM     12  C   LIG    1       16.155  -3.036  -2.420  0.00  0.00    +0.015 C 
ATOM     13  C   LIG    1       14.214  -3.446  -0.037  0.00  0.00    +0.056 C 
ATOM     14  C   LIG    1       13.499  -4.987  -1.841  0.00  0.00    +0.056 C 
ATOM     15  C   LIG    1       12.578  -2.515  -3.864  0.00  0.00    +0.040 A 
ATOM     16  C   LIG    1       11.872  -2.285  -5.044  0.00  0.00    +0.124 A 
ATOM     17  C   LIG    1       10.492  -2.103  -5.049  0.00  0.00    +0.050 A 
ENDROOT
BRANCH   1  18
ATOM     18  C   LIG    1        8.236  -1.703  -3.944  0.00  0.00    -0.010 C 
ATOM     19  C   LIG    1        7.583  -2.760  -4.868  0.00  0.00    +0.016 C 
ATOM     20  C   LIG    1        7.499  -1.787  -2.586  0.00  0.00    +0.016 C 
BRANCH  18  21
ATOM     21  C   LIG    1        8.063  -0.234  -4.546  0.00  0.00    +0.011 C 
BRANCH  21  22
ATOM     22  C   LIG    1        6.613   0.230  -4.845  0.00  0.00    +0.001 C 
BRANCH  22  23
ATOM     23  C   LIG    1        6.395   1.660  -5.416  0.00  0.00    +0.000 C 
BRANCH  23  24
ATOM     24  C   LIG    1        6.800   2.830  -4.503  0.00  0.00    -0.000 C 
BRANCH  24  26
ATOM     25  C   LIG    1        6.889   5.353  -4.149  0.00  0.00    +0.004 C 
ATOM     26  C   LIG    1        6.489   4.221  -5.097  0.00  0.00    -0.003 C 
ENDBRANCH  24  26
ENDBRANCH  23  24
ENDBRANCH  22  23
ENDBRANCH  21  22
ENDBRANCH  18  21
ENDBRANCH   1  18
BRANCH  16  27
ATOM     27  O   LIG    1       12.547  -2.185  -6.227  0.00  0.00    -0.506 OA
ATOM     28  H   LIG    1       11.970  -1.771  -6.888  0.00  0.00    +0.292 HD
ENDBRANCH  16  27
TORSDOF 7
