REMARK  Name = *****
REMARK                            x       y       z     vdW  Elec       q    Type
REMARK                         _______ _______ _______ _____ _____    ______ ____
ROOT
ATOM      1  C   LIG    1       -0.747   5.823   7.642  0.00  0.00    -0.000 C 
ATOM      2  C   LIG    1       -0.355   7.106   7.803  0.00  0.00    -0.066 C 
ATOM      3  C   LIG    1        0.396   7.890   6.730  0.00  0.00    +0.021 C 
ATOM      4  C   LIG    1        1.121   7.057   5.673  0.00  0.00    +0.009 C 
ATOM      5  C   LIG    1        2.028   8.071   5.011  0.00  0.00    +0.005 C 
ATOM      6  C   LIG    1        2.664   8.847   6.187  0.00  0.00    +0.002 C 
ATOM      7  C   LIG    1        1.505   8.871   7.272  0.00  0.00    -0.022 C 
ATOM      8  C   LIG    1        0.948  10.317   7.307  0.00  0.00    +0.012 C 
ATOM      9  C   LIG    1        1.909   8.463   8.701  0.00  0.00    +0.008 C 
ATOM     10  C   LIG    1        0.742   8.332   9.687  0.00  0.00    +0.005 C 
ATOM     11  C   LIG    1       -0.582   7.908   9.057  0.00  0.00    +0.031 C 
ENDROOT
BRANCH   1  19
ATOM     12  C   LIG    1       -3.602   3.204   9.793  0.00  0.00    +0.015 C 
ATOM     13  C   LIG    1       -2.271   3.011   9.728  0.00  0.00    -0.023 C 
ATOM     14  C   LIG    1       -1.490   2.081  10.644  0.00  0.00    +0.147 C 
ATOM     15  C   LIG    1       -0.581   1.132   9.858  0.00  0.00    +0.067 C 
ATOM     16  C   LIG    1        0.287   1.872   8.845  0.00  0.00    +0.122 C 
ATOM     17  C   LIG    1       -0.553   2.775   7.928  0.00  0.00    +0.067 C 
ATOM     18  C   LIG    1       -1.460   3.698   8.717  0.00  0.00    -0.040 C 
ATOM     19  C   LIG    1       -1.492   5.043   8.601  0.00  0.00    +0.004 C 
BRANCH  14  20
ATOM     20  O   LIG    1       -2.363   1.296  11.458  0.00  0.00    -0.387 OA
ATOM     21  H   LIG    1       -2.905   0.759  10.856  0.00  0.00    +0.210 HD
ENDBRANCH  14  20
BRANCH  16  22
ATOM     22  O   LIG    1        1.302   2.620   9.517  0.00  0.00    -0.391 OA
ATOM     23  H   LIG    1        0.945   3.499   9.739  0.00  0.00    +0.210 HD
ENDBRANCH  16  22
ENDBRANCH   1  19
BRANCH   6  24
ATOM     24  C   LIG    1        4.079   8.285   6.554  0.00  0.00    +0.012 C 
ATOM     25  C   LIG    1        4.782   9.034   7.699  0.00  0.00    +0.012 C 
BRANCH  24  26
ATOM     26  C   LIG    1        4.995   8.401   5.337  0.00  0.00    -0.027 C 
ATOM     27  C   LIG    1        5.513   7.368   4.649  0.00  0.00    -0.027 C 
BRANCH  27  28
ATOM     28  C   LIG    1        6.375   7.543   3.409  0.00  0.00    +0.011 C 
ATOM     29  C   LIG    1        5.603   7.071   2.169  0.00  0.00    +0.012 C 
BRANCH  28  30
ATOM     30  C   LIG    1        7.780   6.892   3.567  0.00  0.00    -0.011 C 
ATOM     31  C   LIG    1        8.726   7.298   2.430  0.00  0.00    +0.008 C 
ATOM     32  C   LIG    1        7.775   5.363   3.679  0.00  0.00    +0.008 C 
ENDBRANCH  28  30
ENDBRANCH  27  28
ENDBRANCH  24  26
ENDBRANCH   6  24
TORSDOF 7
