REMARK  Name = *****
REMARK                            x       y       z     vdW  Elec       q    Type
REMARK                         _______ _______ _______ _____ _____    ______ ____
ROOT
ATOM      1  C   LIG    1        5.451   2.319   7.719  0.00  0.00    +0.210 C 
ATOM      2  C   LIG    1        6.487   3.176   6.832  0.00  0.00    +0.126 C 
ATOM      3  C   LIG    1        6.433   4.617   7.356  0.00  0.00    +0.048 C 
ATOM      4  C   LIG    1        6.152   2.880   5.283  0.00  0.00    +0.158 C 
ATOM      5  C   LIG    1        6.515   3.519   3.904  0.00  0.00    +0.065 C 
ATOM      6  C   LIG    1        7.637   4.531   3.979  0.00  0.00    +0.016 C 
ATOM      7  C   LIG    1        6.552   2.471   2.752  0.00  0.00    +0.066 C 
ATOM      8  N   LIG    1        7.596   1.928   2.196  0.00  0.00    -0.091 NA
ATOM      9  C   LIG    1        5.217   1.759   2.226  0.00  0.00    +0.037 C 
ATOM     10  C   LIG    1        5.246   1.472   0.729  0.00  0.00    +0.014 C 
ATOM     11  C   LIG    1        3.760   1.969   2.672  0.00  0.00    +0.046 C 
ATOM     12  C   LIG    1        2.692   3.000   2.187  0.00  0.00    +0.090 C 
ATOM     13  C   LIG    1        2.372   2.883   0.715  0.00  0.00    +0.044 C 
ATOM     14  C   LIG    1        2.761   4.505   2.720  0.00  0.00    +0.158 C 
ATOM     15  C   LIG    1        2.710   4.392   4.451  0.00  0.00    +0.047 C 
ATOM     16  C   LIG    1        3.499   5.364   5.364  0.00  0.00    +0.013 C 
ATOM     17  C   LIG    1        1.412   3.613   5.257  0.00  0.00    +0.140 C 
ATOM     18  C   LIG    1        1.951   2.799   6.549  0.00  0.00    +0.124 C 
ATOM     19  C   LIG    1        1.324   1.399   6.771  0.00  0.00    +0.022 C 
ATOM     20  C   LIG    1        3.366   2.357   6.585  0.00  0.00    +0.313 C 
ATOM     21  O   LIG    1        3.833   1.373   5.804  0.00  0.00    -0.250 OA
ATOM     22  O   LIG    1        4.114   2.869   7.550  0.00  0.00    -0.458 OA
ENDROOT
BRANCH   1  24
ATOM     23  C   LIG    1        4.706   1.381  10.017  0.00  0.00    +0.007 C 
ATOM     24  C   LIG    1        5.725   2.229   9.241  0.00  0.00    +0.044 C 
ENDBRANCH   1  24
BRANCH  12  25
ATOM     25  O   LIG    1        1.480   2.424   2.718  0.00  0.00    -0.386 OA
ATOM     26  H   LIG    1        0.755   2.955   2.344  0.00  0.00    +0.210 HD
ENDBRANCH  12  25
BRANCH   4  27
ATOM     27  O   LIG    1        6.360   1.459   5.146  0.00  0.00    -0.388 OA
ATOM     28  H   LIG    1        5.461   1.063   5.127  0.00  0.00    +0.210 HD
ENDBRANCH   4  27
BRANCH   2  29
ATOM     29  O   LIG    1        7.819   2.710   7.108  0.00  0.00    -0.383 OA
ATOM     30  H   LIG    1        7.985   1.990   6.469  0.00  0.00    +0.210 HD
ENDBRANCH   2  29
BRANCH  14  31
ATOM     31  O   LIG    1        3.908   5.274   2.057  0.00  0.00    -0.342 OA
BRANCH  31  32
ATOM     32  C   LIG    1        3.940   5.569   0.519  0.00  0.00    +0.281 C 
ATOM     33  C   LIG    1        4.821   6.863   0.065  0.00  0.00    +0.187 C 
ATOM     34  C   LIG    1        6.271   6.634  -0.801  0.00  0.00    +0.092 C 
ATOM     35  C   LIG    1        5.975   5.572  -1.919  0.00  0.00    +0.053 C 
ATOM     36  C   LIG    1        4.683   4.711  -1.723  0.00  0.00    +0.120 C 
ATOM     37  C   LIG    1        4.899   3.334  -2.450  0.00  0.00    +0.038 C 
ATOM     38  O   LIG    1        4.415   4.476  -0.307  0.00  0.00    -0.346 OA
BRANCH  34  39
ATOM     39  N   LIG    1        7.699   6.592  -0.185  0.00  0.00    -0.303 NA
ATOM     40  C   LIG    1        8.051   5.496   0.718  0.00  0.00    +0.105 C 
ATOM     41  C   LIG    1        8.882   7.231  -0.851  0.00  0.00    +0.105 C 
ENDBRANCH  34  39
BRANCH  33  42
ATOM     42  O   LIG    1        3.931   7.549  -0.918  0.00  0.00    -0.385 OA
ATOM     43  H   LIG    1        3.777   8.467  -0.629  0.00  0.00    +0.210 HD
ENDBRANCH  33  42
ENDBRANCH  31  32
ENDBRANCH  14  31
BRANCH  17  44
ATOM     44  O   LIG    1        0.188   4.465   5.424  0.00  0.00    -0.347 OA
BRANCH  44  45
ATOM     45  C   LIG    1       -1.130   3.812   5.707  0.00  0.00    +0.254 C 
ATOM     46  O   LIG    1       -1.454   2.590   5.031  0.00  0.00    -0.346 OA
ATOM     47  C   LIG    1       -1.678   2.708   3.626  0.00  0.00    +0.150 C 
ATOM     48  C   LIG    1       -2.324   1.453   3.023  0.00  0.00    +0.040 C 
ATOM     49  C   LIG    1       -2.360   3.989   3.078  0.00  0.00    +0.175 C 
ATOM     50  C   LIG    1       -3.292   4.670   4.102  0.00  0.00    +0.099 C 
ATOM     51  C   LIG    1       -4.719   3.953   3.925  0.00  0.00    +0.044 C 
ATOM     52  C   LIG    1       -2.478   4.708   5.556  0.00  0.00    +0.098 C 
BRANCH  50  53
ATOM     53  O   LIG    1       -3.484   6.083   3.700  0.00  0.00    -0.374 OA
ATOM     54  C   LIG    1       -4.285   6.346   2.535  0.00  0.00    +0.195 C 
ENDBRANCH  50  53
BRANCH  49  55
ATOM     55  O   LIG    1       -1.383   4.923   2.579  0.00  0.00    -0.386 OA
ATOM     56  H   LIG    1       -1.813   5.804   2.622  0.00  0.00    +0.210 HD
ENDBRANCH  49  55
ENDBRANCH  44  45
ENDBRANCH  17  44
BRANCH   8  57
ATOM     57  O   LIG    1        8.887   2.250   2.581  0.00  0.00    -0.365 OA
BRANCH  57  58
ATOM     58  C   LIG    1        9.838   1.718   1.605  0.00  0.00    +0.426 C 
BRANCH  58  59
ATOM     59  O   LIG    1        9.383   1.256   0.318  0.00  0.00    -0.340 OA
BRANCH  59  60
ATOM     60  C   LIG    1        8.563   0.074   0.312  0.00  0.00    +0.192 C 
BRANCH  60  61
ATOM     61  C   LIG    1        9.161  -1.238   0.869  0.00  0.00    +0.187 C 
BRANCH  61  62
ATOM     62  O   LIG    1        8.197  -2.313   0.932  0.00  0.00    -0.381 OA
ATOM     63  C   LIG    1        8.573  -3.408   1.782  0.00  0.00    +0.194 C 
ENDBRANCH  61  62
ENDBRANCH  60  61
ENDBRANCH  59  60
ENDBRANCH  58  59
ENDBRANCH  57  58
ENDBRANCH   8  57
TORSDOF 18
