REMARK  Name = *****
REMARK                            x       y       z     vdW  Elec       q    Type
REMARK                         _______ _______ _______ _____ _____    ______ ____
ROOT
ATOM      1  C   LIG    1       10.538   0.094  -0.103  0.00  0.00    +0.165 C 
ATOM      2  O   LIG    1        9.542   0.443  -0.727  0.00  0.00    -0.294 OA
ENDROOT
BRANCH   1   3
ATOM      3  C   LIG    1       10.429  -0.909   0.979  0.00  0.00    +0.223 C 
ATOM      4  C   LIG    1        9.530  -0.803   2.190  0.00  0.00    +0.240 C 
ATOM      5  O   LIG    1       10.924  -0.440   2.243  0.00  0.00    -0.350 OA
BRANCH   4   6
ATOM      6  C   LIG    1        8.574   0.294   2.457  0.00  0.00    +0.242 C 
ATOM      7  O   LIG    1        8.269   0.598   3.614  0.00  0.00    -0.273 OA
ATOM      8  N   LIG    1        7.995   0.881   1.383  0.00  0.00    -0.327 N 
ATOM      9  H   LIG    1        8.259   0.664   0.417  0.00  0.00    +0.145 HD
ATOM     10  H   LIG    1        7.353   1.649   1.519  0.00  0.00    +0.145 HD
ENDBRANCH   4   6
ENDBRANCH   1   3
BRANCH   1  11
ATOM     11  C   LIG    1       11.934   0.574  -0.425  0.00  0.00    +0.081 C 
BRANCH  11  12
ATOM     12  C   LIG    1       12.284   0.289  -1.885  0.00  0.00    +0.034 C 
BRANCH  12  14
ATOM     13  C   LIG    1       14.711   0.021  -2.651  0.00  0.00    -0.027 C 
ATOM     14  C   LIG    1       13.677   0.758  -2.211  0.00  0.00    -0.030 C 
BRANCH  13  15
ATOM     15  C   LIG    1       14.725  -1.454  -2.948  0.00  0.00    +0.053 C 
BRANCH  15  18
ATOM     16  C   LIG    1       16.256  -2.709  -6.327  0.00  0.00    +0.035 C 
ATOM     17  C   LIG    1       15.326  -2.399  -5.199  0.00  0.00    -0.034 C 
ATOM     18  C   LIG    1       15.686  -1.787  -4.059  0.00  0.00    -0.027 C 
ENDBRANCH  15  18
ENDBRANCH  13  15
ENDBRANCH  12  14
ENDBRANCH  11  12
ENDBRANCH   1  11
TORSDOF 7
