REMARK  Name = *****
REMARK                            x       y       z     vdW  Elec       q    Type
REMARK                         _______ _______ _______ _____ _____    ______ ____
ROOT
ATOM      1  C   LIG    1        4.885  -2.586  -1.746  0.00  0.00    +0.338 C 
ATOM      2  O   LIG    1        4.706  -3.807  -1.550  0.00  0.00    -0.245 OA
ENDROOT
BRANCH   1   5
ATOM      3  C   LIG    1        8.084  -0.433  -2.341  0.00  0.00    +0.065 C 
ATOM      4  C   LIG    1        6.601  -0.657  -1.977  0.00  0.00    +0.096 C 
ATOM      5  C   LIG    1        6.086  -2.030  -2.428  0.00  0.00    +0.065 C 
ATOM      6  C   LIG    1        6.805  -2.775  -3.317  0.00  0.00    +0.016 C 
ATOM      7  C   LIG    1        6.374  -4.106  -3.883  0.00  0.00    +0.061 C 
ATOM      8  N   LIG    1        8.030  -2.322  -3.760  0.00  0.00    -0.321 N 
ATOM      9  H   LIG    1        8.576  -2.970  -4.323  0.00  0.00    +0.152 HD
ATOM     10  C   LIG    1        8.722  -1.270  -3.182  0.00  0.00    +0.016 C 
ATOM     11  C   LIG    1       10.187  -1.215  -3.554  0.00  0.00    +0.061 C 
BRANCH   4  12
ATOM     12  C   LIG    1        5.724   0.485  -2.522  0.00  0.00    -0.029 A 
ATOM     13  C   LIG    1        5.104   1.387  -1.636  0.00  0.00    +0.088 A 
ATOM     14  C   LIG    1        4.320   2.439  -2.134  0.00  0.00    +0.273 A 
ATOM     15  C   LIG    1        4.156   2.617  -3.513  0.00  0.00    +0.084 A 
ATOM     16  C   LIG    1        4.750   1.714  -4.393  0.00  0.00    +0.007 A 
ATOM     17  C   LIG    1        5.517   0.653  -3.903  0.00  0.00    +0.005 A 
BRANCH  14  18
ATOM     18  N   LIG    1        3.650   3.356  -1.203  0.00  0.00    +0.080 N 
ATOM     19  O   LIG    1        3.732   3.115   0.010  0.00  0.00    -0.576 OA
ATOM     20  O   LIG    1        3.024   4.313  -1.686  0.00  0.00    +0.041 OA
ENDBRANCH  14  18
ENDBRANCH   4  12
BRANCH   3  21
ATOM     21  C   LIG    1        8.716   0.740  -1.654  0.00  0.00    +0.337 C 
ATOM     22  O   LIG    1        8.296   1.226  -0.623  0.00  0.00    -0.245 OA
BRANCH  21  24
ATOM     23  C   LIG    1       10.523   2.283  -1.907  0.00  0.00    +0.280 C 
ATOM     24  O   LIG    1        9.783   1.167  -2.392  0.00  0.00    -0.465 OA
ENDBRANCH  21  24
ENDBRANCH   3  21
ENDBRANCH   1   5
BRANCH   1  25
ATOM     25  O   LIG    1        4.084  -1.585  -1.335  0.00  0.00    -0.454 OA
BRANCH  25  26
ATOM     26  C   LIG    1        2.791  -1.863  -0.713  0.00  0.00    +0.121 C 
ATOM     27  C   LIG    1        2.052  -0.516  -0.552  0.00  0.00    +0.057 C 
ATOM     28  C   LIG    1        3.005  -2.376   0.723  0.00  0.00    +0.057 C 
BRANCH  26  29
ATOM     29  C   LIG    1        1.972  -2.903  -1.557  0.00  0.00    +0.131 C 
BRANCH  29  30
ATOM     30  N   LIG    1        1.754  -2.641  -3.013  0.00  0.00    -0.302 NA
ATOM     31  C   LIG    1        1.045  -3.807  -3.559  0.00  0.00    +0.105 C 
BRANCH  30  32
ATOM     32  C   LIG    1        1.030  -1.380  -3.238  0.00  0.00    +0.085 C 
BRANCH  32  33
ATOM     33  C   LIG    1        0.673  -1.029  -4.686  0.00  0.00    +0.028 C 
BRANCH  33  34
ATOM     34  C   LIG    1       -0.112   0.318  -4.827  0.00  0.00    +0.050 C 
BRANCH  34  35
ATOM     35  C   LIG    1       -1.382   0.381  -3.965  0.00  0.00    -0.040 A 
ATOM     36  C   LIG    1       -2.100  -0.777  -3.617  0.00  0.00    +0.004 A 
ATOM     37  C   LIG    1       -3.173  -0.727  -2.726  0.00  0.00    +0.000 A 
ATOM     38  C   LIG    1       -3.595   0.494  -2.215  0.00  0.00    +0.000 A 
ATOM     39  C   LIG    1       -2.937   1.663  -2.590  0.00  0.00    +0.000 A 
ATOM     40  C   LIG    1       -1.834   1.608  -3.450  0.00  0.00    +0.004 A 
ENDBRANCH  34  35
BRANCH  34  41
ATOM     41  C   LIG    1       -0.397   0.650  -6.298  0.00  0.00    -0.040 A 
ATOM     42  C   LIG    1       -0.619  -0.358  -7.252  0.00  0.00    +0.004 A 
ATOM     43  C   LIG    1       -0.915  -0.053  -8.581  0.00  0.00    +0.000 A 
ATOM     44  C   LIG    1       -1.012   1.272  -8.984  0.00  0.00    +0.000 A 
ATOM     45  C   LIG    1       -0.784   2.291  -8.063  0.00  0.00    +0.000 A 
ATOM     46  C   LIG    1       -0.470   1.986  -6.732  0.00  0.00    +0.004 A 
ENDBRANCH  34  41
ENDBRANCH  33  34
ENDBRANCH  32  33
ENDBRANCH  30  32
ENDBRANCH  29  30
ENDBRANCH  26  29
ENDBRANCH  25  26
ENDBRANCH   1  25
TORSDOF 14
