REMARK  Name = *****
REMARK                            x       y       z     vdW  Elec       q    Type
REMARK                         _______ _______ _______ _____ _____    ______ ____
ROOT
ATOM      1  C   LIG    1        2.266   0.283  -0.559  0.00  0.00    +0.011 C 
ATOM      2  C   LIG    1        3.574   0.281  -0.234  0.00  0.00    -0.036 C 
ATOM      3  C   LIG    1        4.637   1.044  -1.040  0.00  0.00    +0.213 C 
ATOM      4  O   LIG    1        4.019   2.203  -1.714  0.00  0.00    -0.480 OA
ATOM      5  C   LIG    1        4.120   3.208  -0.777  0.00  0.00    +0.167 A 
ATOM      6  C   LIG    1        5.070   2.925   0.180  0.00  0.00    +0.014 A 
ATOM      7  C   LIG    1        5.188   3.660   1.388  0.00  0.00    -0.038 A 
ATOM      8  C   LIG    1        4.382   4.786   1.526  0.00  0.00    +0.008 A 
ATOM      9  C   LIG    1        3.477   5.131   0.496  0.00  0.00    +0.049 A 
ATOM     10  C   LIG    1        6.188   3.163   2.465  0.00  0.00    +0.057 C 
ATOM     11  C   LIG    1        7.039   2.103   1.724  0.00  0.00    +0.093 C 
ATOM     12  N   LIG    1        8.432   1.748   1.377  0.00  0.00    -0.296 NA
ATOM     13  C   LIG    1        8.515   1.860  -0.150  0.00  0.00    +0.086 C 
ATOM     14  C   LIG    1        7.139   1.800  -0.997  0.00  0.00    +0.034 C 
ATOM     15  C   LIG    1        6.136   0.953   1.115  0.00  0.00    +0.096 C 
ATOM     16  C   LIG    1        4.917   0.445   1.895  0.00  0.00    +0.042 C 
ATOM     17  C   LIG    1        3.336   4.332  -0.652  0.00  0.00    +0.159 A 
ATOM     18  C   LIG    1        5.784   1.626  -0.192  0.00  0.00    +0.071 C 
ATOM     19  C   LIG    1        4.061  -0.458   0.992  0.00  0.00    +0.037 C 
ENDROOT
BRANCH  15  20
ATOM     20  O   LIG    1        6.921  -0.240   0.871  0.00  0.00    -0.386 OA
ATOM     21  H   LIG    1        7.813  -0.024   1.222  0.00  0.00    +0.210 HD
ENDBRANCH  15  20
BRANCH  17  22
ATOM     22  O   LIG    1        2.416   4.629  -1.611  0.00  0.00    -0.503 OA
ATOM     23  H   LIG    1        1.960   5.449  -1.366  0.00  0.00    +0.292 HD
ENDBRANCH  17  22
BRANCH  12  24
ATOM     24  C   LIG    1        9.399   2.613   2.060  0.00  0.00    +0.088 C 
BRANCH  24  25
ATOM     25  C   LIG    1       10.802   2.164   1.777  0.00  0.00    +0.003 C 
ATOM     26  C   LIG    1       11.696   2.953   0.851  0.00  0.00    +0.005 C 
ATOM     27  C   LIG    1       11.962   2.955   2.329  0.00  0.00    +0.005 C 
ENDBRANCH  24  25
ENDBRANCH  12  24
TORSDOF 4
