REMARK  Name = *****
REMARK                            x       y       z     vdW  Elec       q    Type
REMARK                         _______ _______ _______ _____ _____    ______ ____
ROOT
ATOM      1  C   LIG    1       -3.418  -2.521  -0.410  0.00  0.00    +0.132 C 
ATOM      2  C   LIG    1       -3.193  -2.091  -1.898  0.00  0.00    +0.014 C 
ATOM      3  C   LIG    1       -3.956  -0.730  -1.999  0.00  0.00    +0.002 C 
ATOM      4  C   LIG    1       -5.392  -0.780  -2.587  0.00  0.00    -0.003 C 
ATOM      5  C   LIG    1       -5.503  -1.682  -3.827  0.00  0.00    -0.000 C 
ATOM      6  C   LIG    1       -5.086  -3.097  -3.422  0.00  0.00    +0.005 C 
ATOM      7  C   LIG    1       -4.746  -1.100  -5.058  0.00  0.00    +0.019 C 
ATOM      8  C   LIG    1       -5.171   0.339  -5.325  0.00  0.00    -0.063 C 
ATOM      9  C   LIG    1       -5.429   0.818  -6.554  0.00  0.00    +0.045 C 
ATOM     10  C   LIG    1       -5.202  -0.007  -7.763  0.00  0.00    +0.156 C 
ATOM     11  O   LIG    1       -5.483   0.448  -8.869  0.00  0.00    -0.293 OA
ATOM     12  C   LIG    1       -4.517  -1.337  -7.586  0.00  0.00    +0.079 C 
ATOM     13  C   LIG    1       -5.245   1.258  -4.129  0.00  0.00    +0.031 C 
ATOM     14  C   LIG    1       -4.969  -1.997  -6.294  0.00  0.00    +0.016 C 
ATOM     15  C   LIG    1       -5.944   0.618  -2.932  0.00  0.00    +0.008 C 
ATOM     16  C   LIG    1       -3.992  -0.155  -0.561  0.00  0.00    +0.008 C 
ATOM     17  C   LIG    1       -3.648  -3.173  -2.931  0.00  0.00    +0.011 C 
ATOM     18  C   LIG    1       -3.408  -1.206   0.377  0.00  0.00    +0.049 C 
ENDROOT
BRANCH   1  20
ATOM     19  C   LIG    1       -5.712  -3.805   0.113  0.00  0.00    +0.007 C 
ATOM     20  C   LIG    1       -4.693  -3.225  -0.150  0.00  0.00    -0.070 C 
ENDBRANCH   1  20
BRANCH   1  21
ATOM     21  O   LIG    1       -2.365  -3.364   0.041  0.00  0.00    -0.376 OA
ATOM     22  H   LIG    1       -2.581  -3.627   0.952  0.00  0.00    +0.211 HD
ENDBRANCH   1  21
BRANCH   2  23
ATOM     23  C   LIG    1       -1.663  -1.884  -2.243  0.00  0.00    +0.007 C 
ATOM     24  C   LIG    1       -0.819  -0.916  -1.428  0.00  0.00    +0.004 C 
ENDBRANCH   2  23
TORSDOF 3
