REMARK  Name = *****
REMARK                            x       y       z     vdW  Elec       q    Type
REMARK                         _______ _______ _______ _____ _____    ______ ____
ROOT
ATOM      1  C   LIG    1       -6.526  -2.566  -6.787  0.00  0.00    +0.239 C 
ATOM      2  N   LIG    1       -7.418  -3.412  -6.148  0.00  0.00    -0.300 N 
ATOM      3  H   LIG    1       -7.305  -3.523  -5.142  0.00  0.00    +0.150 HD
ATOM      4  O   LIG    1       -6.618  -2.322  -7.988  0.00  0.00    -0.273 OA
ENDROOT
BRANCH   2   5
ATOM      5  CA  LIG    1       -8.557  -4.081  -6.854  0.00  0.00    +0.191 C 
ATOM      6  C   LIG    1       -9.943  -3.365  -6.857  0.00  0.00    +0.169 C 
ATOM      7  N   LIG    1       -9.830  -3.259  -8.297  0.00  0.00    -0.249 N 
ATOM      8  CA  LIG    1      -10.600  -2.480  -9.123  0.00  0.00    +0.123 C 
ATOM      9  C   LIG    1      -11.457  -1.570  -8.570  0.00  0.00    -0.021 C 
ATOM     10  C   LIG    1      -11.552  -1.322  -7.067  0.00  0.00    +0.104 C 
ATOM     11  S   LIG    1      -10.030  -1.702  -6.161  0.00  0.00    -0.131 S 
ATOM     12  C   LIG    1       -8.677  -3.986  -8.413  0.00  0.00    +0.244 C 
ATOM     13  O   LIG    1       -8.013  -4.352  -9.334  0.00  0.00    -0.273 OA
BRANCH   8  14
ATOM     14  C   LIG    1      -10.432  -2.727 -10.602  0.00  0.00    +0.351 C 
ATOM     15  O   LIG    1       -9.777  -3.600 -11.138  0.00  0.00    -0.244 OA
BRANCH  14  16
ATOM     16  OXT LIG    1      -11.141  -1.930 -11.414  0.00  0.00    -0.476 OA
ATOM     17  HXT LIG    1      -10.867  -2.285 -12.288  0.00  0.00    +0.295 HD
ENDBRANCH  14  16
ENDBRANCH   8  14
BRANCH   9  18
ATOM     18  C   LIG    1      -12.379  -0.634  -9.335  0.00  0.00    +0.111 C 
BRANCH  18  19
ATOM     19  S   LIG    1      -14.003  -1.423  -9.582  0.00  0.00    -0.080 S 
BRANCH  19  20
ATOM     20  C   LIG    1      -14.784  -0.163 -10.466  0.00  0.00    +0.209 C 
ATOM     21  N   LIG    1      -14.711   0.008 -11.817  0.00  0.00    -0.223 NA
ATOM     22  C   LIG    1      -14.103  -0.804 -12.830  0.00  0.00    +0.177 C 
ATOM     23  N   LIG    1      -15.352   1.140 -12.158  0.00  0.00    -0.043 NA
ATOM     24  N   LIG    1      -15.842   1.617 -11.021  0.00  0.00    -0.022 NA
ATOM     25  N   LIG    1      -15.499   0.814  -9.957  0.00  0.00    -0.102 NA
ENDBRANCH  19  20
ENDBRANCH  18  19
ENDBRANCH   9  18
ENDBRANCH   2   5
BRANCH   1  26
ATOM     26  CA  LIG    1       -5.393  -1.976  -5.891  0.00  0.00    +0.190 C 
BRANCH  26  27
ATOM     27  C   LIG    1       -4.384  -1.190  -6.728  0.00  0.00    -0.018 C 
ATOM     28  C   LIG    1       -3.055  -1.623  -6.860  0.00  0.00    +0.009 C 
ATOM     29  C   LIG    1       -2.176  -0.963  -7.726  0.00  0.00    +0.045 C 
ATOM     30  C   LIG    1       -2.625   0.114  -8.480  0.00  0.00    +0.117 C 
ATOM     31  C   LIG    1       -3.920   0.592  -8.334  0.00  0.00    +0.045 C 
ATOM     32  C   LIG    1       -4.789  -0.049  -7.450  0.00  0.00    +0.009 C 
BRANCH  30  33
ATOM     33  O   LIG    1       -1.764   0.676  -9.377  0.00  0.00    -0.507 OA
ATOM     34  H   LIG    1       -2.278   1.258  -9.962  0.00  0.00    +0.292 HD
ENDBRANCH  30  33
ENDBRANCH  26  27
BRANCH  26  36
ATOM     35  C   LIG    1       -6.395  -1.558  -3.630  0.00  0.00    +0.250 C 
ATOM     36  N   LIG    1       -5.965  -1.119  -4.852  0.00  0.00    -0.296 N 
ATOM     37  H   LIG    1       -6.204  -0.167  -5.125  0.00  0.00    +0.150 HD
ATOM     38  O   LIG    1       -6.303  -2.734  -3.286  0.00  0.00    -0.270 OA
BRANCH  35  44
ATOM     39  C   LIG    1       -8.220   2.496   0.152  0.00  0.00    +0.063 C 
ATOM     40  C   LIG    1       -7.896   1.500  -0.926  0.00  0.00    +0.017 C 
ATOM     41  N   LIG    1       -7.607   0.207  -0.542  0.00  0.00    -0.364 NA
ATOM     42  H   LIG    1       -7.548   0.003   0.453  0.00  0.00    +0.165 HD
ATOM     43  C   LIG    1       -7.153  -0.738  -1.433  0.00  0.00    +0.099 C 
ATOM     44  C   LIG    1       -6.995  -0.511  -2.749  0.00  0.00    +0.099 C 
ATOM     45  C   LIG    1       -7.420   0.839  -3.230  0.00  0.00    +0.194 C 
ATOM     46  O   LIG    1       -7.380   1.143  -4.421  0.00  0.00    -0.287 OA
ATOM     47  C   LIG    1       -7.864   1.847  -2.224  0.00  0.00    +0.072 C 
ENDBRANCH  35  44
ENDBRANCH  26  36
ENDBRANCH   1  26
TORSDOF 11
