REMARK  Name = *****
REMARK                            x       y       z     vdW  Elec       q    Type
REMARK                         _______ _______ _______ _____ _____    ______ ____
ROOT
ATOM      1  C   LIG    1        6.526  -0.017  -0.465  0.00  0.00    +0.015 C 
ATOM      2  C   LIG    1        7.292  -1.112  -0.468  0.00  0.00    -0.000 C 
ATOM      3  C   LIG    1        7.031  -2.568  -0.128  0.00  0.00    +0.029 C 
ATOM      4  C   LIG    1        8.359  -2.987   0.568  0.00  0.00    -0.016 C 
ATOM      5  C   LIG    1        9.235  -2.554  -0.647  0.00  0.00    +0.036 C 
ATOM      6  C   LIG    1        8.596  -3.313  -1.838  0.00  0.00    +0.015 C 
ATOM      7  C   LIG    1       10.732  -2.698  -0.525  0.00  0.00    +0.020 C 
ATOM      8  C   LIG    1        8.649  -2.225   1.881  0.00  0.00    +0.012 C 
ATOM      9  C   LIG    1        8.429  -4.488   0.912  0.00  0.00    +0.012 C 
ATOM     10  C   LIG    1        7.088  -3.334  -1.473  0.00  0.00    +0.010 C 
ATOM     11  C   LIG    1        8.749  -1.118  -0.830  0.00  0.00    +0.166 C 
ATOM     12  O   LIG    1        9.384  -0.161  -1.233  0.00  0.00    -0.292 OA
ENDROOT
BRANCH   1  17
ATOM     13  C   LIG    1        0.915  -0.004   0.902  0.00  0.00    +0.044 C 
ATOM     14  C   LIG    1        2.375   0.016   0.561  0.00  0.00    -0.050 A 
ATOM     15  C   LIG    1        3.335  -0.319   1.524  0.00  0.00    +0.004 A 
ATOM     16  C   LIG    1        4.693  -0.328   1.196  0.00  0.00    +0.008 A 
ATOM     17  C   LIG    1        5.109  -0.021  -0.103  0.00  0.00    -0.025 A 
ATOM     18  C   LIG    1        4.153   0.308  -1.067  0.00  0.00    +0.008 A 
ATOM     19  C   LIG    1        2.795   0.319  -0.740  0.00  0.00    +0.004 A 
ENDBRANCH   1  17
TORSDOF 1
