REMARK  Name = *****
REMARK                            x       y       z     vdW  Elec       q    Type
REMARK                         _______ _______ _______ _____ _____    ______ ____
ROOT
ATOM      1  C   LIG    1       -1.110   4.786  -4.575  0.00  0.00    +0.169 C 
ATOM      2  C   LIG    1       -1.165   5.356  -3.082  0.00  0.00    +0.175 C 
ATOM      3  C   LIG    1        0.209   5.376  -2.472  0.00  0.00    +0.169 C 
ATOM      4  C   LIG    1        0.864   6.575  -3.419  0.00  0.00    +0.084 C 
ATOM      5  C   LIG    1        0.567   6.525  -4.968  0.00  0.00    +0.042 C 
ATOM      6  C   LIG    1       -0.838   6.093  -5.348  0.00  0.00    +0.084 C 
ENDROOT
BRANCH   4   7
ATOM      7  N   LIG    1        2.256   7.037  -3.223  0.00  0.00    -0.325 NA
ATOM      8  H   LIG    1        2.806   6.367  -2.686  0.00  0.00    +0.118 HD
ATOM      9  H   LIG    1        2.741   7.150  -4.136  0.00  0.00    +0.118 HD
ENDBRANCH   4   7
BRANCH   6  10
ATOM     10  N   LIG    1       -1.063   6.087  -6.790  0.00  0.00    -0.325 NA
ATOM     11  H   LIG    1       -2.050   5.914  -6.986  0.00  0.00    +0.118 HD
ATOM     12  H   LIG    1       -0.538   5.319  -7.219  0.00  0.00    +0.118 HD
ENDBRANCH   6  10
BRANCH   2  13
ATOM     13  O   LIG    1       -2.169   4.861  -2.221  0.00  0.00    -0.387 OA
ATOM     14  H   LIG    1       -2.088   5.321  -1.360  0.00  0.00    +0.210 HD
ENDBRANCH   2  13
BRANCH   1  15
ATOM     15  O   LIG    1       -0.400   3.574  -4.980  0.00  0.00    -0.342 OA
BRANCH  15  18
ATOM     16  C   LIG    1        3.035   2.891  -3.841  0.00  0.00    +0.138 C 
ATOM     17  O   LIG    1        1.672   2.389  -4.093  0.00  0.00    -0.345 OA
ATOM     18  C   LIG    1        0.945   2.987  -5.230  0.00  0.00    +0.268 C 
ATOM     19  C   LIG    1        1.996   3.426  -6.345  0.00  0.00    +0.107 C 
ATOM     20  C   LIG    1        3.056   4.423  -5.827  0.00  0.00    +0.026 C 
ATOM     21  C   LIG    1        3.103   4.321  -4.322  0.00  0.00    +0.035 C 
BRANCH  19  22
ATOM     22  N   LIG    1        1.603   3.750  -7.720  0.00  0.00    -0.323 NA
ATOM     23  H   LIG    1        1.021   2.990  -8.082  0.00  0.00    +0.119 HD
ATOM     24  H   LIG    1        2.438   3.733  -8.306  0.00  0.00    +0.119 HD
ENDBRANCH  19  22
BRANCH  16  25
ATOM     25  C   LIG    1        3.433   2.780  -2.326  0.00  0.00    +0.079 C 
ATOM     26  C   LIG    1        3.673   1.306  -1.929  0.00  0.00    +0.026 C 
BRANCH  25  28
ATOM     27  C   LIG    1        4.381   3.762  -0.306  0.00  0.00    +0.101 C 
ATOM     28  N   LIG    1        4.465   3.674  -1.768  0.00  0.00    -0.314 NA
ATOM     29  H   LIG    1        5.402   3.375  -2.046  0.00  0.00    +0.122 HD
ENDBRANCH  25  28
ENDBRANCH  16  25
ENDBRANCH  15  18
ENDBRANCH   1  15
BRANCH   3  30
ATOM     30  O   LIG    1        0.694   4.037  -2.505  0.00  0.00    -0.341 OA
BRANCH  30  31
ATOM     31  C   LIG    1        0.313   2.946  -1.608  0.00  0.00    +0.281 C 
ATOM     32  C   LIG    1       -0.896   1.991  -1.895  0.00  0.00    +0.190 C 
ATOM     33  C   LIG    1       -1.080   0.863  -0.831  0.00  0.00    +0.121 C 
ATOM     34  C   LIG    1       -0.794   1.432   0.609  0.00  0.00    +0.104 C 
ATOM     35  C   LIG    1       -1.792   2.491   1.106  0.00  0.00    +0.045 C 
ATOM     36  C   LIG    1        0.589   2.119   0.581  0.00  0.00    +0.199 C 
ATOM     37  O   LIG    1        0.534   3.288  -0.241  0.00  0.00    -0.346 OA
BRANCH  33  38
ATOM     38  N   LIG    1       -2.427   0.323  -1.169  0.00  0.00    -0.311 NA
ATOM     39  H   LIG    1       -3.016   1.149  -1.352  0.00  0.00    +0.122 HD
ATOM     40  C   LIG    1       -3.114  -0.635  -0.344  0.00  0.00    +0.101 C 
ENDBRANCH  33  38
BRANCH  32  41
ATOM     41  O   LIG    1       -2.192   2.599  -1.911  0.00  0.00    -0.385 OA
ATOM     42  H   LIG    1       -2.058   3.499  -2.240  0.00  0.00    +0.210 HD
ENDBRANCH  32  41
BRANCH  34  43
ATOM     43  O   LIG    1       -0.725   0.365   1.559  0.00  0.00    -0.385 OA
ATOM     44  H   LIG    1       -1.591  -0.076   1.572  0.00  0.00    +0.210 HD
ENDBRANCH  34  43
ENDBRANCH  30  31
ENDBRANCH   3  30
TORSDOF 13
