REMARK  Name = *****
REMARK                            x       y       z     vdW  Elec       q    Type
REMARK                         _______ _______ _______ _____ _____    ______ ____
ROOT
ATOM      1  C   LIG    1        5.832  -4.665  -4.694  0.00  0.00    +0.000 C 
ENDROOT
BRANCH   1   2
ATOM      2  C   LIG    1        4.915  -4.879  -3.461  0.00  0.00    -0.000 C 
BRANCH   2   3
ATOM      3  C   LIG    1        4.460  -3.645  -2.634  0.00  0.00    -0.000 C 
BRANCH   3   4
ATOM      4  C   LIG    1        3.606  -4.061  -1.385  0.00  0.00    -0.000 C 
BRANCH   4   5
ATOM      5  C   LIG    1        3.094  -2.892  -0.487  0.00  0.00    -0.000 C 
BRANCH   5   6
ATOM      6  C   LIG    1        2.215  -3.321   0.721  0.00  0.00    -0.000 C 
BRANCH   6   8
ATOM      7  C   LIG    1        0.835  -1.102   1.002  0.00  0.00    +0.004 C 
ATOM      8  C   LIG    1        1.718  -2.172   1.637  0.00  0.00    -0.003 C 
ENDBRANCH   6   8
ENDBRANCH   5   6
ENDBRANCH   4   5
ENDBRANCH   3   4
ENDBRANCH   2   3
ENDBRANCH   1   2
BRANCH   1   9
ATOM      9  C   LIG    1        7.192  -3.974  -4.465  0.00  0.00    +0.000 C 
BRANCH   9  10
ATOM     10  C   LIG    1        8.076  -4.722  -3.466  0.00  0.00    +0.011 C 
BRANCH  10  11
ATOM     11  C   LIG    1        9.391  -4.037  -3.089  0.00  0.00    +0.120 C 
BRANCH  11  12
ATOM     12  C   LIG    1       10.132  -4.892  -2.071  0.00  0.00    +0.305 C 
ATOM     13  O   LIG    1       11.231  -5.345  -2.246  0.00  0.00    -0.251 OA
BRANCH  12  14
ATOM     14  O   LIG    1        9.434  -5.099  -0.919  0.00  0.00    -0.481 OA
ATOM     15  H   LIG    1        8.554  -4.700  -0.890  0.00  0.00    +0.295 HD
ENDBRANCH  12  14
ENDBRANCH  11  12
ENDBRANCH  10  11
ENDBRANCH   9  10
ENDBRANCH   1   9
TORSDOF 11
