REMARK  Name = *****
REMARK                            x       y       z     vdW  Elec       q    Type
REMARK                         _______ _______ _______ _____ _____    ______ ____
ROOT
ATOM      1  N   LIG    1        6.366  -0.403  -0.463  0.00  0.00    -0.288 N 
ENDROOT
BRANCH   1   6
ATOM      2  C   LIG    1        0.593  -0.663  -0.575  0.00  0.00    +0.044 C 
ATOM      3  C   LIG    1        2.090  -0.585  -0.548  0.00  0.00    -0.050 A 
ATOM      4  C   LIG    1        2.868  -1.702  -0.861  0.00  0.00    +0.005 A 
ATOM      5  C   LIG    1        4.270  -1.633  -0.821  0.00  0.00    +0.024 A 
ATOM      6  C   LIG    1        4.945  -0.454  -0.458  0.00  0.00    +0.035 A 
ATOM      7  C   LIG    1        4.139   0.656  -0.150  0.00  0.00    +0.024 A 
ATOM      8  C   LIG    1        2.739   0.595  -0.189  0.00  0.00    +0.005 A 
ENDBRANCH   1   6
BRANCH   1   9
ATOM      9  C   LIG    1        7.266  -1.447  -0.105  0.00  0.00    +0.038 A 
ATOM     10  C   LIG    1        8.544  -1.563  -0.683  0.00  0.00    +0.069 A 
ATOM     11  C   LIG    1        9.428  -2.574  -0.297  0.00  0.00    +0.119 A 
ATOM     12  C   LIG    1        9.066  -3.518   0.653  0.00  0.00    +0.045 A 
ATOM     13  C   LIG    1        7.803  -3.436   1.231  0.00  0.00    +0.005 A 
ATOM     14  C   LIG    1        6.919  -2.412   0.859  0.00  0.00    +0.024 A 
BRANCH  11  15
ATOM     15  O   LIG    1       10.660  -2.602  -0.885  0.00  0.00    -0.507 OA
ATOM     16  H   LIG    1       11.182  -3.316  -0.482  0.00  0.00    +0.292 HD
ENDBRANCH  11  15
ENDBRANCH   1   9
BRANCH   1  17
ATOM     17  C   LIG    1        6.991   0.938  -0.633  0.00  0.00    +0.238 C 
BRANCH  17  18
ATOM     18  C   LIG    1        6.728   1.496  -2.032  0.00  0.00    +0.299 C 
ATOM     19  N   LIG    1        6.601   0.673  -3.134  0.00  0.00    -0.232 N 
ATOM     20  H   LIG    1        6.185  -0.233  -2.934  0.00  0.00    +0.291 HD
ATOM     21  C   LIG    1        6.030   1.463  -4.197  0.00  0.00    +0.273 C 
ATOM     22  C   LIG    1        6.365   2.880  -3.718  0.00  0.00    +0.333 C 
ATOM     23  N   LIG    1        6.614   2.781  -2.248  0.00  0.00    -0.082 NA
ENDBRANCH  17  18
ENDBRANCH   1  17
TORSDOF 5
