REMARK  Name = *****
REMARK                            x       y       z     vdW  Elec       q    Type
REMARK                         _______ _______ _______ _____ _____    ______ ____
ROOT
ATOM      1  O   LIG    1        3.595   0.203  -1.619  0.00  0.00    -0.459 OA
ENDROOT
BRANCH   1   6
ATOM      2  C   LIG    1       -0.627  -0.538   0.375  0.00  0.00    +0.192 C 
ATOM      3  N   LIG    1        0.704  -0.489   1.127  0.00  0.00    +0.243 N 
ATOM      4  C   LIG    1        1.492   0.823   0.972  0.00  0.00    +0.070 C 
ATOM      5  C   LIG    1        1.635   1.183  -0.514  0.00  0.00    +0.099 C 
ATOM      6  C   LIG    1        2.169   0.046  -1.409  0.00  0.00    +0.187 C 
ATOM      7  C   LIG    1        1.925  -1.382  -0.882  0.00  0.00    +0.099 C 
ATOM      8  C   LIG    1        2.860   0.483   1.579  0.00  0.00    +0.060 C 
ATOM      9  C   LIG    1        3.044  -1.018   1.356  0.00  0.00    +0.060 C 
ATOM     10  C   LIG    1        1.769  -1.487   0.641  0.00  0.00    +0.070 C 
ATOM     11  C   LIG    1        0.331  -0.749   2.603  0.00  0.00    +0.192 C 
ENDBRANCH   1   6
BRANCH   1  12
ATOM     12  C   LIG    1        3.952   1.098  -2.598  0.00  0.00    +0.341 C 
ATOM     13  O   LIG    1        3.148   1.831  -3.178  0.00  0.00    -0.247 OA
BRANCH  12  14
ATOM     14  C   LIG    1        5.472   1.094  -2.858  0.00  0.00    +0.253 C 
BRANCH  14  15
ATOM     15  C   LIG    1        6.271   1.948  -1.887  0.00  0.00    -0.008 A 
ATOM     16  C   LIG    1        7.617   1.636  -1.619  0.00  0.00    +0.007 A 
ATOM     17  C   LIG    1        8.374   2.420  -0.741  0.00  0.00    +0.000 A 
ATOM     18  C   LIG    1        7.805   3.535  -0.133  0.00  0.00    +0.000 A 
ATOM     19  C   LIG    1        6.487   3.880  -0.419  0.00  0.00    +0.000 A 
ATOM     20  C   LIG    1        5.729   3.099  -1.294  0.00  0.00    +0.007 A 
ENDBRANCH  14  15
BRANCH  14  21
ATOM     21  O   LIG    1        5.755   1.549  -4.180  0.00  0.00    -0.376 OA
ATOM     22  H   LIG    1        5.426   2.464  -4.243  0.00  0.00    +0.211 HD
ENDBRANCH  14  21
ENDBRANCH  12  14
ENDBRANCH   1  12
TORSDOF 5
