REMARK  Name = *****
REMARK                            x       y       z     vdW  Elec       q    Type
REMARK                         _______ _______ _______ _____ _____    ______ ____
ROOT
ATOM      1  C   LIG    1        2.568  -1.905   0.110  0.00  0.00    +0.066 C 
ATOM      2  C   LIG    1        1.677  -2.902  -0.642  0.00  0.00    +0.045 C 
ATOM      3  C   LIG    1        0.387  -2.367  -1.217  0.00  0.00    +0.063 C 
ATOM      4  N   LIG    1        1.987  -4.134  -0.943  0.00  0.00    -0.158 NA
ATOM      5  N   LIG    1        3.122  -4.712  -0.403  0.00  0.00    -0.149 NA
ATOM      6  C   LIG    1        4.300  -4.163  -0.575  0.00  0.00    +0.101 C 
ATOM      7  C   LIG    1        4.531  -2.841  -1.178  0.00  0.00    +0.010 A 
ATOM      8  C   LIG    1        5.530  -2.721  -2.147  0.00  0.00    +0.059 A 
ATOM      9  C   LIG    1        5.921  -1.465  -2.600  0.00  0.00    +0.162 A 
ATOM     10  C   LIG    1        5.289  -0.318  -2.087  0.00  0.00    +0.162 A 
ATOM     11  C   LIG    1        4.243  -0.461  -1.151  0.00  0.00    +0.054 A 
ATOM     12  C   LIG    1        3.830  -1.727  -0.712  0.00  0.00    -0.026 A 
ENDROOT
BRANCH   6  13
ATOM     13  C   LIG    1        5.492  -4.896  -0.040  0.00  0.00    +0.006 A 
ATOM     14  C   LIG    1        5.472  -6.292  -0.005  0.00  0.00    +0.059 A 
ATOM     15  C   LIG    1        6.540  -7.034   0.533  0.00  0.00    +0.162 A 
ATOM     16  C   LIG    1        7.663  -6.340   1.019  0.00  0.00    +0.162 A 
ATOM     17  C   LIG    1        7.674  -4.937   0.976  0.00  0.00    +0.050 A 
ATOM     18  C   LIG    1        6.603  -4.215   0.457  0.00  0.00    +0.014 A 
BRANCH  15  19
ATOM     19  O   LIG    1        6.498  -8.404   0.628  0.00  0.00    -0.491 OA
ATOM     20  C   LIG    1        5.333  -9.043   0.100  0.00  0.00    +0.277 C 
ENDBRANCH  15  19
BRANCH  16  21
ATOM     21  O   LIG    1        8.811  -6.812   1.590  0.00  0.00    -0.491 OA
ATOM     22  C   LIG    1        9.159  -8.180   1.492  0.00  0.00    +0.277 C 
ENDBRANCH  16  21
ENDBRANCH   6  13
BRANCH   1  24
ATOM     23  C   LIG    1        3.446  -1.143   2.387  0.00  0.00    +0.005 C 
ATOM     24  C   LIG    1        2.723  -2.235   1.604  0.00  0.00    +0.011 C 
ENDBRANCH   1  24
BRANCH   9  25
ATOM     25  O   LIG    1        6.853  -1.350  -3.596  0.00  0.00    -0.491 OA
ATOM     26  C   LIG    1        7.959  -2.244  -3.529  0.00  0.00    +0.277 C 
ENDBRANCH   9  25
BRANCH  10  27
ATOM     27  O   LIG    1        5.561   0.992  -2.399  0.00  0.00    -0.491 OA
ATOM     28  C   LIG    1        6.609   1.228  -3.332  0.00  0.00    +0.277 C 
ENDBRANCH  10  27
TORSDOF 6
