REMARK  Name = *****
REMARK                            x       y       z     vdW  Elec       q    Type
REMARK                         _______ _______ _______ _____ _____    ______ ____
ROOT
ATOM      1  C   LIG    1        7.852   7.616  -2.853  0.00  0.00    +0.218 C 
ATOM      2  C   LIG    1        6.284   7.364  -2.577  0.00  0.00    +0.188 C 
ATOM      3  C   LIG    1        5.672   6.389  -1.355  0.00  0.00    +0.157 C 
ATOM      4  C   LIG    1        6.840   5.633  -0.595  0.00  0.00    +0.028 C 
ATOM      5  C   LIG    1        7.637   4.613  -1.465  0.00  0.00    +0.012 C 
ATOM      6  C   LIG    1        8.700   3.715  -0.735  0.00  0.00    +0.019 C 
ATOM      7  C   LIG    1        8.165   2.311  -0.418  0.00  0.00    +0.010 C 
ATOM      8  C   LIG    1       10.062   3.640  -1.481  0.00  0.00    +0.140 C 
ATOM      9  C   LIG    1        9.968   3.596  -2.988  0.00  0.00    +0.004 C 
ATOM     10  C   LIG    1       10.409   4.646  -3.699  0.00  0.00    -0.002 C 
ATOM     11  C   LIG    1       10.170   5.028  -5.066  0.00  0.00    -0.004 C 
ATOM     12  C   LIG    1        9.367   4.445  -5.964  0.00  0.00    -0.023 C 
ATOM     13  C   LIG    1        8.967   5.160  -7.230  0.00  0.00    +0.071 C 
ATOM     14  C   LIG    1        8.012   6.388  -7.085  0.00  0.00    +0.177 C 
ATOM     15  C   LIG    1        6.599   6.013  -7.558  0.00  0.00    +0.052 C 
ATOM     16  O   LIG    1        7.934   6.916  -5.724  0.00  0.00    -0.461 OA
ATOM     17  C   LIG    1        8.463   8.125  -5.428  0.00  0.00    +0.311 C 
ATOM     18  O   LIG    1        9.080   8.810  -6.243  0.00  0.00    -0.251 OA
ATOM     19  C   LIG    1        8.207   8.623  -4.000  0.00  0.00    +0.168 C 
ENDROOT
BRANCH   8  20
ATOM     20  O   LIG    1       10.838   2.542  -1.021  0.00  0.00    -0.388 OA
ATOM     21  H   LIG    1       10.406   1.725  -1.316  0.00  0.00    +0.210 HD
ENDBRANCH   8  20
BRANCH   2  22
ATOM     22  O   LIG    1        5.567   7.223  -3.801  0.00  0.00    -0.373 OA
ATOM     23  C   LIG    1        5.544   5.915  -4.333  0.00  0.00    +0.194 C 
ENDBRANCH   2  22
BRANCH   3  24
ATOM     24  O   LIG    1        4.436   5.641  -1.777  0.00  0.00    -0.343 OA
BRANCH  24  25
ATOM     25  C   LIG    1        3.529   5.061  -0.793  0.00  0.00    +0.281 C 
ATOM     26  C   LIG    1        2.099   4.521  -1.242  0.00  0.00    +0.190 C 
ATOM     27  C   LIG    1        1.766   2.937  -0.856  0.00  0.00    +0.121 C 
ATOM     28  C   LIG    1        2.192   2.719   0.624  0.00  0.00    +0.169 C 
ATOM     29  C   LIG    1        3.547   3.383   0.847  0.00  0.00    +0.149 C 
ATOM     30  C   LIG    1        4.594   2.378   1.335  0.00  0.00    +0.040 C 
ATOM     31  O   LIG    1        4.147   3.906  -0.317  0.00  0.00    -0.343 OA
BRANCH  27  32
ATOM     32  N   LIG    1        2.226   1.841  -1.790  0.00  0.00    -0.301 NA
ATOM     33  C   LIG    1        3.554   2.067  -2.333  0.00  0.00    +0.105 C 
ATOM     34  C   LIG    1        2.107   0.422  -1.382  0.00  0.00    +0.105 C 
ENDBRANCH  27  32
BRANCH  26  35
ATOM     35  O   LIG    1        1.152   5.345  -0.509  0.00  0.00    -0.385 OA
ATOM     36  H   LIG    1        0.300   5.312  -0.979  0.00  0.00    +0.210 HD
ENDBRANCH  26  35
BRANCH  28  37
ATOM     37  O   LIG    1        1.160   3.236   1.500  0.00  0.00    -0.344 OA
BRANCH  37  38
ATOM     38  C   LIG    1        1.041   2.810   2.873  0.00  0.00    +0.254 C 
ATOM     39  O   LIG    1        1.776   3.548   3.859  0.00  0.00    -0.344 OA
ATOM     40  C   LIG    1        3.130   3.151   3.978  0.00  0.00    +0.162 C 
ATOM     41  C   LIG    1        3.977   4.180   4.705  0.00  0.00    +0.042 C 
ATOM     42  C   LIG    1        3.414   1.674   4.344  0.00  0.00    +0.236 C 
ATOM     43  C   LIG    1        2.163   0.809   4.075  0.00  0.00    +0.107 C 
ATOM     44  C   LIG    1        1.536   0.655   5.449  0.00  0.00    +0.045 C 
ATOM     45  C   LIG    1        1.139   1.309   3.055  0.00  0.00    +0.099 C 
BRANCH  43  46
ATOM     46  O   LIG    1        2.494  -0.506   3.591  0.00  0.00    -0.385 OA
ATOM     47  H   LIG    1        2.946  -0.393   2.735  0.00  0.00    +0.210 HD
ENDBRANCH  43  46
BRANCH  42  48
ATOM     48  O   LIG    1        4.543   1.129   3.605  0.00  0.00    -0.456 OA
BRANCH  48  49
ATOM     49  C   LIG    1        5.168  -0.018   4.044  0.00  0.00    +0.307 C 
ATOM     50  O   LIG    1        4.910  -0.623   5.027  0.00  0.00    -0.251 OA
BRANCH  49  51
ATOM     51  C   LIG    1        6.221  -0.424   3.010  0.00  0.00    +0.117 C 
ATOM     52  C   LIG    1        7.565   0.095   3.470  0.00  0.00    +0.015 C 
ENDBRANCH  49  51
ENDBRANCH  48  49
ENDBRANCH  42  48
ENDBRANCH  37  38
ENDBRANCH  28  37
ENDBRANCH  24  25
ENDBRANCH   3  24
BRANCH   4  53
ATOM     53  C   LIG    1        6.446   4.892   0.656  0.00  0.00    +0.077 C 
BRANCH  53  54
ATOM     54  C   LIG    1        5.668   5.569   1.693  0.00  0.00    +0.223 C 
ATOM     55  O   LIG    1        5.537   4.990   2.873  0.00  0.00    -0.301 OA
ENDBRANCH  53  54
ENDBRANCH   4  53
BRANCH   1  56
ATOM     56  O   LIG    1        8.438   8.149  -1.619  0.00  0.00    -0.458 OA
BRANCH  56  57
ATOM     57  C   LIG    1        9.796   8.162  -1.505  0.00  0.00    +0.307 C 
ATOM     58  O   LIG    1       10.558   7.494  -2.192  0.00  0.00    -0.251 OA
BRANCH  57  60
ATOM     59  C   LIG    1        9.394  10.363  -0.367  0.00  0.00    +0.015 C 
ATOM     60  C   LIG    1       10.279   9.131  -0.450  0.00  0.00    +0.117 C 
ENDBRANCH  57  60
ENDBRANCH  56  57
ENDBRANCH   1  56
TORSDOF 17
