REMARK  Name = *****
REMARK                            x       y       z     vdW  Elec       q    Type
REMARK                         _______ _______ _______ _____ _____    ______ ____
ROOT
ATOM      1  C   LIG    1       14.822  -2.339  -6.409  0.00  0.00    +0.038 C 
ATOM      2  C   LIG    1       15.262  -0.878  -6.233  0.00  0.00    -0.076 C 
ATOM      3  C   LIG    1       14.870  -0.082  -5.187  0.00  0.00    -0.023 C 
ENDROOT
BRANCH   2   4
ATOM      4  C   LIG    1       15.912  -0.322  -7.513  0.00  0.00    +0.030 C 
BRANCH   4   5
ATOM      5  C   LIG    1       15.542   1.094  -8.011  0.00  0.00    +0.005 C 
BRANCH   5   6
ATOM      6  C   LIG    1       14.151   1.321  -8.673  0.00  0.00    +0.003 C 
BRANCH   6   7
ATOM      7  C   LIG    1       12.887   1.136  -7.815  0.00  0.00    -0.014 C 
ATOM      8  C   LIG    1       12.764  -0.320  -7.441  0.00  0.00    +0.007 C 
BRANCH   7   9
ATOM      9  C   LIG    1       11.501   1.385  -8.401  0.00  0.00    +0.003 C 
BRANCH   9  10
ATOM     10  C   LIG    1       11.129   2.722  -9.003  0.00  0.00    +0.000 C 
BRANCH  10  11
ATOM     11  C   LIG    1       11.865   3.132 -10.300  0.00  0.00    +0.003 C 
BRANCH  11  12
ATOM     12  C   LIG    1       11.309   4.449 -10.905  0.00  0.00    -0.014 C 
ATOM     13  C   LIG    1        9.822   4.250 -11.192  0.00  0.00    +0.007 C 
BRANCH  12  14
ATOM     14  C   LIG    1       12.029   5.033 -12.153  0.00  0.00    +0.003 C 
BRANCH  14  15
ATOM     15  C   LIG    1       11.519   6.419 -12.675  0.00  0.00    +0.000 C 
BRANCH  15  16
ATOM     16  C   LIG    1       11.642   7.697 -11.804  0.00  0.00    +0.003 C 
BRANCH  16  17
ATOM     17  C   LIG    1       10.942   7.751 -10.429  0.00  0.00    -0.017 C 
ATOM     18  C   LIG    1        9.441   7.495 -10.508  0.00  0.00    +0.007 C 
ATOM     19  C   LIG    1       11.142   9.088  -9.710  0.00  0.00    +0.007 C 
ENDBRANCH  16  17
ENDBRANCH  15  16
ENDBRANCH  14  15
ENDBRANCH  12  14
ENDBRANCH  11  12
ENDBRANCH  10  11
ENDBRANCH   9  10
ENDBRANCH   7   9
ENDBRANCH   6   7
ENDBRANCH   5   6
ENDBRANCH   4   5
ENDBRANCH   2   4
BRANCH   3  20
ATOM     20  C   LIG    1       13.829  -0.447  -4.105  0.00  0.00    +0.066 C 
BRANCH  20  21
ATOM     21  C   LIG    1       12.917   0.682  -3.523  0.00  0.00    +0.010 C 
ATOM     22  C   LIG    1       13.560   1.474  -2.417  0.00  0.00    +0.191 C 
ATOM     23  O   LIG    1       14.750   1.352  -2.162  0.00  0.00    -0.287 OA
ATOM     24  C   LIG    1       12.739   2.446  -1.650  0.00  0.00    +0.033 A 
ATOM     25  C   LIG    1       11.394   2.632  -1.925  0.00  0.00    +0.033 A 
ATOM     26  C   LIG    1       10.624   3.574  -1.227  0.00  0.00    +0.012 A 
ATOM     27  C   LIG    1       11.234   4.366  -0.246  0.00  0.00    +0.001 A 
ATOM     28  C   LIG    1       12.580   4.187   0.032  0.00  0.00    +0.001 A 
ATOM     29  C   LIG    1       10.733   1.863  -2.974  0.00  0.00    +0.190 C 
ATOM     30  O   LIG    1        9.566   1.970  -3.158  0.00  0.00    -0.287 OA
ATOM     31  C   LIG    1       13.336   3.228  -0.653  0.00  0.00    +0.012 A 
ATOM     32  C   LIG    1       11.610   0.939  -3.781  0.00  0.00    +0.004 C 
ATOM     33  C   LIG    1       10.757   0.422  -4.885  0.00  0.00    +0.048 C 
ENDBRANCH  20  21
ENDBRANCH   3  20
TORSDOF 14
