REMARK  Name = *****
REMARK                            x       y       z     vdW  Elec       q    Type
REMARK                         _______ _______ _______ _____ _____    ______ ____
ROOT
ATOM      1  C   LIG    1       -4.538  -2.593   0.115  0.00  0.00    +0.186 C 
ATOM      2  O   LIG    1       -3.544  -2.063   1.051  0.00  0.00    -0.459 OA
ATOM      3  C   LIG    1       -3.737  -2.186   2.393  0.00  0.00    +0.328 C 
ATOM      4  O   LIG    1       -4.812  -2.531   2.900  0.00  0.00    -0.249 OA
ATOM      5  C   LIG    1       -2.479  -1.734   3.204  0.00  0.00    +0.185 C 
ATOM      6  N   LIG    1       -2.401  -2.382   4.538  0.00  0.00    -0.281 N 
ATOM      7  C   LIG    1       -1.983  -3.777   4.500  0.00  0.00    +0.109 C 
ATOM      8  C   LIG    1       -0.528  -3.873   4.020  0.00  0.00    +0.019 C 
ATOM      9  C   LIG    1       -0.052  -2.609   3.294  0.00  0.00    +0.004 C 
ATOM     10  C   LIG    1       -2.157  -1.684   5.733  0.00  0.00    +0.288 C 
ATOM     11  O   LIG    1       -1.962  -2.223   6.823  0.00  0.00    -0.267 OA
ATOM     12  C   LIG    1       -1.920  -0.188   5.662  0.00  0.00    +0.276 C 
ATOM     13  O   LIG    1       -0.890   0.204   5.114  0.00  0.00    -0.281 OA
ATOM     14  C   LIG    1       -3.011   0.729   6.247  0.00  0.00    +0.240 C 
ATOM     15  O   LIG    1       -3.694   1.191   5.065  0.00  0.00    -0.339 OA
ATOM     16  C   LIG    1       -4.655   2.244   5.222  0.00  0.00    +0.125 C 
ATOM     17  C   LIG    1       -4.090   3.431   5.996  0.00  0.00    +0.032 C 
ATOM     18  C   LIG    1       -3.368   3.025   7.263  0.00  0.00    +0.011 C 
ATOM     19  C   LIG    1       -6.003   1.691   5.734  0.00  0.00    +0.067 C 
ATOM     20  C   LIG    1       -7.199   1.765   4.747  0.00  0.00    +0.146 C 
ATOM     21  C   LIG    1       -8.224   2.826   5.125  0.00  0.00    -0.044 C 
ATOM     22  C   LIG    1       -7.855   4.255   4.811  0.00  0.00    +0.041 C 
ATOM     23  C   LIG    1       -9.449   2.583   5.641  0.00  0.00    +0.001 C 
ATOM     24  C   LIG    1      -10.036   1.307   5.993  0.00  0.00    +0.000 C 
ATOM     25  C   LIG    1      -11.369   1.155   6.048  0.00  0.00    -0.000 C 
ATOM     26  C   LIG    1      -12.038  -0.096   6.331  0.00  0.00    -0.004 C 
ATOM     27  C   LIG    1      -13.341  -0.268   6.060  0.00  0.00    -0.024 C 
ATOM     28  C   LIG    1      -14.104  -1.552   6.261  0.00  0.00    +0.009 C 
ATOM     29  C   LIG    1      -15.132  -1.329   7.376  0.00  0.00    +0.012 C 
ATOM     30  C   LIG    1      -14.820  -2.027   4.973  0.00  0.00    +0.018 C 
ATOM     31  C   LIG    1      -13.889  -2.656   3.909  0.00  0.00    +0.056 C 
ATOM     32  C   LIG    1      -14.723  -3.550   2.981  0.00  0.00    +0.015 C 
ATOM     33  C   LIG    1      -13.143  -1.620   3.049  0.00  0.00    +0.167 C 
ATOM     34  O   LIG    1      -13.501  -0.439   2.995  0.00  0.00    -0.294 OA
ATOM     35  C   LIG    1      -11.951  -2.139   2.206  0.00  0.00    +0.216 C 
ATOM     36  C   LIG    1      -11.457  -1.129   1.120  0.00  0.00    +0.176 C 
ATOM     37  C   LIG    1      -10.848  -1.842  -0.089  0.00  0.00    -0.045 C 
ATOM     38  C   LIG    1      -11.838  -2.514  -1.020  0.00  0.00    +0.041 C 
ATOM     39  C   LIG    1       -9.535  -1.885  -0.411  0.00  0.00    -0.015 C 
ATOM     40  C   LIG    1       -8.356  -1.257   0.299  0.00  0.00    +0.075 C 
ATOM     41  C   LIG    1       -8.072   0.056  -0.425  0.00  0.00    +0.019 C 
ATOM     42  C   LIG    1       -7.143  -2.247   0.334  0.00  0.00    +0.143 C 
ATOM     43  O   LIG    1       -7.297  -3.444   0.585  0.00  0.00    -0.297 OA
ATOM     44  C   LIG    1       -2.332   1.939   6.950  0.00  0.00    +0.054 C 
ATOM     45  C   LIG    1       -1.565   1.586   8.227  0.00  0.00    +0.013 C 
ATOM     46  C   LIG    1       -1.156  -1.981   2.438  0.00  0.00    +0.034 C 
ATOM     47  C   LIG    1       -5.764  -1.666   0.026  0.00  0.00    +0.119 C 
ENDROOT
BRANCH   1  48
ATOM     48  C   LIG    1       -3.813  -2.707  -1.282  0.00  0.00    +0.027 C 
ATOM     49  C   LIG    1       -2.602  -3.649  -1.173  0.00  0.00    +0.011 C 
BRANCH  48  50
ATOM     50  C   LIG    1       -3.348  -1.323  -1.848  0.00  0.00    +0.010 C 
BRANCH  50  55
ATOM     51  C   LIG    1       -4.690  -0.688  -4.805  0.00  0.00    +0.147 C 
ATOM     52  C   LIG    1       -4.005   0.657  -5.136  0.00  0.00    +0.143 C 
ATOM     53  C   LIG    1       -3.082   1.112  -4.005  0.00  0.00    +0.034 C 
ATOM     54  C   LIG    1       -2.070   0.036  -3.605  0.00  0.00    +0.006 C 
ATOM     55  C   LIG    1       -2.705  -1.330  -3.264  0.00  0.00    -0.008 C 
ATOM     56  C   LIG    1       -3.640  -1.748  -4.418  0.00  0.00    +0.037 C 
BRANCH  51  58
ATOM     57  C   LIG    1       -6.690   0.344  -4.016  0.00  0.00    +0.194 C 
ATOM     58  O   LIG    1       -5.655  -0.593  -3.751  0.00  0.00    -0.377 OA
ENDBRANCH  51  58
BRANCH  52  59
ATOM     59  O   LIG    1       -3.250   0.546  -6.346  0.00  0.00    -0.389 OA
ATOM     60  H   LIG    1       -3.874   0.329  -7.060  0.00  0.00    +0.210 HD
ENDBRANCH  52  59
ENDBRANCH  50  55
ENDBRANCH  48  50
ENDBRANCH   1  48
BRANCH  14  61
ATOM     61  O   LIG    1       -3.918   0.060   7.097  0.00  0.00    -0.358 OA
ATOM     62  H   LIG    1       -3.859   0.422   7.994  0.00  0.00    +0.213 HD
ENDBRANCH  14  61
BRANCH  20  63
ATOM     63  O   LIG    1       -6.811   2.004   3.391  0.00  0.00    -0.375 OA
ATOM     64  C   LIG    1       -6.051   0.946   2.820  0.00  0.00    +0.194 C 
ENDBRANCH  20  63
BRANCH  35  65
ATOM     65  O   LIG    1      -10.905  -2.653   3.041  0.00  0.00    -0.369 OA
ATOM     66  C   LIG    1      -10.199  -1.668   3.781  0.00  0.00    +0.195 C 
ENDBRANCH  35  65
BRANCH  36  67
ATOM     67  O   LIG    1      -12.508  -0.305   0.601  0.00  0.00    -0.385 OA
ATOM     68  H   LIG    1      -12.927   0.132   1.374  0.00  0.00    +0.210 HD
ENDBRANCH  36  67
TORSDOF 9
