REMARK  Name = *****
REMARK                            x       y       z     vdW  Elec       q    Type
REMARK                         _______ _______ _______ _____ _____    ______ ____
ROOT
ATOM      1  C   LIG    1        2.986  -1.047   0.634  0.00  0.00    +0.122 C 
ATOM      2  C   LIG    1        2.612  -2.454   0.389  0.00  0.00    +0.203 C 
ATOM      3  O   LIG    1        1.950  -2.749  -0.604  0.00  0.00    -0.286 OA
ATOM      4  C   LIG    1        3.081  -3.484   1.346  0.00  0.00    +0.049 C 
ATOM      5  C   LIG    1        3.896  -3.111   2.430  0.00  0.00    +0.055 C 
ATOM      6  C   LIG    1        4.336  -4.133   3.296  0.00  0.00    +0.052 C 
ATOM      7  C   LIG    1        3.998  -5.494   3.112  0.00  0.00    +0.067 C 
ATOM      8  C   LIG    1        3.188  -5.797   2.004  0.00  0.00    +0.145 C 
ATOM      9  F   LIG    1        2.815  -7.058   1.745  0.00  0.00    -0.203 F 
ATOM     10  N   LIG    1        4.235  -1.738   2.604  0.00  0.00    -0.343 NA
ATOM     11  C   LIG    1        2.724  -4.815   1.134  0.00  0.00    +0.054 C 
ATOM     12  C   LIG    1        3.779  -0.803   1.688  0.00  0.00    +0.105 C 
ENDROOT
BRANCH   7  13
ATOM     13  N   LIG    1        4.526  -6.443   3.993  0.00  0.00    -0.325 NA
ATOM     14  C   LIG    1        4.170  -6.317   5.423  0.00  0.00    +0.120 C 
ATOM     15  C   LIG    1        3.033  -7.294   5.814  0.00  0.00    +0.100 C 
ATOM     16  N   LIG    1        3.316  -8.702   5.468  0.00  0.00    -0.313 NA
ATOM     17  H   LIG    1        4.158  -8.992   5.967  0.00  0.00    +0.122 HD
ATOM     18  C   LIG    1        3.594  -8.781   4.018  0.00  0.00    +0.100 C 
ATOM     19  C   LIG    1        4.729  -7.840   3.554  0.00  0.00    +0.120 C 
ENDBRANCH   7  13
BRANCH  10  20
ATOM     20  C   LIG    1        5.200  -1.284   3.627  0.00  0.00    +0.087 C 
ATOM     21  C   LIG    1        4.946  -0.051   4.466  0.00  0.00    +0.027 C 
ATOM     22  C   LIG    1        4.927  -1.402   5.106  0.00  0.00    +0.027 C 
ENDBRANCH  10  20
BRANCH   1  24
ATOM     23  O   LIG    1        2.705   1.251   0.087  0.00  0.00    -0.245 OA
ATOM     24  C   LIG    1        2.543   0.074  -0.216  0.00  0.00    +0.342 C 
BRANCH  24  25
ATOM     25  O   LIG    1        1.948  -0.294  -1.371  0.00  0.00    -0.477 OA
ATOM     26  H   LIG    1        1.824  -1.270  -1.466  0.00  0.00    +0.295 HD
ENDBRANCH  24  25
ENDBRANCH   1  24
TORSDOF 4
