REMARK  Name = *****
REMARK                            x       y       z     vdW  Elec       q    Type
REMARK                         _______ _______ _______ _____ _____    ______ ____
ROOT
ATOM      1  C   LIG    1        7.574  -2.589   4.133  0.00  0.00    +0.121 A 
ATOM      2  C   LIG    1        8.703  -1.962   3.608  0.00  0.00    +0.046 A 
ATOM      3  C   LIG    1        9.969  -2.221   4.151  0.00  0.00    +0.007 A 
ATOM      4  C   LIG    1       10.121  -3.101   5.230  0.00  0.00    -0.038 A 
ATOM      5  C   LIG    1        8.983  -3.717   5.760  0.00  0.00    +0.007 A 
ATOM      6  C   LIG    1        7.723  -3.462   5.213  0.00  0.00    +0.046 A 
ENDROOT
BRANCH   1   7
ATOM      7  O   LIG    1        6.289  -2.436   3.695  0.00  0.00    -0.489 OA
BRANCH   7   8
ATOM      8  C   LIG    1        6.077  -1.616   2.541  0.00  0.00    +0.261 C 
BRANCH   8   9
ATOM      9  C   LIG    1        4.578  -1.624   2.177  0.00  0.00    +0.166 C 
BRANCH   9  10
ATOM     10  O   LIG    1        3.763  -1.152   3.263  0.00  0.00    -0.387 OA
ATOM     11  H   LIG    1        4.332  -0.644   3.867  0.00  0.00    +0.210 HD
ENDBRANCH   9  10
BRANCH   9  12
ATOM     12  C   LIG    1        4.129  -3.046   1.790  0.00  0.00    +0.115 C 
BRANCH  12  13
ATOM     13  N   LIG    1        2.745  -3.058   1.291  0.00  0.00    -0.311 NA
ATOM     14  H   LIG    1        2.160  -2.636   2.019  0.00  0.00    +0.122 HD
BRANCH  13  16
ATOM     15  C   LIG    1        0.806  -4.312   0.515  0.00  0.00    +0.024 C 
ATOM     16  C   LIG    1        2.260  -4.411   0.983  0.00  0.00    +0.048 C 
ATOM     17  C   LIG    1        3.097  -5.090  -0.105  0.00  0.00    +0.024 C 
ENDBRANCH  13  16
ENDBRANCH  12  13
ENDBRANCH   9  12
ENDBRANCH   8   9
ENDBRANCH   7   8
ENDBRANCH   1   7
BRANCH   4  18
ATOM     18  C   LIG    1       11.493  -3.401   5.787  0.00  0.00    +0.130 C 
BRANCH  18  19
ATOM     19  C   LIG    1       12.175  -4.555   5.087  0.00  0.00    +0.215 C 
ATOM     20  O   LIG    1       12.866  -4.428   4.072  0.00  0.00    -0.276 OA
ATOM     21  N   LIG    1       11.985  -5.783   5.653  0.00  0.00    -0.329 N 
ATOM     22  H   LIG    1       12.409  -6.584   5.203  0.00  0.00    +0.145 HD
ATOM     23  H   LIG    1       11.403  -5.936   6.468  0.00  0.00    +0.145 HD
ENDBRANCH  18  19
ENDBRANCH   4  18
TORSDOF 9
