REMARK  Name = *****
REMARK                            x       y       z     vdW  Elec       q    Type
REMARK                         _______ _______ _______ _____ _____    ______ ____
ROOT
ATOM      1  C   LIG    1        0.697   2.602   3.916  0.00  0.00    +0.080 A 
ATOM      2  C   LIG    1       -0.619   2.635   3.411  0.00  0.00    +0.132 A 
ATOM      3  C   LIG    1       -1.337   3.843   3.431  0.00  0.00    +0.048 A 
ATOM      4  C   LIG    1       -0.736   5.025   3.865  0.00  0.00    +0.032 A 
ATOM      5  C   LIG    1        0.568   4.995   4.347  0.00  0.00    +0.106 A 
ATOM      6  C   LIG    1        1.278   3.788   4.402  0.00  0.00    +0.045 A 
ENDROOT
BRANCH   1   9
ATOM      7  N   LIG    1        1.347   0.457   2.930  0.00  0.00    -0.310 N 
ATOM      8  H   LIG    1        0.545   0.601   2.331  0.00  0.00    +0.149 HD
ATOM      9  C   LIG    1        1.577   1.386   3.916  0.00  0.00    +0.248 C 
ATOM     10  O   LIG    1        2.487   1.290   4.732  0.00  0.00    -0.270 OA
BRANCH   7  11
ATOM     11  C   LIG    1        2.127  -0.765   2.773  0.00  0.00    +0.123 C 
BRANCH  11  13
ATOM     12  N   LIG    1        0.127  -2.323   2.828  0.00  0.00    -0.298 NA
ATOM     13  C   LIG    1        1.351  -1.925   2.097  0.00  0.00    +0.074 C 
ATOM     14  C   LIG    1        0.849  -1.555   0.701  0.00  0.00    +0.021 C 
ATOM     15  C   LIG    1       -0.329  -2.477   0.470  0.00  0.00    +0.017 C 
ATOM     16  C   LIG    1       -0.860  -2.800   1.855  0.00  0.00    +0.085 C 
BRANCH  12  18
ATOM     17  C   LIG    1       -0.816  -3.617   4.742  0.00  0.00    +0.020 C 
ATOM     18  C   LIG    1        0.406  -3.312   3.880  0.00  0.00    +0.081 C 
ENDBRANCH  12  18
ENDBRANCH  11  13
ENDBRANCH   7  11
ENDBRANCH   1   9
BRANCH   5  19
ATOM     19  S   LIG    1        1.406   6.509   4.725  0.00  0.00    +0.056 S 
ATOM     20  O   LIG    1        0.696   7.600   4.088  0.00  0.00    -0.153 OA
ATOM     21  O   LIG    1        2.819   6.322   4.567  0.00  0.00    -0.153 OA
BRANCH  19  22
ATOM     22  N   LIG    1        1.135   6.693   6.369  0.00  0.00    -0.203 NA
ATOM     23  H   LIG    1        0.610   7.551   6.537  0.00  0.00    +0.144 HD
ATOM     24  H   LIG    1        2.031   6.669   6.861  0.00  0.00    +0.144 HD
ENDBRANCH  19  22
ENDBRANCH   5  19
BRANCH   2  25
ATOM     25  O   LIG    1       -1.168   1.469   2.938  0.00  0.00    -0.494 OA
ATOM     26  C   LIG    1       -2.170   1.618   1.935  0.00  0.00    +0.277 C 
ENDBRANCH   2  25
TORSDOF 7
