REMARK  Name = *****
REMARK                            x       y       z     vdW  Elec       q    Type
REMARK                         _______ _______ _______ _____ _____    ______ ____
ROOT
ATOM      1  C   LIG    1        7.422  -2.390   0.379  0.00  0.00    -0.002 C 
ATOM      2  C   LIG    1        8.994  -2.351   0.286  0.00  0.00    -0.026 C 
ATOM      3  C   LIG    1        9.585  -0.979  -0.089  0.00  0.00    +0.012 C 
ATOM      4  C   LIG    1        9.294  -3.483  -0.724  0.00  0.00    -0.001 C 
ATOM      5  C   LIG    1       10.781  -3.868  -0.879  0.00  0.00    +0.000 C 
ATOM      6  C   LIG    1       11.602  -3.932   0.447  0.00  0.00    +0.003 C 
ATOM      7  C   LIG    1       11.139  -2.939   1.539  0.00  0.00    +0.005 C 
ATOM      8  C   LIG    1       13.184  -3.937   0.207  0.00  0.00    -0.008 C 
ATOM      9  C   LIG    1       13.584  -5.360  -0.260  0.00  0.00    +0.016 C 
ATOM     10  C   LIG    1       13.628  -2.977  -0.893  0.00  0.00    -0.065 C 
ATOM     11  C   LIG    1       15.090  -2.588  -0.994  0.00  0.00    +0.062 C 
ATOM     12  C   LIG    1       15.736  -2.271   0.353  0.00  0.00    +0.119 C 
ATOM     13  C   LIG    1       15.453  -3.372   1.369  0.00  0.00    +0.032 C 
ATOM     14  C   LIG    1       12.786  -2.558  -1.862  0.00  0.00    -0.027 C 
ATOM     15  C   LIG    1       13.950  -3.612   1.530  0.00  0.00    +0.013 C 
ATOM     16  C   LIG    1       11.376  -2.984  -1.999  0.00  0.00    +0.031 C 
ATOM     17  C   LIG    1        8.361  -4.607  -0.272  0.00  0.00    +0.004 C 
ATOM     18  C   LIG    1        9.627  -2.751   1.646  0.00  0.00    +0.007 C 
ATOM     19  C   LIG    1        7.061  -3.877   0.089  0.00  0.00    +0.004 C 
ENDROOT
BRANCH   1  20
ATOM     20  C   LIG    1        6.610  -1.372  -0.517  0.00  0.00    -0.010 C 
ATOM     21  C   LIG    1        5.102  -1.444  -0.205  0.00  0.00    +0.008 C 
BRANCH  20  22
ATOM     22  C   LIG    1        6.860  -1.534  -2.038  0.00  0.00    +0.003 C 
BRANCH  22  23
ATOM     23  C   LIG    1        6.225  -0.469  -2.941  0.00  0.00    +0.000 C 
BRANCH  23  24
ATOM     24  C   LIG    1        6.583  -0.665  -4.428  0.00  0.00    +0.003 C 
BRANCH  24  26
ATOM     25  C   LIG    1        8.295  -0.764  -6.290  0.00  0.00    +0.007 C 
ATOM     26  C   LIG    1        8.074  -0.500  -4.796  0.00  0.00    -0.017 C 
ATOM     27  C   LIG    1        8.603   0.891  -4.448  0.00  0.00    +0.007 C 
ENDBRANCH  24  26
ENDBRANCH  23  24
ENDBRANCH  22  23
ENDBRANCH  20  22
ENDBRANCH   1  20
BRANCH  12  28
ATOM     28  O   LIG    1       15.279  -1.009   0.845  0.00  0.00    -0.392 OA
ATOM     29  H   LIG    1       14.319  -0.959   0.691  0.00  0.00    +0.210 HD
ENDBRANCH  12  28
TORSDOF 6
