REMARK  Name = *****
REMARK                            x       y       z     vdW  Elec       q    Type
REMARK                         _______ _______ _______ _____ _____    ______ ____
ROOT
ATOM      1  P   LIG    1        3.401  -1.806  -0.875  0.00  0.00    +0.216 P 
ATOM      2  O   LIG    1        3.634  -1.475  -2.320  0.00  0.00    -0.290 OA
ENDROOT
BRANCH   1   3
ATOM      3  C   LIG    1        1.991  -2.855  -0.595  0.00  0.00    +0.193 C 
BRANCH   3   4
ATOM      4  C   LIG    1        0.646  -2.332  -1.065  0.00  0.00    +0.226 C 
ATOM      5  N   LIG    1       -0.125  -3.167  -1.841  0.00  0.00    -0.287 N 
ATOM      6  C   LIG    1       -1.526  -2.925  -2.183  0.00  0.00    +0.185 C 
ATOM      7  C   LIG    1       -1.774  -3.807  -3.427  0.00  0.00    +0.039 C 
ATOM      8  C   LIG    1       -0.463  -4.581  -3.690  0.00  0.00    +0.012 C 
ATOM      9  C   LIG    1        0.282  -4.445  -2.365  0.00  0.00    +0.112 C 
ATOM     10  O   LIG    1        0.210  -1.238  -0.689  0.00  0.00    -0.275 OA
BRANCH   8  11
ATOM     11  C   LIG    1        0.314  -3.998  -4.904  0.00  0.00    -0.006 C 
ATOM     12  C   LIG    1        1.731  -4.560  -5.058  0.00  0.00    +0.004 C 
ATOM     13  C   LIG    1        1.813  -5.978  -5.599  0.00  0.00    +0.000 C 
ATOM     14  C   LIG    1        1.121  -6.058  -6.947  0.00  0.00    +0.000 C 
ATOM     15  C   LIG    1       -0.322  -5.577  -6.845  0.00  0.00    +0.000 C 
ATOM     16  C   LIG    1       -0.427  -4.173  -6.246  0.00  0.00    +0.004 C 
ENDBRANCH   8  11
BRANCH   6  17
ATOM     17  C   LIG    1       -2.458  -3.410  -1.046  0.00  0.00    +0.326 C 
ATOM     18  O   LIG    1       -2.765  -4.571  -0.851  0.00  0.00    -0.249 OA
BRANCH  17  19
ATOM     19  O   LIG    1       -2.862  -2.416  -0.214  0.00  0.00    -0.479 OA
ATOM     20  H   LIG    1       -2.457  -1.549  -0.400  0.00  0.00    +0.295 HD
ENDBRANCH  17  19
ENDBRANCH   6  17
ENDBRANCH   3   4
ENDBRANCH   1   3
BRANCH   1  21
ATOM     21  O   LIG    1        4.652  -2.571  -0.157  0.00  0.00    -0.286 OA
BRANCH  21  22
ATOM     22  C   LIG    1        5.207  -3.756  -0.753  0.00  0.00    +0.320 C 
BRANCH  22  23
ATOM     23  C   LIG    1        6.433  -4.307   0.042  0.00  0.00    +0.052 C 
ATOM     24  C   LIG    1        5.973  -5.119   1.260  0.00  0.00    +0.013 C 
ATOM     25  C   LIG    1        7.468  -3.257   0.476  0.00  0.00    +0.013 C 
ENDBRANCH  22  23
BRANCH  22  26
ATOM     26  O   LIG    1        5.605  -3.481  -2.093  0.00  0.00    -0.434 OA
BRANCH  26  27
ATOM     27  C   LIG    1        4.931  -4.226  -3.043  0.00  0.00    +0.309 C 
ATOM     28  O   LIG    1        4.343  -5.271  -2.841  0.00  0.00    -0.251 OA
BRANCH  27  30
ATOM     29  C   LIG    1        6.125  -3.842  -5.221  0.00  0.00    +0.015 C 
ATOM     30  C   LIG    1        4.955  -3.471  -4.361  0.00  0.00    +0.117 C 
ENDBRANCH  27  30
ENDBRANCH  26  27
ENDBRANCH  22  26
ENDBRANCH  21  22
ENDBRANCH   1  21
BRANCH   1  31
ATOM     31  C   LIG    1        3.077  -0.362   0.118  0.00  0.00    +0.098 C 
BRANCH  31  32
ATOM     32  C   LIG    1        4.254   0.371   0.736  0.00  0.00    +0.010 C 
BRANCH  32  33
ATOM     33  C   LIG    1        3.717   1.558   1.548  0.00  0.00    +0.005 C 
BRANCH  33  34
ATOM     34  C   LIG    1        4.820   2.359   2.239  0.00  0.00    +0.035 C 
BRANCH  34  35
ATOM     35  C   LIG    1        4.274   3.524   3.037  0.00  0.00    -0.047 A 
ATOM     36  C   LIG    1        4.117   4.787   2.448  0.00  0.00    +0.003 A 
ATOM     37  C   LIG    1        3.610   5.860   3.186  0.00  0.00    +0.000 A 
ATOM     38  C   LIG    1        3.252   5.685   4.520  0.00  0.00    +0.000 A 
ATOM     39  C   LIG    1        3.403   4.436   5.119  0.00  0.00    +0.000 A 
ATOM     40  C   LIG    1        3.908   3.361   4.381  0.00  0.00    +0.003 A 
ENDBRANCH  34  35
ENDBRANCH  33  34
ENDBRANCH  32  33
ENDBRANCH  31  32
ENDBRANCH   1  31
TORSDOF 16
