REMARK  Name = *****
REMARK                            x       y       z     vdW  Elec       q    Type
REMARK                         _______ _______ _______ _____ _____    ______ ____
ROOT
ATOM      1  O   LIG    1        3.081  -1.014  -2.536  0.00  0.00    -0.461 OA
ENDROOT
BRANCH   1   5
ATOM      2  N   LIG    1        2.050  -1.002   1.422  0.00  0.00    +0.247 N 
ATOM      3  C   LIG    1        3.463  -1.084   0.786  0.00  0.00    +0.070 C 
ATOM      4  C   LIG    1        3.611  -0.046  -0.334  0.00  0.00    +0.099 C 
ATOM      5  C   LIG    1        2.571  -0.174  -1.463  0.00  0.00    +0.187 C 
ATOM      6  C   LIG    1        1.203  -0.694  -0.969  0.00  0.00    +0.099 C 
ATOM      7  C   LIG    1        3.517  -2.513   0.213  0.00  0.00    +0.060 C 
ATOM      8  C   LIG    1        2.063  -2.904  -0.058  0.00  0.00    +0.060 C 
ATOM      9  C   LIG    1        1.250  -1.645   0.248  0.00  0.00    +0.070 C 
ATOM     10  C   LIG    1        1.988  -1.915   2.685  0.00  0.00    +0.193 C 
BRANCH   2  12
ATOM     11  C   LIG    1        0.142   0.411   2.378  0.00  0.00    +0.063 C 
ATOM     12  C   LIG    1        1.572   0.435   1.828  0.00  0.00    +0.060 C 
ATOM     13  C   LIG    1        2.531   1.096   2.823  0.00  0.00    +0.063 C 
ENDBRANCH   2  12
ENDBRANCH   1   5
BRANCH   1  14
ATOM     14  C   LIG    1        4.091  -0.457  -3.279  0.00  0.00    +0.317 C 
ATOM     15  O   LIG    1        4.574   0.660  -3.051  0.00  0.00    -0.250 OA
BRANCH  14  16
ATOM     16  C   LIG    1        4.598  -1.403  -4.367  0.00  0.00    +0.153 C 
BRANCH  16  17
ATOM     17  C   LIG    1        5.609  -2.402  -3.814  0.00  0.00    -0.032 A 
ATOM     18  C   LIG    1        6.848  -1.988  -3.299  0.00  0.00    +0.004 A 
ATOM     19  C   LIG    1        7.766  -2.924  -2.816  0.00  0.00    +0.000 A 
ATOM     20  C   LIG    1        7.452  -4.281  -2.824  0.00  0.00    +0.000 A 
ATOM     21  C   LIG    1        6.227  -4.707  -3.332  0.00  0.00    +0.000 A 
ATOM     22  C   LIG    1        5.314  -3.775  -3.833  0.00  0.00    +0.004 A 
ENDBRANCH  16  17
BRANCH  16  23
ATOM     23  C   LIG    1        5.192  -0.559  -5.522  0.00  0.00    +0.175 C 
BRANCH  23  24
ATOM     24  O   LIG    1        5.647  -1.374  -6.599  0.00  0.00    -0.394 OA
ATOM     25  H   LIG    1        6.501  -1.765  -6.333  0.00  0.00    +0.209 HD
ENDBRANCH  23  24
ENDBRANCH  16  23
ENDBRANCH  14  16
ENDBRANCH   1  14
TORSDOF 7
