REMARK  Name = *****
REMARK                            x       y       z     vdW  Elec       q    Type
REMARK                         _______ _______ _______ _____ _____    ______ ____
ROOT
ATOM      1  C   LIG    1        3.835  -3.520   0.880  0.00  0.00    +0.122 A 
ATOM      2  C   LIG    1        4.121  -2.263   1.385  0.00  0.00    +0.070 A 
ATOM      3  C   LIG    1        4.409  -2.071   2.756  0.00  0.00    +0.057 A 
ATOM      4  C   LIG    1        4.545  -3.253   3.560  0.00  0.00    +0.092 A 
ATOM      5  C   LIG    1        4.186  -4.490   3.088  0.00  0.00    +0.006 A 
ATOM      6  C   LIG    1        4.169  -5.601   3.970  0.00  0.00    +0.012 A 
ATOM      7  C   LIG    1        4.428  -5.426   5.334  0.00  0.00    +0.020 A 
ATOM      8  C   LIG    1        4.795  -4.187   5.711  0.00  0.00    +0.111 A 
ATOM      9  N   LIG    1        4.990  -3.168   4.841  0.00  0.00    -0.253 NA
ATOM     10  C   LIG    1        3.846  -4.638   1.720  0.00  0.00    +0.055 A 
ENDROOT
BRANCH   1  12
ATOM     11  C   LIG    1        2.942  -2.733  -1.158  0.00  0.00    +0.277 C 
ATOM     12  O   LIG    1        3.563  -3.792  -0.438  0.00  0.00    -0.495 OA
ENDBRANCH   1  12
BRANCH   3  13
ATOM     13  N   LIG    1        4.470  -0.732   3.189  0.00  0.00    -0.340 N 
ATOM     14  H   LIG    1        4.298  -0.056   2.453  0.00  0.00    +0.146 HD
BRANCH  13  15
ATOM     15  C   LIG    1        4.120  -0.212   4.532  0.00  0.00    +0.067 C 
ATOM     16  C   LIG    1        3.317   1.087   4.410  0.00  0.00    +0.027 C 
BRANCH  15  17
ATOM     17  C   LIG    1        3.312  -1.126   5.462  0.00  0.00    +0.023 C 
BRANCH  17  18
ATOM     18  C   LIG    1        2.069  -1.833   4.878  0.00  0.00    +0.017 C 
BRANCH  18  19
ATOM     19  C   LIG    1        0.882  -0.904   4.712  0.00  0.00    +0.078 C 
BRANCH  19  20
ATOM     20  N   LIG    1       -0.295  -1.583   4.199  0.00  0.00    -0.330 NA
ATOM     21  H   LIG    1       -0.994  -0.874   3.982  0.00  0.00    +0.118 HD
ATOM     22  H   LIG    1       -0.682  -2.196   4.907  0.00  0.00    +0.118 HD
ENDBRANCH  19  20
ENDBRANCH  18  19
ENDBRANCH  17  18
ENDBRANCH  15  17
ENDBRANCH  13  15
ENDBRANCH   3  13
TORSDOF 7
