REMARK  Name = *****
REMARK                            x       y       z     vdW  Elec       q    Type
REMARK                         _______ _______ _______ _____ _____    ______ ____
ROOT
ATOM      1  C   LIG    1        4.664  -4.039   1.637  0.00  0.00    +0.000 A 
ATOM      2  C   LIG    1        3.638  -4.987   1.700  0.00  0.00    +0.017 A 
ATOM      3  C   LIG    1        3.661  -6.000   2.674  0.00  0.00    -0.002 A 
ATOM      4  C   LIG    1        2.552  -7.016   2.779  0.00  0.00    +0.265 C 
ATOM      5  O   LIG    1        2.987  -8.292   3.275  0.00  0.00    -0.487 OA
ATOM      6  C   LIG    1        3.734  -8.191   4.425  0.00  0.00    +0.129 A 
ATOM      7  C   LIG    1        4.582  -7.094   4.669  0.00  0.00    +0.025 A 
ATOM      8  C   LIG    1        5.263  -7.041   5.901  0.00  0.00    +0.020 A 
ATOM      9  C   LIG    1        5.144  -8.072   6.849  0.00  0.00    -0.015 A 
ATOM     10  C   LIG    1        4.345  -9.196   6.524  0.00  0.00    +0.013 A 
ATOM     11  C   LIG    1        4.260 -10.271   7.434  0.00  0.00    +0.097 A 
ATOM     12  C   LIG    1        4.930 -10.165   8.642  0.00  0.00    +0.067 A 
ATOM     13  C   LIG    1        5.686  -9.058   9.028  0.00  0.00    +0.028 A 
ATOM     14  N   LIG    1        4.661 -11.344   9.271  0.00  0.00    -0.340 N 
ATOM     15  H   LIG    1        5.007 -11.597  10.179  0.00  0.00    +0.167 HD
ATOM     16  C   LIG    1        3.852 -12.116   8.474  0.00  0.00    +0.129 A 
ATOM     17  N   LIG    1        3.595 -11.482   7.347  0.00  0.00    -0.230 NA
ATOM     18  C   LIG    1        5.791  -8.019   8.097  0.00  0.00    +0.010 A 
ATOM     19  C   LIG    1        3.636  -9.252   5.318  0.00  0.00    +0.057 A 
ATOM     20  C   LIG    1        4.685  -6.055   3.635  0.00  0.00    -0.008 A 
ATOM     21  C   LIG    1        5.738  -5.140   3.530  0.00  0.00    +0.009 A 
ATOM     22  C   LIG    1        5.729  -4.149   2.541  0.00  0.00    +0.010 A 
ENDROOT
BRANCH  16  23
ATOM     23  C   LIG    1        3.316 -13.450   8.899  0.00  0.00    +0.142 C 
ATOM     24  N   LIG    1        4.246 -14.122   9.811  0.00  0.00    -0.287 N 
ATOM     25  C   LIG    1        5.198 -15.066   9.396  0.00  0.00    +0.237 C 
ATOM     26  O   LIG    1        5.723 -15.826  10.215  0.00  0.00    -0.274 OA
ATOM     27  C   LIG    1        3.702 -14.131  11.183  0.00  0.00    +0.074 C 
ATOM     28  C   LIG    1        4.132 -12.907  12.006  0.00  0.00    +0.028 C 
ATOM     29  C   LIG    1        2.191 -14.131  10.952  0.00  0.00    +0.024 C 
ATOM     30  C   LIG    1        2.003 -13.299   9.684  0.00  0.00    +0.032 C 
BRANCH  25  31
ATOM     31  C   LIG    1        5.701 -15.041   7.905  0.00  0.00    +0.165 C 
BRANCH  31  32
ATOM     32  N   LIG    1        6.836 -14.105   7.833  0.00  0.00    -0.270 N 
ATOM     33  H   LIG    1        7.523 -14.098   8.586  0.00  0.00    +0.153 HD
ATOM     34  C   LIG    1        7.170 -13.377   6.730  0.00  0.00    +0.401 C 
ATOM     35  O   LIG    1        8.153 -12.652   6.681  0.00  0.00    -0.227 OA
BRANCH  34  36
ATOM     36  O   LIG    1        6.254 -13.587   5.738  0.00  0.00    -0.454 OA
ATOM     37  C   LIG    1        6.232 -12.660   4.662  0.00  0.00    +0.282 C 
ENDBRANCH  34  36
ENDBRANCH  31  32
BRANCH  31  38
ATOM     38  C   LIG    1        6.087 -16.449   7.340  0.00  0.00    +0.012 C 
ATOM     39  C   LIG    1        6.711 -16.392   5.930  0.00  0.00    +0.009 C 
ATOM     40  C   LIG    1        4.884 -17.396   7.266  0.00  0.00    +0.009 C 
ENDBRANCH  31  38
ENDBRANCH  25  31
ENDBRANCH  16  23
BRANCH   1  44
ATOM     41  C   LIG    1        5.089  -0.981  -0.290  0.00  0.00    +0.128 A 
ATOM     42  N   LIG    1        5.179  -1.713   0.867  0.00  0.00    -0.340 N 
ATOM     43  H   LIG    1        5.605  -1.384   1.722  0.00  0.00    +0.167 HD
ATOM     44  C   LIG    1        4.638  -2.961   0.652  0.00  0.00    +0.066 A 
ATOM     45  C   LIG    1        4.103  -2.864  -0.617  0.00  0.00    +0.139 A 
ATOM     46  N   LIG    1        4.386  -1.648  -1.186  0.00  0.00    -0.238 NA
BRANCH  41  52
ATOM     47  C   LIG    1        7.482   0.227  -2.100  0.00  0.00    +0.034 C 
ATOM     48  C   LIG    1        8.104   0.562  -0.737  0.00  0.00    +0.114 C 
ATOM     49  N   LIG    1        7.022   0.460   0.242  0.00  0.00    -0.289 N 
ATOM     50  C   LIG    1        7.102   0.862   1.575  0.00  0.00    +0.241 C 
ATOM     51  O   LIG    1        6.066   1.079   2.218  0.00  0.00    -0.273 OA
ATOM     52  C   LIG    1        5.711   0.385  -0.442  0.00  0.00    +0.142 C 
ATOM     53  C   LIG    1        6.040   0.716  -1.907  0.00  0.00    +0.037 C 
BRANCH  47  54
ATOM     54  C   LIG    1        7.592  -1.256  -2.494  0.00  0.00    +0.164 C 
BRANCH  54  56
ATOM     55  C   LIG    1        7.038  -2.812  -4.195  0.00  0.00    +0.193 C 
ATOM     56  O   LIG    1        6.985  -1.452  -3.775  0.00  0.00    -0.383 OA
ENDBRANCH  54  56
ENDBRANCH  47  54
BRANCH  50  57
ATOM     57  C   LIG    1        8.507   1.005   2.261  0.00  0.00    +0.193 C 
BRANCH  57  58
ATOM     58  C   LIG    1        9.105   2.403   2.126  0.00  0.00    -0.018 A 
ATOM     59  C   LIG    1        8.326   3.573   2.180  0.00  0.00    +0.006 A 
ATOM     60  C   LIG    1        8.920   4.839   2.102  0.00  0.00    +0.000 A 
ATOM     61  C   LIG    1       10.301   4.960   1.972  0.00  0.00    +0.000 A 
ATOM     62  C   LIG    1       11.089   3.814   1.915  0.00  0.00    +0.000 A 
ATOM     63  C   LIG    1       10.499   2.548   2.003  0.00  0.00    +0.006 A 
ENDBRANCH  57  58
BRANCH  57  64
ATOM     64  N   LIG    1        8.380   0.669   3.709  0.00  0.00    -0.266 N 
ATOM     65  H   LIG    1        7.577   1.053   4.190  0.00  0.00    +0.153 HD
ATOM     66  C   LIG    1        9.202  -0.043   4.524  0.00  0.00    +0.401 C 
ATOM     67  O   LIG    1        9.069  -0.117   5.719  0.00  0.00    -0.227 OA
BRANCH  66  68
ATOM     68  O   LIG    1       10.211  -0.654   3.790  0.00  0.00    -0.454 OA
ATOM     69  C   LIG    1       10.876  -1.725   4.473  0.00  0.00    +0.282 C 
ENDBRANCH  66  68
ENDBRANCH  57  64
ENDBRANCH  50  57
ENDBRANCH  41  52
ENDBRANCH   1  44
TORSDOF 13
