REMARK  Name = *****
REMARK                            x       y       z     vdW  Elec       q    Type
REMARK                         _______ _______ _______ _____ _____    ______ ____
ROOT
ATOM      1  C   LIG    1        3.449   1.121  -0.021  0.00  0.00    +0.162 A 
ATOM      2  C   LIG    1        3.241   2.492   0.176  0.00  0.00    +0.162 A 
ATOM      3  C   LIG    1        4.306   3.379  -0.028  0.00  0.00    +0.054 A 
ATOM      4  C   LIG    1        5.594   2.934  -0.371  0.00  0.00    -0.023 A 
ATOM      5  C   LIG    1        6.735   3.923  -0.604  0.00  0.00    +0.094 C 
ATOM      6  N   LIG    1        8.077   3.329  -0.426  0.00  0.00    -0.294 NA
ATOM      7  C   LIG    1        8.178   2.134  -1.289  0.00  0.00    +0.089 C 
ATOM      8  C   LIG    1        7.158   1.025  -0.962  0.00  0.00    +0.051 C 
ATOM      9  C   LIG    1        8.407   3.014   0.975  0.00  0.00    +0.096 C 
ATOM     10  C   LIG    1        8.120   4.104   2.025  0.00  0.00    +0.070 C 
ATOM     11  C   LIG    1        6.872   4.888   1.656  0.00  0.00    +0.139 C 
ATOM     12  O   LIG    1        6.099   5.356   2.505  0.00  0.00    -0.297 OA
ATOM     13  C   LIG    1        6.686   5.217   0.204  0.00  0.00    +0.098 C 
ATOM     14  C   LIG    1        5.795   1.557  -0.575  0.00  0.00    -0.038 A 
ATOM     15  C   LIG    1        4.728   0.665  -0.374  0.00  0.00    +0.053 A 
ENDROOT
BRANCH   1  17
ATOM     16  C   LIG    1        1.171   0.447  -0.143  0.00  0.00    +0.277 C 
ATOM     17  O   LIG    1        2.526   0.118   0.146  0.00  0.00    -0.491 OA
ENDBRANCH   1  17
BRANCH   2  18
ATOM     18  O   LIG    1        1.995   2.935   0.530  0.00  0.00    -0.491 OA
ATOM     19  C   LIG    1        1.936   4.121   1.316  0.00  0.00    +0.277 C 
ENDBRANCH   2  18
BRANCH  10  20
ATOM     20  C   LIG    1        7.972   3.497   3.442  0.00  0.00    +0.015 C 
BRANCH  20  21
ATOM     21  C   LIG    1        9.145   2.625   3.938  0.00  0.00    -0.016 C 
ATOM     22  C   LIG    1        8.806   2.003   5.298  0.00  0.00    +0.007 C 
ATOM     23  C   LIG    1       10.446   3.417   4.052  0.00  0.00    +0.007 C 
ENDBRANCH  20  21
ENDBRANCH  10  20
TORSDOF 4
