REMARK  Name = *****
REMARK                            x       y       z     vdW  Elec       q    Type
REMARK                         _______ _______ _______ _____ _____    ______ ____
ROOT
ATOM      1  C   LIG    1        3.681   6.633   5.079  0.00  0.00    +0.120 A 
ATOM      2  C   LIG    1        4.296   7.842   5.404  0.00  0.00    +0.046 A 
ATOM      3  C   LIG    1        3.644   9.054   5.162  0.00  0.00    +0.007 A 
ATOM      4  C   LIG    1        2.357   9.067   4.612  0.00  0.00    -0.046 A 
ATOM      5  C   LIG    1        1.739   7.850   4.304  0.00  0.00    +0.007 A 
ATOM      6  C   LIG    1        2.388   6.643   4.554  0.00  0.00    +0.046 A 
ENDROOT
BRANCH   1   7
ATOM      7  O   LIG    1        4.412   5.502   5.331  0.00  0.00    -0.492 OA
BRANCH   7   8
ATOM      8  C   LIG    1        4.092   4.388   4.486  0.00  0.00    +0.235 C 
BRANCH   8   9
ATOM      9  C   LIG    1        4.942   3.174   4.841  0.00  0.00    +0.096 C 
BRANCH   9  13
ATOM     10  C   LIG    1        4.047   1.791   8.776  0.00  0.00    -0.029 A 
ATOM     11  C   LIG    1        3.361   1.367   7.642  0.00  0.00    +0.114 A 
ATOM     12  N   LIG    1        3.628   1.793   6.384  0.00  0.00    -0.260 NA
ATOM     13  C   LIG    1        4.639   2.682   6.235  0.00  0.00    +0.044 A 
ATOM     14  C   LIG    1        5.375   3.165   7.313  0.00  0.00    +0.024 A 
ATOM     15  C   LIG    1        5.081   2.708   8.593  0.00  0.00    +0.007 A 
BRANCH  10  17
ATOM     16  C   LIG    1        4.494   0.004  10.470  0.00  0.00    +0.009 C 
ATOM     17  C   LIG    1        3.709   1.264  10.141  0.00  0.00    +0.033 C 
ENDBRANCH  10  17
ENDBRANCH   9  13
ENDBRANCH   8   9
ENDBRANCH   7   8
ENDBRANCH   1   7
BRANCH   4  18
ATOM     18  C   LIG    1        1.604  10.359   4.407  0.00  0.00    +0.059 C 
BRANCH  18  19
ATOM     19  C   LIG    1        0.735  10.795   5.594  0.00  0.00    +0.146 C 
ATOM     20  C   LIG    1       -0.280   9.745   5.998  0.00  0.00    +0.234 C 
ATOM     21  O   LIG    1       -1.105   9.248   5.253  0.00  0.00    -0.274 OA
ATOM     22  N   LIG    1       -0.169   9.415   7.319  0.00  0.00    -0.246 N 
ATOM     23  H   LIG    1       -0.763   8.710   7.725  0.00  0.00    +0.158 HD
ATOM     24  C   LIG    1        0.791  10.009   8.071  0.00  0.00    +0.279 C 
ATOM     25  O   LIG    1        1.026   9.772   9.231  0.00  0.00    -0.263 OA
ATOM     26  S   LIG    1        1.666  11.182   7.119  0.00  0.00    -0.054 S 
ENDBRANCH  18  19
ENDBRANCH   4  18
TORSDOF 7
