REMARK  Name = *****
REMARK                            x       y       z     vdW  Elec       q    Type
REMARK                         _______ _______ _______ _____ _____    ______ ____
ROOT
ATOM      1  C   LIG    1       10.561  -7.990  -0.442  0.00  0.00    +0.190 C 
ENDROOT
BRANCH   1   4
ATOM      2  N   LIG    1       11.225 -11.173   1.152  0.00  0.00    -0.131 N 
ATOM      3  C   LIG    1       10.345 -10.211   0.819  0.00  0.00    +0.430 A 
ATOM      4  N   LIG    1       11.007  -9.314   0.067  0.00  0.00    -0.207 N 
ATOM      5  N   LIG    1       12.327  -9.672  -0.070  0.00  0.00    -0.108 NA
ATOM      6  C   LIG    1       12.407 -10.787   0.560  0.00  0.00    +0.452 A 
BRANCH   2   7
ATOM      7  C   LIG    1       10.998 -12.418   1.911  0.00  0.00    +0.465 C 
ATOM      8  C   LIG    1        9.678 -13.061   1.499  0.00  0.00    +0.138 C 
BRANCH   7   9
ATOM      9  O   LIG    1       11.039 -12.111   3.313  0.00  0.00    -0.387 OA
BRANCH   9  11
ATOM     10  N   LIG    1       11.449 -12.880   5.482  0.00  0.00    -0.224 N 
ATOM     11  C   LIG    1       11.299 -13.198   4.129  0.00  0.00    +0.413 C 
ATOM     12  O   LIG    1       11.467 -14.316   3.651  0.00  0.00    -0.226 OA
ATOM     13  C   LIG    1       11.342 -11.509   5.965  0.00  0.00    +0.143 C 
BRANCH  10  15
ATOM     14  C   LIG    1       12.184 -14.198   7.476  0.00  0.00    +0.030 A 
ATOM     15  C   LIG    1       11.252 -13.912   6.462  0.00  0.00    +0.136 A 
ATOM     16  N   LIG    1       10.056 -14.556   6.410  0.00  0.00    -0.239 NA
ATOM     17  C   LIG    1        9.786 -15.504   7.349  0.00  0.00    +0.113 A 
ATOM     18  C   LIG    1       10.640 -15.850   8.371  0.00  0.00    +0.020 A 
ATOM     19  C   LIG    1       11.843 -15.176   8.435  0.00  0.00    +0.012 A 
BRANCH  14  20
ATOM     20  C   LIG    1       13.606 -13.711   7.539  0.00  0.00    +0.271 C 
BRANCH  20  21
ATOM     21  O   LIG    1       14.425 -14.498   6.653  0.00  0.00    -0.459 OA
BRANCH  21  22
ATOM     22  C   LIG    1       14.849 -15.722   7.112  0.00  0.00    +0.321 C 
ATOM     23  O   LIG    1       14.648 -16.163   8.235  0.00  0.00    -0.249 OA
BRANCH  22  24
ATOM     24  C   LIG    1       15.557 -16.460   5.975  0.00  0.00    +0.202 C 
BRANCH  24  26
ATOM     25  C   LIG    1       17.089 -18.227   5.368  0.00  0.00    +0.101 C 
ATOM     26  N   LIG    1       16.503 -17.476   6.470  0.00  0.00    -0.310 NA
ATOM     27  H   LIG    1       17.220 -17.056   7.063  0.00  0.00    +0.122 HD
ENDBRANCH  24  26
ENDBRANCH  22  24
ENDBRANCH  21  22
ENDBRANCH  20  21
ENDBRANCH  14  20
ENDBRANCH  10  15
ENDBRANCH   9  11
ENDBRANCH   7   9
ENDBRANCH   2   7
ENDBRANCH   1   4
BRANCH   1  28
ATOM     28  C   LIG    1       10.063  -7.985  -1.931  0.00  0.00    +0.122 C 
BRANCH  28  29
ATOM     29  C   LIG    1       11.134  -8.440  -2.937  0.00  0.00    +0.024 A 
ATOM     30  C   LIG    1       10.791  -9.159  -4.093  0.00  0.00    +0.130 A 
ATOM     31  F   LIG    1        9.505  -9.460  -4.327  0.00  0.00    -0.205 F 
ATOM     32  C   LIG    1       11.742  -9.565  -5.029  0.00  0.00    +0.041 A 
ATOM     33  C   LIG    1       13.080  -9.242  -4.833  0.00  0.00    +0.041 A 
ATOM     34  C   LIG    1       13.440  -8.503  -3.717  0.00  0.00    +0.124 A 
ATOM     35  F   LIG    1       14.724  -8.182  -3.517  0.00  0.00    -0.205 F 
ATOM     36  C   LIG    1       12.487  -8.091  -2.788  0.00  0.00    +0.047 A 
ENDBRANCH  28  29
BRANCH  28  37
ATOM     37  O   LIG    1        8.966  -8.943  -1.922  0.00  0.00    -0.381 OA
ATOM     38  H   LIG    1        8.714  -9.124  -2.852  0.00  0.00    +0.211 HD
ENDBRANCH  28  37
BRANCH  28  39
ATOM     39  C   LIG    1        9.486  -6.592  -2.433  0.00  0.00    +0.080 C 
ATOM     40  C   LIG    1        8.098  -6.236  -1.876  0.00  0.00    +0.018 C 
BRANCH  39  41
ATOM     41  C   LIG    1       10.453  -5.439  -2.234  0.00  0.00    +0.085 A 
ATOM     42  S   LIG    1       10.489  -4.123  -3.345  0.00  0.00    -0.080 S 
ATOM     43  C   LIG    1       11.785  -3.421  -2.469  0.00  0.00    +0.075 A 
ATOM     44  C   LIG    1       12.122  -4.224  -1.397  0.00  0.00    +0.078 A 
ATOM     45  N   LIG    1       11.338  -5.363  -1.263  0.00  0.00    -0.244 NA
BRANCH  44  46
ATOM     46  C   LIG    1       13.246  -3.964  -0.503  0.00  0.00    +0.001 A 
ATOM     47  C   LIG    1       13.966  -5.042   0.033  0.00  0.00    +0.011 A 
ATOM     48  C   LIG    1       15.087  -4.824   0.840  0.00  0.00    +0.019 A 
ATOM     49  C   LIG    1       15.502  -3.521   1.133  0.00  0.00    +0.052 A 
ATOM     50  C   LIG    1       14.773  -2.441   0.627  0.00  0.00    +0.019 A 
ATOM     51  C   LIG    1       13.652  -2.661  -0.186  0.00  0.00    +0.011 A 
BRANCH  49  52
ATOM     52  C   LIG    1       16.654  -3.298   1.931  0.00  0.00    +0.099 C 
ATOM     53  N   LIG    1       17.616  -3.124   2.596  0.00  0.00    -0.191 NA
ENDBRANCH  49  52
ENDBRANCH  44  46
ENDBRANCH  39  41
ENDBRANCH  28  39
ENDBRANCH   1  28
TORSDOF 17
