REMARK  Name = *****
REMARK                            x       y       z     vdW  Elec       q    Type
REMARK                         _______ _______ _______ _____ _____    ______ ____
ROOT
ATOM      1  C   LIG    1        1.922  -2.109  -0.005  0.00  0.00    +0.092 C 
ENDROOT
BRANCH   1   4
ATOM      2  O   LIG    1        2.666  -0.333  -1.963  0.00  0.00    -0.245 OA
ATOM      3  C   LIG    1        2.961   0.031  -0.825  0.00  0.00    +0.344 C 
ATOM      4  C   LIG    1        2.581  -0.797   0.347  0.00  0.00    +0.084 C 
ATOM      5  C   LIG    1        2.877  -0.382   1.591  0.00  0.00    +0.138 C 
ATOM      6  C   LIG    1        3.557   0.896   1.805  0.00  0.00    +0.059 A 
ATOM      7  C   LIG    1        3.909   1.661   0.698  0.00  0.00    +0.143 A 
ATOM      8  C   LIG    1        4.532   2.902   0.821  0.00  0.00    +0.047 A 
ATOM      9  C   LIG    1        4.810   3.401   2.091  0.00  0.00    +0.004 A 
ATOM     10  C   LIG    1        4.470   2.652   3.218  0.00  0.00    +0.001 A 
ATOM     11  C   LIG    1        3.850   1.406   3.076  0.00  0.00    +0.015 A 
ATOM     12  O   LIG    1        3.633   1.218  -0.604  0.00  0.00    -0.422 OA
BRANCH   5  13
ATOM     13  O   LIG    1        2.570  -1.076   2.743  0.00  0.00    -0.505 OA
ATOM     14  H   LIG    1        1.835  -1.709   2.593  0.00  0.00    +0.292 HD
ENDBRANCH   5  13
ENDBRANCH   1   4
BRANCH   1  15
ATOM     15  C   LIG    1        0.418  -2.003  -0.093  0.00  0.00    +0.084 C 
ATOM     16  C   LIG    1       -0.290  -2.338   1.168  0.00  0.00    +0.344 C 
ATOM     17  O   LIG    1        0.339  -2.471   2.215  0.00  0.00    -0.245 OA
ATOM     18  O   LIG    1       -1.660  -2.519   1.122  0.00  0.00    -0.422 OA
ATOM     19  C   LIG    1       -2.391  -2.143  -0.015  0.00  0.00    +0.143 A 
ATOM     20  C   LIG    1       -1.749  -1.687  -1.161  0.00  0.00    +0.059 A 
ATOM     21  C   LIG    1       -2.540  -1.246  -2.229  0.00  0.00    +0.015 A 
ATOM     22  C   LIG    1       -3.936  -1.285  -2.143  0.00  0.00    +0.001 A 
ATOM     23  C   LIG    1       -4.556  -1.779  -0.995  0.00  0.00    +0.004 A 
ATOM     24  C   LIG    1       -3.781  -2.211   0.078  0.00  0.00    +0.047 A 
ATOM     25  C   LIG    1       -0.286  -1.693  -1.196  0.00  0.00    +0.138 C 
BRANCH  25  26
ATOM     26  O   LIG    1        0.263  -1.379  -2.421  0.00  0.00    -0.505 OA
ATOM     27  H   LIG    1        1.213  -1.145  -2.345  0.00  0.00    +0.292 HD
ENDBRANCH  25  26
ENDBRANCH   1  15
TORSDOF 4
