REMARK  Name = *****
REMARK                            x       y       z     vdW  Elec       q    Type
REMARK                         _______ _______ _______ _____ _____    ______ ____
ROOT
ATOM      1  C   LIG    1        6.453  -0.172   3.053  0.00  0.00    +0.197 C 
ENDROOT
BRANCH   1   2
ATOM      2  C   LIG    1        6.813   1.214   2.523  0.00  0.00    -0.013 A 
ATOM      3  C   LIG    1        5.984   2.322   2.774  0.00  0.00    +0.008 A 
ATOM      4  C   LIG    1        6.220   3.543   2.144  0.00  0.00    +0.020 A 
ATOM      5  C   LIG    1        7.323   3.688   1.309  0.00  0.00    +0.041 A 
ATOM      6 CL   LIG    1        7.585   5.180   0.494  0.00  0.00    -0.084 Cl
ATOM      7  C   LIG    1        8.208   2.628   1.119  0.00  0.00    +0.020 A 
ATOM      8  C   LIG    1        7.953   1.394   1.724  0.00  0.00    +0.008 A 
ENDBRANCH   1   2
BRANCH   1   9
ATOM      9  C   LIG    1        7.108  -0.453   4.413  0.00  0.00    +0.074 A 
ATOM     10  N   LIG    1        8.400  -0.891   4.422  0.00  0.00    -0.257 NA
ATOM     11  C   LIG    1        8.981  -1.102   5.627  0.00  0.00    +0.111 A 
ATOM     12  C   LIG    1        8.339  -0.901   6.839  0.00  0.00    +0.020 A 
ATOM     13  C   LIG    1        7.027  -0.465   6.821  0.00  0.00    +0.003 A 
ATOM     14  C   LIG    1        6.398  -0.232   5.599  0.00  0.00    +0.026 A 
ENDBRANCH   1   9
BRANCH   1  15
ATOM     15  O   LIG    1        5.018  -0.355   3.138  0.00  0.00    -0.365 OA
BRANCH  15  16
ATOM     16  C   LIG    1        4.351  -0.347   1.866  0.00  0.00    +0.176 C 
BRANCH  16  17
ATOM     17  C   LIG    1        2.850  -0.621   2.086  0.00  0.00    +0.112 C 
BRANCH  17  19
ATOM     18  C   LIG    1        2.423  -1.546  -0.132  0.00  0.00    +0.104 C 
ATOM     19  N   LIG    1        2.014  -0.560   0.868  0.00  0.00    -0.306 NA
ATOM     20  C   LIG    1        0.605  -0.773   1.218  0.00  0.00    +0.104 C 
ENDBRANCH  17  19
ENDBRANCH  16  17
ENDBRANCH  15  16
ENDBRANCH   1  15
TORSDOF 6
