REMARK  Name = *****
REMARK                            x       y       z     vdW  Elec       q    Type
REMARK                         _______ _______ _______ _____ _____    ______ ____
ROOT
ATOM      1  N   LIG    1        2.788  -0.045   1.638  0.00  0.00    -0.346 NA
ATOM      2  C   LIG    1        3.332  -0.946   2.586  0.00  0.00    +0.055 C 
ATOM      3  C   LIG    1        3.983  -0.428   3.724  0.00  0.00    +0.049 C 
ATOM      4  C   LIG    1        4.575  -1.266   4.668  0.00  0.00    +0.054 C 
ATOM      5  C   LIG    1        4.505  -2.644   4.506  0.00  0.00    +0.145 C 
ATOM      6  C   LIG    1        3.843  -3.238   3.416  0.00  0.00    +0.067 C 
ATOM      7  F   LIG    1        5.063  -3.385   5.474  0.00  0.00    -0.203 F 
ATOM      8  C   LIG    1        4.031   1.034   3.953  0.00  0.00    +0.203 C 
ATOM      9  O   LIG    1        4.559   1.520   4.951  0.00  0.00    -0.286 OA
ATOM     10  C   LIG    1        3.400   1.919   2.952  0.00  0.00    +0.122 C 
ATOM     11  C   LIG    1        3.263  -2.354   2.472  0.00  0.00    +0.052 C 
ATOM     12  C   LIG    1        2.842   1.323   1.889  0.00  0.00    +0.105 C 
ENDROOT
BRANCH   6  13
ATOM     13  N   LIG    1        3.736  -4.637   3.197  0.00  0.00    -0.325 NA
ATOM     14  C   LIG    1        2.361  -5.153   3.430  0.00  0.00    +0.120 C 
ATOM     15  C   LIG    1        2.263  -6.682   3.189  0.00  0.00    +0.100 C 
ATOM     16  N   LIG    1        3.280  -7.473   3.908  0.00  0.00    -0.313 NA
ATOM     17  H   LIG    1        3.176  -7.292   4.908  0.00  0.00    +0.122 HD
ATOM     18  C   LIG    1        4.605  -6.976   3.490  0.00  0.00    +0.100 C 
ATOM     19  C   LIG    1        4.803  -5.476   3.800  0.00  0.00    +0.120 C 
ENDBRANCH   6  13
BRANCH   1  21
ATOM     20  C   LIG    1        0.729  -0.885   0.558  0.00  0.00    +0.027 C 
ATOM     21  C   LIG    1        2.203  -0.552   0.384  0.00  0.00    +0.118 C 
ENDBRANCH   1  21
BRANCH  10  22
ATOM     22  C   LIG    1        3.353   3.393   3.068  0.00  0.00    +0.342 C 
ATOM     23  O   LIG    1        2.819   4.114   2.244  0.00  0.00    -0.245 OA
BRANCH  22  24
ATOM     24  O   LIG    1        3.950   3.886   4.178  0.00  0.00    -0.477 OA
ATOM     25  H   LIG    1        4.362   3.196   4.753  0.00  0.00    +0.295 HD
ENDBRANCH  22  24
ENDBRANCH  10  22
TORSDOF 4
