REMARK  Name = *****
REMARK                            x       y       z     vdW  Elec       q    Type
REMARK                         _______ _______ _______ _____ _____    ______ ____
ROOT
ATOM      1  C   LIG    1        4.872  -0.667  -1.097  0.00  0.00    +0.065 C 
ATOM      2  C   LIG    1        3.810  -1.126  -0.087  0.00  0.00    +0.096 C 
ATOM      3  C   LIG    1        3.464  -2.603  -0.296  0.00  0.00    +0.065 C 
ATOM      4  C   LIG    1        4.393  -3.433  -0.833  0.00  0.00    +0.016 C 
ATOM      5  C   LIG    1        4.188  -4.905  -1.093  0.00  0.00    +0.061 C 
ATOM      6  N   LIG    1        5.625  -2.911  -1.219  0.00  0.00    -0.321 N 
ATOM      7  H   LIG    1        6.242  -3.556  -1.710  0.00  0.00    +0.152 HD
ATOM      8  C   LIG    1        5.765  -1.551  -1.571  0.00  0.00    +0.016 C 
ATOM      9  C   LIG    1        6.923  -1.249  -2.482  0.00  0.00    +0.061 C 
ENDROOT
BRANCH   2  10
ATOM     10  C   LIG    1        4.263  -0.783   1.353  0.00  0.00    -0.029 A 
ATOM     11  C   LIG    1        4.018   0.493   1.903  0.00  0.00    +0.088 A 
ATOM     12  C   LIG    1        4.512   0.834   3.176  0.00  0.00    +0.273 A 
ATOM     13  C   LIG    1        5.248  -0.088   3.925  0.00  0.00    +0.084 A 
ATOM     14  C   LIG    1        5.483  -1.355   3.400  0.00  0.00    +0.007 A 
ATOM     15  C   LIG    1        5.002  -1.694   2.130  0.00  0.00    +0.005 A 
BRANCH  12  16
ATOM     16  N   LIG    1        4.257   2.172   3.732  0.00  0.00    +0.080 N 
ATOM     17  O   LIG    1        3.615   2.973   3.036  0.00  0.00    -0.576 OA
ATOM     18  O   LIG    1        4.696   2.421   4.864  0.00  0.00    +0.041 OA
ENDBRANCH  12  16
ENDBRANCH   2  10
BRANCH   1  19
ATOM     19  C   LIG    1        4.780   0.727  -1.640  0.00  0.00    +0.337 C 
ATOM     20  O   LIG    1        5.490   1.200  -2.518  0.00  0.00    -0.245 OA
BRANCH  19  22
ATOM     21  C   LIG    1        3.368   2.650  -1.544  0.00  0.00    +0.280 C 
ATOM     22  O   LIG    1        3.723   1.355  -1.080  0.00  0.00    -0.465 OA
ENDBRANCH  19  22
ENDBRANCH   1  19
BRANCH   3  23
ATOM     23  C   LIG    1        2.072  -3.048  -0.033  0.00  0.00    +0.338 C 
ATOM     24  O   LIG    1        1.575  -4.073  -0.489  0.00  0.00    -0.245 OA
BRANCH  23  25
ATOM     25  O   LIG    1        1.411  -2.140   0.727  0.00  0.00    -0.460 OA
BRANCH  25  26
ATOM     26  C   LIG    1        0.057  -2.483   1.087  0.00  0.00    +0.247 C 
BRANCH  26  27
ATOM     27  C   LIG    1       -0.915  -2.413  -0.113  0.00  0.00    +0.125 C 
BRANCH  27  28
ATOM     28  N   LIG    1       -2.338  -2.680   0.213  0.00  0.00    -0.298 NA
ATOM     29  C   LIG    1       -3.141  -2.539  -1.013  0.00  0.00    +0.105 C 
BRANCH  28  30
ATOM     30  C   LIG    1       -2.482  -4.042   0.769  0.00  0.00    +0.119 C 
BRANCH  30  31
ATOM     31  C   LIG    1       -3.882  -4.463   1.166  0.00  0.00    -0.033 A 
ATOM     32  C   LIG    1       -4.821  -3.554   1.675  0.00  0.00    +0.005 A 
ATOM     33  C   LIG    1       -6.060  -3.998   2.136  0.00  0.00    +0.000 A 
ATOM     34  C   LIG    1       -6.368  -5.356   2.108  0.00  0.00    +0.000 A 
ATOM     35  C   LIG    1       -5.452  -6.268   1.587  0.00  0.00    +0.000 A 
ATOM     36  C   LIG    1       -4.215  -5.825   1.121  0.00  0.00    +0.005 A 
ENDBRANCH  30  31
ENDBRANCH  28  30
ENDBRANCH  27  28
ENDBRANCH  26  27
ENDBRANCH  25  26
ENDBRANCH  23  25
ENDBRANCH   3  23
TORSDOF 11
