REMARK  Name = *****
REMARK                            x       y       z     vdW  Elec       q    Type
REMARK                         _______ _______ _______ _____ _____    ______ ____
ROOT
ATOM      1  N   LIG    1        1.223   1.094  -0.943  0.00  0.00    -0.301 N 
ATOM      2  H   LIG    1        1.188   0.927   0.065  0.00  0.00    +0.150 HD
ATOM      3  C   LIG    1        0.062   1.416  -1.612  0.00  0.00    +0.232 C 
ATOM      4  O   LIG    1        0.098   1.694  -2.815  0.00  0.00    -0.275 OA
ENDROOT
BRANCH   1  10
ATOM      5  C   LIG    1        2.463  -2.629  -0.040  0.00  0.00    +0.025 C 
ATOM      6  C   LIG    1        3.815  -1.906   0.102  0.00  0.00    +0.042 C 
ATOM      7  CA  LIG    1        4.481  -1.700  -1.283  0.00  0.00    +0.201 C 
ATOM      8  N   LIG    1        4.079  -0.376  -1.783  0.00  0.00    -0.271 N 
ATOM      9  C   LIG    1        3.769   0.663  -0.783  0.00  0.00    +0.165 C 
ATOM     10  CA  LIG    1        2.535   1.055  -1.637  0.00  0.00    +0.190 C 
ATOM     11  C   LIG    1        2.867  -0.244  -2.422  0.00  0.00    +0.240 C 
ATOM     12  O   LIG    1        2.307  -1.021  -3.157  0.00  0.00    -0.273 OA
ATOM     13  S   LIG    1        3.464  -0.218   0.786  0.00  0.00    -0.127 S 
ATOM     14  C   LIG    1        4.654  -2.668   1.134  0.00  0.00    +0.025 C 
BRANCH   7  15
ATOM     15  C   LIG    1        6.013  -1.798  -1.320  0.00  0.00    +0.327 C 
ATOM     16  O   LIG    1        6.660  -2.759  -0.930  0.00  0.00    -0.249 OA
BRANCH  15  17
ATOM     17  OXT LIG    1        6.614  -0.728  -1.900  0.00  0.00    -0.479 OA
ATOM     18  HXT LIG    1        5.937  -0.116  -2.255  0.00  0.00    +0.295 HD
ENDBRANCH  15  17
ENDBRANCH   7  15
ENDBRANCH   1  10
BRANCH   3  19
ATOM     19  C   LIG    1       -1.254   1.410  -0.820  0.00  0.00    +0.213 C 
BRANCH  19  20
ATOM     20  C   LIG    1       -2.069   2.691  -0.993  0.00  0.00    -0.025 A 
ATOM     21  C   LIG    1       -3.472   2.630  -0.930  0.00  0.00    +0.005 A 
ATOM     22  C   LIG    1       -4.245   3.789  -1.029  0.00  0.00    +0.000 A 
ATOM     23  C   LIG    1       -3.628   5.025  -1.198  0.00  0.00    +0.000 A 
ATOM     24  C   LIG    1       -2.239   5.104  -1.265  0.00  0.00    +0.000 A 
ATOM     25  C   LIG    1       -1.463   3.947  -1.154  0.00  0.00    +0.005 A 
ENDBRANCH  19  20
BRANCH  19  26
ATOM     26  C   LIG    1       -1.113   1.072   0.649  0.00  0.00    +0.321 C 
ATOM     27  O   LIG    1       -0.104   1.182   1.332  0.00  0.00    -0.250 OA
BRANCH  26  28
ATOM     28  O   LIG    1       -2.242   0.583   1.207  0.00  0.00    -0.480 OA
ATOM     29  H   LIG    1       -2.013   0.442   2.150  0.00  0.00    +0.295 HD
ENDBRANCH  26  28
ENDBRANCH  19  26
ENDBRANCH   3  19
TORSDOF 7
