REMARK  Name = *****
REMARK                            x       y       z     vdW  Elec       q    Type
REMARK                         _______ _______ _______ _____ _____    ______ ____
ROOT
ATOM      1  N   LIG    1        2.701   1.226  -0.944  0.00  0.00    -0.225 N 
ATOM      2  C   LIG    1        2.842   2.530  -0.545  0.00  0.00    +0.248 C 
ATOM      3  O   LIG    1        2.927   2.925   0.611  0.00  0.00    -0.273 OA
ATOM      4  C   LIG    1        2.854   3.416  -1.796  0.00  0.00    +0.191 C 
ATOM      5  N   LIG    1        2.732   2.415  -2.822  0.00  0.00    -0.284 N 
ATOM      6  H   LIG    1        2.751   2.584  -3.818  0.00  0.00    +0.151 HD
ATOM      7  C   LIG    1        2.671   1.144  -2.303  0.00  0.00    +0.309 C 
ATOM      8  O   LIG    1        2.615   0.136  -2.985  0.00  0.00    -0.252 OA
ENDROOT
BRANCH   4   9
ATOM      9  C   LIG    1        4.091   4.268  -1.934  0.00  0.00    -0.018 A 
ATOM     10  C   LIG    1        5.287   3.769  -2.476  0.00  0.00    +0.006 A 
ATOM     11  C   LIG    1        6.417   4.582  -2.583  0.00  0.00    +0.000 A 
ATOM     12  C   LIG    1        6.372   5.902  -2.141  0.00  0.00    +0.000 A 
ATOM     13  C   LIG    1        5.199   6.409  -1.587  0.00  0.00    +0.000 A 
ATOM     14  C   LIG    1        4.067   5.597  -1.480  0.00  0.00    +0.006 A 
ENDBRANCH   4   9
BRANCH   1  16
ATOM     15  C   LIG    1        4.073  -0.408   0.280  0.00  0.00    +0.025 C 
ATOM     16  C   LIG    1        2.674   0.086  -0.052  0.00  0.00    +0.114 C 
ENDBRANCH   1  16
TORSDOF 2
