REMARK  Name = *****
REMARK                            x       y       z     vdW  Elec       q    Type
REMARK                         _______ _______ _______ _____ _____    ______ ____
ROOT
ATOM      1  C   LIG    1       -1.867   0.999   0.845  0.00  0.00    +0.067 C 
ATOM      2  C   LIG    1       -3.273   1.477   1.209  0.00  0.00    +0.044 C 
ATOM      3  C   LIG    1       -3.366   1.433   2.728  0.00  0.00    +0.142 C 
ATOM      4  N   LIG    1       -2.323   0.461   3.126  0.00  0.00    -0.305 NA
ATOM      5  H   LIG    1       -2.039   0.643   4.091  0.00  0.00    +0.123 HD
ATOM      6  C   LIG    1       -1.209   0.749   2.209  0.00  0.00    +0.096 C 
ENDROOT
BRANCH   3   7
ATOM      7  C   LIG    1       -4.762   0.965   3.167  0.00  0.00    +0.234 C 
ATOM      8  N   LIG    1       -4.865  -0.413   3.280  0.00  0.00    -0.284 N 
ATOM      9  H   LIG    1       -3.965  -0.892   3.261  0.00  0.00    +0.155 HD
ATOM     10  O   LIG    1       -5.667   1.780   3.325  0.00  0.00    -0.274 OA
BRANCH   8  11
ATOM     11  C   LIG    1       -6.021  -1.148   3.607  0.00  0.00    +0.034 A 
ATOM     12  C   LIG    1       -5.868  -2.471   4.036  0.00  0.00    +0.038 A 
ATOM     13  C   LIG    1       -6.988  -3.224   4.429  0.00  0.00    +0.061 A 
ATOM     14  C   LIG    1       -8.266  -2.655   4.384  0.00  0.00    +0.015 A 
ATOM     15  C   LIG    1       -8.424  -1.355   3.910  0.00  0.00    +0.003 A 
ATOM     16  C   LIG    1       -7.308  -0.609   3.525  0.00  0.00    +0.023 A 
BRANCH  13  17
ATOM     17  C   LIG    1       -6.766  -4.597   4.952  0.00  0.00    +0.337 C 
ATOM     18  O   LIG    1       -5.733  -4.936   5.502  0.00  0.00    -0.245 OA
BRANCH  17  19
ATOM     19  O   LIG    1       -7.795  -5.443   4.732  0.00  0.00    -0.477 OA
ATOM     20  H   LIG    1       -8.487  -5.113   4.132  0.00  0.00    +0.295 HD
ENDBRANCH  17  19
ENDBRANCH  13  17
ENDBRANCH   8  11
ENDBRANCH   3   7
BRANCH   1  21
ATOM     21  S   LIG    1       -1.929  -0.507  -0.209  0.00  0.00    -0.122 S 
BRANCH  21  26
ATOM     22  C   LIG    1       -4.552  -0.203  -4.532  0.00  0.00    +0.125 C 
ATOM     23  C   LIG    1       -4.399   0.621  -3.214  0.00  0.00    +0.104 C 
ATOM     24  N   LIG    1       -3.038   0.997  -3.692  0.00  0.00    -0.260 N 
ATOM     25  C   LIG    1       -2.105   0.645  -2.725  0.00  0.00    +0.131 C 
ATOM     26  C   LIG    1       -2.689   0.103  -1.639  0.00  0.00    +0.019 C 
ATOM     27  C   LIG    1       -4.195   0.038  -1.813  0.00  0.00    +0.046 C 
ATOM     28  C   LIG    1       -4.863  -1.321  -1.673  0.00  0.00    +0.015 C 
ATOM     29  C   LIG    1       -3.136   0.277  -4.842  0.00  0.00    +0.228 C 
ATOM     30  O   LIG    1       -2.271   0.046  -5.668  0.00  0.00    -0.275 OA
BRANCH  22  32
ATOM     31  C   LIG    1       -5.395  -0.192  -6.895  0.00  0.00    +0.038 C 
ATOM     32  C   LIG    1       -5.642   0.276  -5.469  0.00  0.00    +0.125 C 
BRANCH  32  33
ATOM     33  O   LIG    1       -6.886  -0.237  -4.993  0.00  0.00    -0.391 OA
ATOM     34  H   LIG    1       -7.024  -1.124  -5.373  0.00  0.00    +0.210 HD
ENDBRANCH  32  33
ENDBRANCH  22  32
BRANCH  25  35
ATOM     35  C   LIG    1       -0.646   0.902  -2.947  0.00  0.00    +0.352 C 
ATOM     36  O   LIG    1        0.180   0.979  -2.050  0.00  0.00    -0.244 OA
BRANCH  35  37
ATOM     37  O   LIG    1       -0.307   1.132  -4.236  0.00  0.00    -0.476 OA
ATOM     38  H   LIG    1       -0.976   0.863  -4.905  0.00  0.00    +0.295 HD
ENDBRANCH  35  37
ENDBRANCH  25  35
ENDBRANCH  21  26
ENDBRANCH   1  21
TORSDOF 10
