REMARK  Name = *****
REMARK                            x       y       z     vdW  Elec       q    Type
REMARK                         _______ _______ _______ _____ _____    ______ ____
ROOT
ATOM      1  C   LIG    1        6.946  -2.800   1.262  0.00  0.00    -0.018 A 
ATOM      2  C   LIG    1        7.538  -3.844   0.533  0.00  0.00    +0.008 A 
ATOM      3  C   LIG    1        8.927  -3.953   0.426  0.00  0.00    +0.025 A 
ATOM      4  C   LIG    1        9.745  -3.036   1.081  0.00  0.00    +0.048 A 
ATOM      5  C   LIG    1        9.181  -1.983   1.799  0.00  0.00    +0.025 A 
ATOM      6  C   LIG    1        7.790  -1.871   1.895  0.00  0.00    +0.008 A 
ENDROOT
BRANCH   4   7
ATOM      7  N   LIG    1       11.160  -3.142   0.960  0.00  0.00    -0.221 N 
ATOM      8  H   LIG    1       11.665  -2.871   1.811  0.00  0.00    +0.173 HD
BRANCH   7   9
ATOM      9  S   LIG    1       11.881  -2.331  -0.343  0.00  0.00    +0.040 S 
ATOM     10  O   LIG    1       12.926  -1.514   0.230  0.00  0.00    -0.155 OA
ATOM     11  O   LIG    1       10.869  -1.772  -1.213  0.00  0.00    -0.155 OA
ATOM     12  C   LIG    1       12.638  -3.695  -1.187  0.00  0.00    +0.218 C 
ENDBRANCH   7   9
ENDBRANCH   4   7
BRANCH   1  13
ATOM     13  C   LIG    1        5.439  -2.688   1.416  0.00  0.00    +0.158 C 
BRANCH  13  14
ATOM     14  O   LIG    1        4.770  -3.769   0.753  0.00  0.00    -0.386 OA
ATOM     15  H   LIG    1        4.529  -3.408  -0.124  0.00  0.00    +0.210 HD
ENDBRANCH  13  14
BRANCH  13  16
ATOM     16  C   LIG    1        4.818  -1.354   0.920  0.00  0.00    +0.117 C 
BRANCH  16  17
ATOM     17  N   LIG    1        4.886  -1.210  -0.550  0.00  0.00    -0.311 NA
ATOM     18  H   LIG    1        5.874  -1.230  -0.829  0.00  0.00    +0.122 HD
BRANCH  17  20
ATOM     19  C   LIG    1        4.411   0.113  -2.553  0.00  0.00    +0.024 C 
ATOM     20  C   LIG    1        4.290   0.054  -1.027  0.00  0.00    +0.048 C 
ATOM     21  C   LIG    1        2.819   0.210  -0.624  0.00  0.00    +0.024 C 
ENDBRANCH  17  20
ENDBRANCH  16  17
ENDBRANCH  13  16
ENDBRANCH   1  13
TORSDOF 7
