REMARK  Name = *****
REMARK                            x       y       z     vdW  Elec       q    Type
REMARK                         _______ _______ _______ _____ _____    ______ ____
ROOT
ATOM      1  C   LIG    1        4.648   0.507  -1.345  0.00  0.00    -0.014 A 
ATOM      2  C   LIG    1        5.401   1.640  -0.993  0.00  0.00    +0.055 A 
ATOM      3  C   LIG    1        6.781   1.536  -0.863  0.00  0.00    +0.159 A 
ATOM      4  C   LIG    1        7.433   0.325  -1.067  0.00  0.00    +0.158 A 
ATOM      5  C   LIG    1        6.710  -0.811  -1.402  0.00  0.00    +0.049 A 
ATOM      6  C   LIG    1        5.321  -0.715  -1.538  0.00  0.00    +0.010 A 
ENDROOT
BRANCH   3   7
ATOM      7  O   LIG    1        7.504   2.650  -0.537  0.00  0.00    -0.503 OA
ATOM      8  H   LIG    1        8.433   2.341  -0.531  0.00  0.00    +0.292 HD
ENDBRANCH   3   7
BRANCH   4   9
ATOM      9  O   LIG    1        8.794   0.299  -0.932  0.00  0.00    -0.503 OA
ATOM     10  H   LIG    1        9.099  -0.602  -1.138  0.00  0.00    +0.292 HD
ENDBRANCH   4   9
BRANCH   1  11
ATOM     11  C   LIG    1        3.143   0.615  -1.503  0.00  0.00    +0.158 C 
BRANCH  11  12
ATOM     12  O   LIG    1        2.687  -0.335  -2.475  0.00  0.00    -0.386 OA
ATOM     13  H   LIG    1        2.338  -1.078  -1.940  0.00  0.00    +0.210 HD
ENDBRANCH  11  12
BRANCH  11  14
ATOM     14  C   LIG    1        2.358   0.393  -0.187  0.00  0.00    +0.114 C 
BRANCH  14  15
ATOM     15  N   LIG    1        2.381  -1.022   0.236  0.00  0.00    -0.327 NA
ATOM     16  H   LIG    1        3.348  -1.276   0.450  0.00  0.00    +0.118 HD
ATOM     17  H   LIG    1        1.882  -1.102   1.123  0.00  0.00    +0.118 HD
ENDBRANCH  14  15
ENDBRANCH  11  14
ENDBRANCH   1  11
TORSDOF 6
