REMARK  Name = *****
REMARK                            x       y       z     vdW  Elec       q    Type
REMARK                         _______ _______ _______ _____ _____    ______ ____
ROOT
ATOM      1  O   LIG    1        8.913  -3.472  -2.127  0.00  0.00    -0.340 OA
ENDROOT
BRANCH   1   5
ATOM      2  C   LIG    1        5.866  -1.676  -2.088  0.00  0.00    +0.283 C 
ATOM      3  C   LIG    1        7.059  -1.291  -2.988  0.00  0.00    +0.201 C 
ATOM      4  C   LIG    1        8.389  -1.092  -2.253  0.00  0.00    +0.180 C 
ATOM      5  C   LIG    1        8.624  -2.292  -1.285  0.00  0.00    +0.192 C 
ATOM      6  C   LIG    1        7.367  -2.516  -0.410  0.00  0.00    +0.261 C 
ATOM      7  O   LIG    1        6.200  -2.753  -1.212  0.00  0.00    -0.332 OA
BRANCH   6   8
ATOM      8  C   LIG    1        7.209  -1.477   0.731  0.00  0.00    +0.337 C 
ATOM      9  O   LIG    1        7.303  -0.305   0.651  0.00  0.00    -0.248 OA
BRANCH   8  10
ATOM     10  O   LIG    1        6.854  -2.063   1.902  0.00  0.00    -0.479 OA
ATOM     11  H   LIG    1        6.695  -3.035   1.887  0.00  0.00    +0.295 HD
ENDBRANCH   8  10
ENDBRANCH   6   8
BRANCH   4  12
ATOM     12  O   LIG    1        8.487   0.164  -1.604  0.00  0.00    -0.386 OA
ATOM     13  H   LIG    1        8.574   0.875  -2.264  0.00  0.00    +0.210 HD
ENDBRANCH   4  12
BRANCH   3  14
ATOM     14  O   LIG    1        7.266  -2.420  -3.876  0.00  0.00    -0.384 OA
ATOM     15  H   LIG    1        7.670  -3.122  -3.318  0.00  0.00    +0.210 HD
ENDBRANCH   3  14
BRANCH   2  16
ATOM     16  O   LIG    1        5.192  -0.635  -1.390  0.00  0.00    -0.341 OA
BRANCH  16  18
ATOM     17  C   LIG    1        3.489  -0.031   0.260  0.00  0.00    +0.160 C 
ATOM     18  C   LIG    1        3.974  -1.093  -0.744  0.00  0.00    +0.177 C 
ATOM     19  C   LIG    1        2.795  -1.314  -1.729  0.00  0.00    +0.176 C 
ATOM     20  C   LIG    1        2.476   0.025  -2.426  0.00  0.00    +0.178 C 
ATOM     21  O   LIG    1        2.062   0.983  -1.445  0.00  0.00    -0.341 OA
ATOM     22  C   LIG    1        3.095   1.258  -0.501  0.00  0.00    +0.270 C 
BRANCH  17  25
ATOM     23  C   LIG    1        2.558   0.440   2.953  0.00  0.00    +0.109 C 
ATOM     24  C   LIG    1        4.036   0.490   2.648  0.00  0.00    +0.210 C 
ATOM     25  N   LIG    1        4.414   0.198   1.362  0.00  0.00    -0.305 N 
ATOM     26  H   LIG    1        5.401   0.379   1.157  0.00  0.00    +0.149 HD
ATOM     27  O   LIG    1        4.863   0.736   3.521  0.00  0.00    -0.276 OA
ENDBRANCH  17  25
BRANCH  22  28
ATOM     28  O   LIG    1        2.570   2.250   0.363  0.00  0.00    -0.365 OA
ATOM     29  H   LIG    1        1.694   1.919   0.615  0.00  0.00    +0.212 HD
ENDBRANCH  22  28
BRANCH  19  30
ATOM     30  O   LIG    1        3.026  -2.364  -2.667  0.00  0.00    -0.387 OA
ATOM     31  H   LIG    1        3.489  -3.091  -2.207  0.00  0.00    +0.210 HD
ENDBRANCH  19  30
BRANCH  20  32
ATOM     32  C   LIG    1        1.373  -0.128  -3.479  0.00  0.00    +0.190 C 
BRANCH  32  33
ATOM     33  O   LIG    1        1.749  -1.021  -4.522  0.00  0.00    -0.392 OA
ATOM     34  H   LIG    1        2.197  -1.784  -4.095  0.00  0.00    +0.209 HD
ENDBRANCH  32  33
ENDBRANCH  20  32
ENDBRANCH  16  18
ENDBRANCH   2  16
ENDBRANCH   1   5
BRANCH   1  35
ATOM     35  C   LIG    1        9.165  -4.710  -1.421  0.00  0.00    +0.274 C 
ATOM     36  C   LIG    1        9.163  -5.927  -2.422  0.00  0.00    +0.160 C 
ATOM     37  C   LIG    1       10.527  -5.932  -3.139  0.00  0.00    +0.177 C 
ATOM     38  C   LIG    1       11.634  -6.052  -2.055  0.00  0.00    +0.176 C 
ATOM     39  C   LIG    1       11.615  -4.903  -1.043  0.00  0.00    +0.178 C 
ATOM     40  O   LIG    1       10.303  -4.547  -0.577  0.00  0.00    -0.341 OA
BRANCH  36  41
ATOM     41  N   LIG    1        8.908  -7.258  -1.823  0.00  0.00    -0.305 N 
ATOM     42  H   LIG    1        9.660  -7.929  -1.926  0.00  0.00    +0.149 HD
ATOM     43  C   LIG    1        7.812  -7.658  -1.113  0.00  0.00    +0.210 C 
ATOM     44  O   LIG    1        6.841  -6.939  -0.911  0.00  0.00    -0.276 OA
ATOM     45  C   LIG    1        7.915  -9.073  -0.577  0.00  0.00    +0.109 C 
ENDBRANCH  36  41
BRANCH  38  46
ATOM     46  O   LIG    1       11.475  -7.282  -1.323  0.00  0.00    -0.387 OA
ATOM     47  H   LIG    1       11.662  -7.981  -1.973  0.00  0.00    +0.210 HD
ENDBRANCH  38  46
BRANCH  39  48
ATOM     48  C   LIG    1       12.446  -3.716  -1.584  0.00  0.00    +0.190 C 
BRANCH  48  49
ATOM     49  O   LIG    1       13.789  -4.076  -1.931  0.00  0.00    -0.392 OA
ATOM     50  H   LIG    1       14.145  -3.345  -2.471  0.00  0.00    +0.209 HD
ENDBRANCH  48  49
ENDBRANCH  39  48
BRANCH  37  51
ATOM     51  O   LIG    1       10.705  -7.031  -4.079  0.00  0.00    -0.341 OA
BRANCH  51  52
ATOM     52  C   LIG    1        9.870  -7.045  -5.256  0.00  0.00    +0.283 C 
ATOM     53  C   LIG    1        9.841  -5.766  -6.110  0.00  0.00    +0.201 C 
ATOM     54  C   LIG    1       11.245  -5.545  -6.703  0.00  0.00    +0.179 C 
ATOM     55  C   LIG    1       11.492  -6.629  -7.740  0.00  0.00    +0.185 C 
ATOM     56  C   LIG    1       11.124  -8.037  -7.181  0.00  0.00    +0.260 C 
ATOM     57  O   LIG    1       10.187  -8.169  -6.098  0.00  0.00    -0.332 OA
BRANCH  56  58
ATOM     58  C   LIG    1       12.401  -8.821  -6.881  0.00  0.00    +0.337 C 
ATOM     59  O   LIG    1       13.529  -8.551  -7.267  0.00  0.00    -0.248 OA
BRANCH  58  60
ATOM     60  O   LIG    1       12.184  -9.965  -6.199  0.00  0.00    -0.479 OA
ATOM     61  H   LIG    1       13.069 -10.368  -6.093  0.00  0.00    +0.295 HD
ENDBRANCH  58  60
ENDBRANCH  56  58
BRANCH  55  62
ATOM     62  O   LIG    1       10.714  -6.277  -8.909  0.00  0.00    -0.386 OA
ATOM     63  H   LIG    1       11.135  -6.691  -9.686  0.00  0.00    +0.210 HD
ENDBRANCH  55  62
BRANCH  54  64
ATOM     64  O   LIG    1       12.292  -5.551  -5.734  0.00  0.00    -0.386 OA
ATOM     65  H   LIG    1       13.127  -5.343  -6.194  0.00  0.00    +0.210 HD
ENDBRANCH  54  64
BRANCH  53  66
ATOM     66  O   LIG    1        8.828  -5.892  -7.132  0.00  0.00    -0.384 OA
ATOM     67  H   LIG    1        9.220  -5.644  -7.998  0.00  0.00    +0.210 HD
ENDBRANCH  53  66
ENDBRANCH  51  52
ENDBRANCH  37  51
ENDBRANCH   1  35
TORSDOF 24
