REMARK  Name = *****
REMARK                            x       y       z     vdW  Elec       q    Type
REMARK                         _______ _______ _______ _____ _____    ______ ____
ROOT
ATOM      1  C   LIG    1        4.428  -0.438   0.614  0.00  0.00    +0.242 C 
ATOM      2  N   LIG    1        4.683  -1.796   0.566  0.00  0.00    -0.313 N 
ATOM      3  H   LIG    1        3.882  -2.418   0.529  0.00  0.00    +0.149 HD
ATOM      4  O   LIG    1        5.311   0.412   0.534  0.00  0.00    -0.273 OA
ENDROOT
BRANCH   1   5
ATOM      5  C   LIG    1        2.930  -0.068   0.785  0.00  0.00    +0.208 C 
BRANCH   5   7
ATOM      6  C   LIG    1        2.761   1.307  -1.370  0.00  0.00    +0.016 C 
ATOM      7  C   LIG    1        2.143   0.158  -0.546  0.00  0.00    +0.023 C 
ATOM      8  C   LIG    1        0.690   0.590  -0.219  0.00  0.00    +0.016 C 
BRANCH   7   9
ATOM      9  C   LIG    1        2.087  -1.122  -1.408  0.00  0.00    +0.165 C 
BRANCH   9  10
ATOM     10  O   LIG    1        1.539  -2.207  -0.658  0.00  0.00    -0.394 OA
ATOM     11  H   LIG    1        1.296  -2.902  -1.303  0.00  0.00    +0.209 HD
ENDBRANCH   9  10
ENDBRANCH   7   9
ENDBRANCH   5   7
BRANCH   5  12
ATOM     12  O   LIG    1        2.317  -1.074   1.609  0.00  0.00    -0.382 OA
ATOM     13  H   LIG    1        2.021  -1.791   1.004  0.00  0.00    +0.210 HD
ENDBRANCH   5  12
ENDBRANCH   1   5
BRANCH   2  14
ATOM     14  C   LIG    1        6.009  -2.381   0.451  0.00  0.00    +0.115 C 
BRANCH  14  15
ATOM     15  C   LIG    1        6.361  -3.241   1.658  0.00  0.00    +0.139 C 
BRANCH  15  16
ATOM     16  C   LIG    1        5.431  -4.435   1.760  0.00  0.00    +0.306 C 
ATOM     17  O   LIG    1        5.560  -5.474   1.127  0.00  0.00    -0.251 OA
BRANCH  16  18
ATOM     18  O   LIG    1        4.381  -4.197   2.594  0.00  0.00    -0.481 OA
ATOM     19  H   LIG    1        4.384  -3.322   3.019  0.00  0.00    +0.295 HD
ENDBRANCH  16  18
ENDBRANCH  15  16
ENDBRANCH  14  15
ENDBRANCH   2  14
TORSDOF 9
