REMARK  Name = *****
REMARK                            x       y       z     vdW  Elec       q    Type
REMARK                         _______ _______ _______ _____ _____    ______ ____
ROOT
ATOM      1  CA  THR A  1        3.211  -1.503   0.608  0.00  0.00    +0.189 C 
ENDROOT
BRANCH   1   2
ATOM      2  N   THR A  1        2.483  -0.208   0.582  0.00  0.00    -0.316 NA
ATOM      3  H1  THR A  1        3.017   0.472   1.128  0.00  0.00    +0.119 HD
ATOM      4  H2  THR A  1        2.476   0.145  -0.376  0.00  0.00    +0.119 HD
ENDBRANCH   1   2
BRANCH   1   6
ATOM      5  CG2 THR A  1        3.173  -3.892  -0.306  0.00  0.00    +0.040 C 
ATOM      6  CB  THR A  1        2.522  -2.516  -0.330  0.00  0.00    +0.139 C 
BRANCH   6   7
ATOM      7  OG1 THR A  1        2.558  -2.013  -1.681  0.00  0.00    -0.390 OA
ATOM      8  HG1 THR A  1        1.893  -2.528  -2.181  0.00  0.00    +0.210 HD
ENDBRANCH   6   7
ENDBRANCH   1   6
BRANCH   1   9
ATOM      9  C   THR A  1        4.681  -1.256   0.228  0.00  0.00    +0.324 C 
ATOM     10  O   THR A  1        5.576  -1.117   1.049  0.00  0.00    -0.249 OA
BRANCH   9  11
ATOM     11  OXT THR A  1        4.884  -1.073  -1.100  0.00  0.00    -0.479 OA
ATOM     12  HXT THR A  1        4.053  -1.237  -1.611  0.00  0.00    +0.295 HD
ENDBRANCH   9  11
ENDBRANCH   1   9
TORSDOF 5
