REMARK  Name = *****
REMARK                            x       y       z     vdW  Elec       q    Type
REMARK                         _______ _______ _______ _____ _____    ______ ____
ROOT
ATOM      1  C   LIG    1        0.963   0.012   0.031  0.00  0.00    +0.105 C 
ATOM      2  N   LIG    1        2.416   0.027   0.152  0.00  0.00    -0.298 NA
ATOM      3  C   LIG    1        2.918   1.210   0.877  0.00  0.00    +0.088 C 
ATOM      4  C   LIG    1        4.317   0.781   1.345  0.00  0.00    +0.025 C 
ATOM      5  C   LIG    1        4.348  -0.736   1.195  0.00  0.00    +0.017 C 
ATOM      6  C   LIG    1        2.910  -1.125   0.908  0.00  0.00    +0.085 C 
ENDROOT
BRANCH   3   7
ATOM      7  C   LIG    1        2.964   2.473   0.055  0.00  0.00    -0.012 A 
ATOM      8  C   LIG    1        2.696   3.706   0.646  0.00  0.00    +0.115 A 
ATOM      9  N   LIG    1        2.734   4.892  -0.004  0.00  0.00    -0.263 NA
ATOM     10  C   LIG    1        3.060   4.852  -1.313  0.00  0.00    +0.111 A 
ATOM     11  C   LIG    1        3.354   3.686  -1.999  0.00  0.00    +0.020 A 
ATOM     12  C   LIG    1        3.308   2.483  -1.301  0.00  0.00    +0.008 A 
ENDBRANCH   3   7
TORSDOF 1
