REMARK  Name = *****
REMARK                            x       y       z     vdW  Elec       q    Type
REMARK                         _______ _______ _______ _____ _____    ______ ____
ROOT
ATOM      1  C   LIG    1       -0.841  -9.960  16.832  0.00  0.00    +0.030 A 
ATOM      2  C   LIG    1       -1.021 -11.304  16.465  0.00  0.00    +0.027 A 
ATOM      3  C   LIG    1       -0.755 -11.765  15.170  0.00  0.00    +0.047 A 
ATOM      4  C   LIG    1       -0.302 -10.879  14.204  0.00  0.00    +0.121 A 
ATOM      5  C   LIG    1       -0.141  -9.541  14.543  0.00  0.00    +0.047 A 
ATOM      6  C   LIG    1       -0.357  -9.103  15.842  0.00  0.00    +0.027 A 
ENDROOT
BRANCH   1  10
ATOM      7  N   LIG    1       -3.836  -9.226  19.099  0.00  0.00    -0.327 N 
ATOM      8  C   LIG    1       -3.320  -8.350  18.011  0.00  0.00    +0.124 C 
ATOM      9  C   LIG    1       -1.792  -8.151  18.177  0.00  0.00    +0.124 C 
ATOM     10  N   LIG    1       -1.091  -9.467  18.117  0.00  0.00    -0.327 N 
ATOM     11  C   LIG    1       -1.614 -10.403  19.146  0.00  0.00    +0.124 C 
ATOM     12  C   LIG    1       -3.157 -10.556  19.041  0.00  0.00    +0.124 C 
BRANCH   7  16
ATOM     13  C   LIG    1       -4.347  -7.435  22.943  0.00  0.00    +0.052 A 
ATOM     14  C   LIG    1       -4.243  -6.657  21.797  0.00  0.00    +0.028 A 
ATOM     15  C   LIG    1       -4.096  -7.250  20.540  0.00  0.00    +0.025 A 
ATOM     16  C   LIG    1       -4.008  -8.640  20.362  0.00  0.00    +0.030 A 
ATOM     17  C   LIG    1       -4.151  -9.404  21.522  0.00  0.00    +0.025 A 
ATOM     18  C   LIG    1       -4.298  -8.819  22.787  0.00  0.00    +0.028 A 
BRANCH  13  22
ATOM     19  N   LIG    1       -4.901  -6.468  26.358  0.00  0.00    -0.207 N 
ATOM     20  C   LIG    1       -4.674  -7.489  25.425  0.00  0.00    +0.351 C 
ATOM     21  O   LIG    1       -4.649  -8.673  25.689  0.00  0.00    -0.244 OA
ATOM     22  N   LIG    1       -4.529  -6.842  24.216  0.00  0.00    -0.250 N 
ATOM     23  C   LIG    1       -4.682  -5.530  24.495  0.00  0.00    +0.230 C 
ATOM     24  N   LIG    1       -4.932  -5.242  25.735  0.00  0.00    -0.157 NA
BRANCH  19  25
ATOM     25  C   LIG    1       -5.247  -6.676  27.755  0.00  0.00    +0.140 C 
BRANCH  25  27
ATOM     26  C   LIG    1       -4.607  -5.964  30.148  0.00  0.00    +0.006 C 
ATOM     27  C   LIG    1       -4.342  -5.819  28.657  0.00  0.00    +0.026 C 
ENDBRANCH  25  27
BRANCH  25  28
ATOM     28  C   LIG    1       -6.769  -6.498  28.001  0.00  0.00    +0.136 C 
ATOM     29  C   LIG    1       -7.634  -7.370  27.094  0.00  0.00    +0.040 C 
BRANCH  28  30
ATOM     30  O   LIG    1       -7.176  -5.137  27.846  0.00  0.00    -0.390 OA
ATOM     31  H   LIG    1       -6.800  -4.830  26.998  0.00  0.00    +0.210 HD
ENDBRANCH  28  30
ENDBRANCH  25  28
ENDBRANCH  19  25
ENDBRANCH  13  22
ENDBRANCH   7  16
ENDBRANCH   1  10
BRANCH   4  32
ATOM     32  O   LIG    1       -0.081 -11.376  12.952  0.00  0.00    -0.492 OA
BRANCH  32  33
ATOM     33  C   LIG    1        0.938 -10.704  12.213  0.00  0.00    +0.235 C 
BRANCH  33  34
ATOM     34  C   LIG    1        0.526 -10.576  10.758  0.00  0.00    +0.055 C 
ATOM     35  C   LIG    1        1.505  -9.719   9.978  0.00  0.00    +0.050 C 
ATOM     36  C   LIG    1        0.649  -8.930   8.965  0.00  0.00    +0.117 C 
ATOM     37  O   LIG    1       -0.727  -9.231   9.301  0.00  0.00    -0.366 OA
ATOM     38  C   LIG    1       -0.793  -9.857  10.581  0.00  0.00    +0.168 C 
BRANCH  36  39
ATOM     39  C   LIG    1        0.840  -7.406   9.096  0.00  0.00    +0.021 A 
ATOM     40  C   LIG    1       -0.222  -6.515   8.846  0.00  0.00    +0.132 A 
ATOM     41  F   LIG    1       -1.402  -6.969   8.402  0.00  0.00    -0.205 F 
ATOM     42  C   LIG    1       -0.098  -5.141   9.039  0.00  0.00    +0.077 A 
ATOM     43  C   LIG    1        1.111  -4.624   9.470  0.00  0.00    +0.126 A 
ATOM     44  F   LIG    1        1.236  -3.306   9.674  0.00  0.00    -0.205 F 
ATOM     45  C   LIG    1        2.201  -5.456   9.682  0.00  0.00    +0.039 A 
ATOM     46  C   LIG    1        2.072  -6.835   9.482  0.00  0.00    +0.012 A 
ENDBRANCH  36  39
BRANCH  36  47
ATOM     47  C   LIG    1        0.881  -9.380   7.504  0.00  0.00    +0.185 C 
BRANCH  47  48
ATOM     48  N   LIG    1        0.664 -10.797   7.265  0.00  0.00    -0.249 N 
ATOM     49  N   LIG    1        1.649 -11.575   6.770  0.00  0.00    -0.158 NA
ATOM     50  C   LIG    1        1.030 -12.756   6.673  0.00  0.00    +0.244 A 
ATOM     51  N   LIG    1       -0.271 -12.768   7.082  0.00  0.00    -0.223 NA
ATOM     52  C   LIG    1       -0.481 -11.518   7.425  0.00  0.00    +0.219 A 
ENDBRANCH  47  48
ENDBRANCH  36  47
ENDBRANCH  33  34
ENDBRANCH  32  33
ENDBRANCH   4  32
TORSDOF 13
