REMARK  Name = *****
REMARK                            x       y       z     vdW  Elec       q    Type
REMARK                         _______ _______ _______ _____ _____    ______ ____
ROOT
ATOM      1  C   LIG    1        3.149  -0.748  -1.491  0.00  0.00    +0.119 A 
ATOM      2  C   LIG    1        3.025  -2.124  -1.745  0.00  0.00    +0.083 A 
ATOM      3  C   LIG    1        3.356  -2.590  -3.045  0.00  0.00    +0.039 A 
ATOM      4  C   LIG    1        3.772  -1.738  -4.077  0.00  0.00    +0.055 A 
ATOM      5  N   LIG    1        4.178  -2.293  -5.288  0.00  0.00    -0.328 N 
ATOM      6  H   LIG    1        3.714  -3.167  -5.519  0.00  0.00    +0.147 HD
ATOM      7  C   LIG    1        4.375  -1.435  -6.432  0.00  0.00    +0.209 C 
ATOM      8  N   LIG    1        5.243  -0.337  -6.077  0.00  0.00    -0.173 NA
ATOM      9  H   LIG    1        5.569   0.191  -6.884  0.00  0.00    +0.150 HD
ATOM     10  S   LIG    1        4.497   0.706  -4.998  0.00  0.00    +0.062 S 
ATOM     11  O   LIG    1        3.351   1.270  -5.678  0.00  0.00    -0.153 OA
ATOM     12  O   LIG    1        5.530   1.542  -4.432  0.00  0.00    -0.153 OA
ATOM     13  C   LIG    1        3.904  -0.388  -3.763  0.00  0.00    +0.128 A 
ATOM     14  C   LIG    1        3.595   0.120  -2.497  0.00  0.00    +0.059 A 
ENDROOT
BRANCH   2  15
ATOM     15  C   LIG    1        2.579  -3.180  -0.757  0.00  0.00    +0.419 C 
ATOM     16  F   LIG    1        3.516  -4.167  -0.638  0.00  0.00    -0.166 F 
ATOM     17  F   LIG    1        1.448  -3.813  -1.182  0.00  0.00    -0.166 F 
ATOM     18  F   LIG    1        2.324  -2.789   0.515  0.00  0.00    -0.166 F 
ENDBRANCH   2  15
BRANCH   1  19
ATOM     19  S   LIG    1        2.746  -0.029   0.080  0.00  0.00    +0.057 S 
ATOM     20  O   LIG    1        3.169   1.352   0.087  0.00  0.00    -0.153 OA
ATOM     21  O   LIG    1        1.402  -0.421   0.420  0.00  0.00    -0.153 OA
BRANCH  19  22
ATOM     22  N   LIG    1        3.808  -0.812   1.112  0.00  0.00    -0.203 NA
ATOM     23  H   LIG    1        4.432  -0.135   1.554  0.00  0.00    +0.144 HD
ATOM     24  H   LIG    1        3.285  -1.388   1.776  0.00  0.00    +0.144 HD
ENDBRANCH  19  22
ENDBRANCH   1  19
TORSDOF 3
