REMARK  Name = *****
REMARK                            x       y       z     vdW  Elec       q    Type
REMARK                         _______ _______ _______ _____ _____    ______ ____
ROOT
ATOM      1  C   LIG    1        1.760  -1.608  -5.436  0.00  0.00    -0.021 C 
ATOM      2  C   LIG    1        2.180  -2.317  -4.260  0.00  0.00    +0.003 C 
ATOM      3  C   LIG    1        1.709  -1.615  -3.153  0.00  0.00    +0.047 C 
ATOM      4  C   LIG    1        1.859  -2.098  -1.847  0.00  0.00    +0.026 C 
ATOM      5  C   LIG    1        2.487  -3.345  -1.678  0.00  0.00    +0.006 C 
ATOM      6  C   LIG    1        3.019  -4.055  -2.762  0.00  0.00    -0.045 C 
ATOM      7  N   LIG    1        1.123  -0.464  -3.630  0.00  0.00    -0.360 NA
ATOM      8  H   LIG    1        0.725   0.264  -3.052  0.00  0.00    +0.165 HD
ATOM      9  C   LIG    1        2.925  -3.497  -4.048  0.00  0.00    +0.014 C 
ATOM     10  C   LIG    1        1.129  -0.458  -5.001  0.00  0.00    +0.087 C 
ENDROOT
BRANCH   1  11
ATOM     11  C   LIG    1        2.037  -2.017  -6.855  0.00  0.00    +0.052 C 
BRANCH  11  12
ATOM     12  C   LIG    1        2.817  -0.985  -7.701  0.00  0.00    +0.088 C 
BRANCH  12  14
ATOM     13  C   LIG    1        4.814   0.284  -8.191  0.00  0.00    +0.104 C 
ATOM     14  N   LIG    1        4.208  -0.692  -7.284  0.00  0.00    -0.308 NA
ATOM     15  C   LIG    1        4.303  -0.174  -5.920  0.00  0.00    +0.104 C 
ENDBRANCH  12  14
ENDBRANCH  11  12
ENDBRANCH   1  11
BRANCH   6  16
ATOM     16  C   LIG    1        3.573  -5.459  -2.602  0.00  0.00    +0.060 C 
BRANCH  16  17
ATOM     17  C   LIG    1        5.051  -5.567  -2.212  0.00  0.00    +0.118 C 
ATOM     18  N   LIG    1        5.960  -5.085  -3.206  0.00  0.00    -0.275 N 
ATOM     19  H   LIG    1        6.095  -4.108  -3.432  0.00  0.00    +0.152 HD
ATOM     20  C   LIG    1        7.075  -5.880  -3.276  0.00  0.00    +0.401 C 
ATOM     21  O   LIG    1        8.095  -5.601  -3.847  0.00  0.00    -0.227 OA
ATOM     22  O   LIG    1        6.863  -7.027  -2.559  0.00  0.00    -0.449 OA
ATOM     23  C   LIG    1        5.521  -7.005  -2.046  0.00  0.00    +0.256 C 
ENDBRANCH  16  17
ENDBRANCH   6  16
TORSDOF 5
