REMARK  Name = *****
REMARK                            x       y       z     vdW  Elec       q    Type
REMARK                         _______ _______ _______ _____ _____    ______ ____
ROOT
ATOM      1  C   LIG    1        7.381  -3.668   8.011  0.00  0.00    +0.150 C 
ATOM      2  C   LIG    1        8.279  -2.629   7.191  0.00  0.00    +0.060 C 
ATOM      3  C   LIG    1        8.084  -1.203   7.738  0.00  0.00    +0.014 C 
ATOM      4  C   LIG    1        8.050  -2.622   5.608  0.00  0.00    +0.187 C 
ATOM      5  C   LIG    1        8.774  -1.434   4.829  0.00  0.00    +0.056 C 
ATOM      6  C   LIG    1        8.214  -1.157   3.425  0.00  0.00    +0.014 C 
ATOM      7  C   LIG    1       10.335  -1.305   4.943  0.00  0.00    +0.126 C 
ATOM      8  C   LIG    1       11.483  -1.842   3.994  0.00  0.00    +0.044 C 
ATOM      9  C   LIG    1       11.254  -1.831   2.479  0.00  0.00    +0.013 C 
ATOM     10  C   LIG    1       12.193  -3.123   4.531  0.00  0.00    +0.126 C 
ATOM     11  C   LIG    1       13.643  -3.399   3.994  0.00  0.00    +0.037 C 
ATOM     12  C   LIG    1       14.500  -2.142   3.788  0.00  0.00    +0.014 C 
ATOM     13  C   LIG    1       14.498  -4.332   4.852  0.00  0.00    -0.021 C 
ATOM     14  C   LIG    1       14.335  -4.660   6.144  0.00  0.00    -0.003 C 
ATOM     15  C   LIG    1       15.311  -5.451   6.862  0.00  0.00    +0.008 C 
ATOM     16  C   LIG    1       15.231  -5.851   8.141  0.00  0.00    +0.011 C 
ATOM     17  C   LIG    1       16.223  -6.778   8.772  0.00  0.00    +0.049 C 
ATOM     18  C   LIG    1       14.032  -5.608   8.968  0.00  0.00    +0.244 C 
ATOM     19  O   LIG    1       13.027  -6.291   8.771  0.00  0.00    -0.270 OA
ATOM     20  N   LIG    1       14.178  -4.688   9.981  0.00  0.00    -0.278 N 
ATOM     21  H   LIG    1       14.858  -3.930   9.884  0.00  0.00    +0.155 HD
ATOM     22  C   LIG    1       13.296  -4.602  11.092  0.00  0.00    +0.089 A 
ATOM     23  C   LIG    1       12.600  -5.746  11.540  0.00  0.00    +0.150 A 
ATOM     24  C   LIG    1       11.422  -5.692  12.308  0.00  0.00    +0.071 A 
ATOM     25  C   LIG    1       10.989  -4.422  12.714  0.00  0.00    +0.046 A 
ATOM     26  C   LIG    1       11.919  -3.342  12.608  0.00  0.00    +0.136 A 
ATOM     27  C   LIG    1        9.630  -4.369  13.079  0.00  0.00    +0.079 A 
ATOM     28  C   LIG    1        8.768  -3.216  13.261  0.00  0.00    +0.251 C 
ATOM     29  C   LIG    1        7.331  -3.695  13.004  0.00  0.00    +0.314 C 
ATOM     30  O   LIG    1        7.426  -5.151  13.078  0.00  0.00    -0.444 OA
ATOM     31  C   LIG    1        6.434  -3.266  14.159  0.00  0.00    +0.114 C 
ATOM     32  O   LIG    1        6.768  -3.170  11.784  0.00  0.00    -0.453 OA
ATOM     33  C   LIG    1        7.358  -3.510  10.593  0.00  0.00    +0.190 C 
ATOM     34  O   LIG    1        9.172  -2.138  13.575  0.00  0.00    -0.284 OA
ATOM     35  C   LIG    1        8.771  -5.450  13.070  0.00  0.00    +0.143 A 
ATOM     36  C   LIG    1        9.266  -6.735  12.964  0.00  0.00    +0.034 A 
ATOM     37  C   LIG    1        8.418  -7.954  13.145  0.00  0.00    +0.051 C 
ATOM     38  C   LIG    1       10.607  -6.836  12.581  0.00  0.00    +0.135 A 
ATOM     39  C   LIG    1       13.051  -3.398  11.755  0.00  0.00    +0.061 A 
ATOM     40  C   LIG    1        6.871  -3.167   9.385  0.00  0.00    +0.042 C 
ENDROOT
BRANCH   1  42
ATOM     41  C   LIG    1        7.446  -5.967   8.778  0.00  0.00    +0.194 C 
ATOM     42  O   LIG    1        8.166  -4.859   8.228  0.00  0.00    -0.375 OA
ENDBRANCH   1  42
BRANCH   7  43
ATOM     43  O   LIG    1       10.552   0.138   4.945  0.00  0.00    -0.391 OA
ATOM     44  H   LIG    1       10.403   0.457   4.038  0.00  0.00    +0.210 HD
ENDBRANCH   7  43
BRANCH  10  45
ATOM     45  O   LIG    1       11.394  -4.269   4.244  0.00  0.00    -0.391 OA
ATOM     46  H   LIG    1       11.848  -5.047   4.618  0.00  0.00    +0.210 HD
ENDBRANCH  10  45
BRANCH  26  47
ATOM     47  O   LIG    1       11.764  -2.227  13.401  0.00  0.00    -0.505 OA
ATOM     48  H   LIG    1       10.847  -2.168  13.750  0.00  0.00    +0.292 HD
ENDBRANCH  26  47
BRANCH  38  49
ATOM     49  O   LIG    1       11.102  -8.108  12.409  0.00  0.00    -0.506 OA
ATOM     50  H   LIG    1       12.042  -8.017  12.141  0.00  0.00    +0.292 HD
ENDBRANCH  38  49
BRANCH  23  51
ATOM     51  O   LIG    1       13.022  -7.004  11.156  0.00  0.00    -0.504 OA
ATOM     52  H   LIG    1       12.824  -7.034  10.189  0.00  0.00    +0.292 HD
ENDBRANCH  23  51
BRANCH  39  53
ATOM     53  C   LIG    1       13.754  -2.111  11.466  0.00  0.00    +0.143 C 
ATOM     54  N   LIG    1       14.964  -1.813  11.065  0.00  0.00    -0.192 NA
BRANCH  54  55
ATOM     55  N   LIG    1       15.918  -2.763  10.884  0.00  0.00    -0.253 N 
ATOM     56  C   LIG    1       16.582  -3.287  12.101  0.00  0.00    +0.141 C 
ATOM     57  C   LIG    1       17.448  -4.503  11.729  0.00  0.00    +0.104 C 
ATOM     58  N   LIG    1       18.554  -4.217  10.801  0.00  0.00    -0.302 NA
ATOM     59  C   LIG    1       19.661  -3.576  11.505  0.00  0.00    +0.105 C 
ATOM     60  C   LIG    1       18.063  -3.432   9.653  0.00  0.00    +0.104 C 
ATOM     61  C   LIG    1       16.997  -2.343   9.942  0.00  0.00    +0.141 C 
ENDBRANCH  54  55
ENDBRANCH  39  53
BRANCH   4  62
ATOM     62  O   LIG    1        8.444  -3.855   4.990  0.00  0.00    -0.461 OA
BRANCH  62  63
ATOM     63  C   LIG    1        7.687  -4.197   3.904  0.00  0.00    +0.304 C 
ATOM     64  O   LIG    1        6.464  -4.200   3.872  0.00  0.00    -0.251 OA
ATOM     65  C   LIG    1        8.548  -4.405   2.695  0.00  0.00    +0.136 C 
ENDBRANCH  62  63
ENDBRANCH   4  62
TORSDOF 10
