REMARK  Name = *****
REMARK                            x       y       z     vdW  Elec       q    Type
REMARK                         _______ _______ _______ _____ _____    ______ ____
ROOT
ATOM      1  C   LIG    1        4.449  -2.364  -1.984  0.00  0.00    +0.065 C 
ATOM      2  C   LIG    1        4.237  -3.820  -1.497  0.00  0.00    +0.097 C 
ATOM      3  C   LIG    1        4.516  -4.883  -2.580  0.00  0.00    +0.065 C 
ATOM      4  C   LIG    1        4.885  -4.509  -3.832  0.00  0.00    +0.016 C 
ATOM      5  C   LIG    1        5.270  -5.437  -4.961  0.00  0.00    +0.061 C 
ATOM      6  N   LIG    1        4.995  -3.171  -4.143  0.00  0.00    -0.321 N 
ATOM      7  H   LIG    1        5.306  -2.938  -5.083  0.00  0.00    +0.152 HD
ATOM      8  C   LIG    1        4.838  -2.121  -3.261  0.00  0.00    +0.016 C 
ATOM      9  C   LIG    1        5.184  -0.779  -3.867  0.00  0.00    +0.061 C 
ENDROOT
BRANCH   2  10
ATOM     10  C   LIG    1        2.897  -4.028  -0.760  0.00  0.00    -0.015 A 
ATOM     11  C   LIG    1        1.623  -4.002  -1.365  0.00  0.00    +0.063 A 
ATOM     12 CL   LIG    1        1.463  -3.784  -3.078  0.00  0.00    -0.082 Cl
ATOM     13  C   LIG    1        0.464  -4.157  -0.575  0.00  0.00    +0.059 A 
ATOM     14 CL   LIG    1       -1.136  -4.103  -1.241  0.00  0.00    -0.082 Cl
ATOM     15  C   LIG    1        0.559  -4.352   0.806  0.00  0.00    +0.021 A 
ATOM     16  C   LIG    1        1.806  -4.396   1.413  0.00  0.00    +0.002 A 
ATOM     17  C   LIG    1        2.956  -4.233   0.640  0.00  0.00    +0.006 A 
ENDBRANCH   2  10
BRANCH   1  18
ATOM     18  C   LIG    1        4.293  -1.295  -0.949  0.00  0.00    +0.338 C 
ATOM     19  O   LIG    1        4.397  -1.489   0.245  0.00  0.00    -0.245 OA
BRANCH  18  20
ATOM     20  O   LIG    1        4.010  -0.098  -1.527  0.00  0.00    -0.462 OA
BRANCH  20  22
ATOM     21  C   LIG    1        5.297   1.570  -0.290  0.00  0.00    +0.048 C 
ATOM     22  C   LIG    1        3.920   1.052  -0.674  0.00  0.00    +0.229 C 
ENDBRANCH  20  22
ENDBRANCH  18  20
ENDBRANCH   1  18
BRANCH   3  23
ATOM     23  C   LIG    1        4.522  -6.303  -2.131  0.00  0.00    +0.337 C 
ATOM     24  O   LIG    1        4.739  -6.645  -0.976  0.00  0.00    -0.245 OA
BRANCH  23  25
ATOM     25  O   LIG    1        4.351  -7.154  -3.169  0.00  0.00    -0.465 OA
ATOM     26  C   LIG    1        5.005  -8.416  -3.037  0.00  0.00    +0.280 C 
ENDBRANCH  23  25
ENDBRANCH   3  23
TORSDOF 6
