REMARK  Name = *****
REMARK                            x       y       z     vdW  Elec       q    Type
REMARK                         _______ _______ _______ _____ _____    ______ ____
ROOT
ATOM      1  C   LIG    1       -1.095  -1.638   2.892  0.00  0.00    +0.021 C 
ATOM      2  C   LIG    1       -0.464  -0.273   3.345  0.00  0.00    +0.016 C 
ATOM      3  C   LIG    1        1.022  -0.295   3.685  0.00  0.00    +0.001 C 
ATOM      4  C   LIG    1        1.860  -0.879   2.564  0.00  0.00    +0.000 C 
ATOM      5  C   LIG    1        1.321  -2.224   2.107  0.00  0.00    +0.001 C 
ATOM      6  C   LIG    1       -0.161  -2.142   1.725  0.00  0.00    +0.016 C 
ENDROOT
BRANCH   1  10
ATOM      7  C   LIG    1       -1.471  -4.627   6.143  0.00  0.00    +0.122 A 
ATOM      8  C   LIG    1       -1.254  -5.003   4.825  0.00  0.00    +0.046 A 
ATOM      9  C   LIG    1       -1.099  -4.057   3.803  0.00  0.00    +0.008 A 
ATOM     10  C   LIG    1       -1.178  -2.679   4.048  0.00  0.00    -0.037 A 
ATOM     11  C   LIG    1       -1.364  -2.308   5.393  0.00  0.00    +0.008 A 
ATOM     12  C   LIG    1       -1.457  -3.263   6.433  0.00  0.00    +0.046 A 
BRANCH   7  13
ATOM     13  O   LIG    1       -1.726  -5.503   7.176  0.00  0.00    -0.475 OA
BRANCH  13  14
ATOM     14  C   LIG    1       -2.442  -6.739   6.899  0.00  0.00    +0.203 C 
ATOM     15  C   LIG    1       -3.063  -7.201   8.240  0.00  0.00    +0.068 C 
BRANCH  14  17
ATOM     16  C   LIG    1       -2.123  -9.221   6.107  0.00  0.00    +0.008 C 
ATOM     17  C   LIG    1       -1.486  -7.868   6.418  0.00  0.00    +0.056 C 
ENDBRANCH  14  17
BRANCH  14  18
ATOM     18  C   LIG    1       -3.668  -6.471   5.968  0.00  0.00    +0.349 C 
ATOM     19  O   LIG    1       -3.920  -7.105   4.952  0.00  0.00    -0.246 OA
BRANCH  18  20
ATOM     20  O   LIG    1       -4.477  -5.477   6.388  0.00  0.00    -0.478 OA
ATOM     21  H   LIG    1       -4.095  -5.006   7.133  0.00  0.00    +0.295 HD
ENDBRANCH  18  20
ENDBRANCH  14  18
ENDBRANCH  13  14
ENDBRANCH   7  13
ENDBRANCH   1  10
BRANCH   1  22
ATOM     22  C   LIG    1       -2.534  -1.331   2.346  0.00  0.00    -0.037 A 
ATOM     23  C   LIG    1       -3.072  -2.018   1.252  0.00  0.00    +0.008 A 
ATOM     24  C   LIG    1       -4.315  -1.663   0.701  0.00  0.00    +0.046 A 
ATOM     25  C   LIG    1       -5.102  -0.649   1.242  0.00  0.00    +0.122 A 
ATOM     26  C   LIG    1       -4.610   0.014   2.364  0.00  0.00    +0.046 A 
ATOM     27  C   LIG    1       -3.348  -0.319   2.899  0.00  0.00    +0.008 A 
BRANCH  25  28
ATOM     28  O   LIG    1       -6.358  -0.289   0.818  0.00  0.00    -0.475 OA
BRANCH  28  29
ATOM     29  C   LIG    1       -6.771  -0.503  -0.549  0.00  0.00    +0.203 C 
ATOM     30  C   LIG    1       -5.968   0.398  -1.497  0.00  0.00    +0.068 C 
BRANCH  29  31
ATOM     31  C   LIG    1       -6.775  -1.963  -1.021  0.00  0.00    +0.349 C 
ATOM     32  O   LIG    1       -6.544  -2.336  -2.196  0.00  0.00    -0.246 OA
BRANCH  31  33
ATOM     33  O   LIG    1       -7.027  -2.867  -0.049  0.00  0.00    -0.478 OA
ATOM     34  H   LIG    1       -7.045  -2.447   0.853  0.00  0.00    +0.295 HD
ENDBRANCH  31  33
ENDBRANCH  29  31
BRANCH  29  35
ATOM     35  C   LIG    1       -8.279  -0.108  -0.667  0.00  0.00    +0.056 C 
ATOM     36  C   LIG    1       -8.622   1.341  -0.335  0.00  0.00    +0.008 C 
ENDBRANCH  29  35
ENDBRANCH  28  29
ENDBRANCH  25  28
ENDBRANCH   1  22
TORSDOF 12
