REMARK  Name = *****
REMARK                            x       y       z     vdW  Elec       q    Type
REMARK                         _______ _______ _______ _____ _____    ______ ____
ROOT
ATOM      1  C   LIG    1       -0.438   0.034   0.631  0.00  0.00    +0.015 C 
ATOM      2  C   LIG    1       -1.832  -0.001  -0.039  0.00  0.00    +0.008 C 
ATOM      3  C   LIG    1       -2.454  -1.393   0.256  0.00  0.00    +0.183 C 
ATOM      4  C   LIG    1       -1.758  -2.318  -0.775  0.00  0.00    +0.045 C 
ATOM      5  C   LIG    1       -1.275  -1.410  -1.926  0.00  0.00    +0.008 C 
ATOM      6  C   LIG    1       -1.859  -0.045  -1.584  0.00  0.00    +0.002 C 
ATOM      7  C   LIG    1       -1.374   1.205  -2.323  0.00  0.00    -0.003 C 
ATOM      8  C   LIG    1       -2.197   2.429  -1.815  0.00  0.00    -0.000 C 
ATOM      9  C   LIG    1       -1.777   3.730  -2.568  0.00  0.00    +0.019 C 
ATOM     10  C   LIG    1       -0.272   3.919  -2.586  0.00  0.00    -0.063 C 
ATOM     11  C   LIG    1        0.524   2.721  -3.038  0.00  0.00    +0.031 C 
ATOM     12  C   LIG    1        0.333   5.085  -2.306  0.00  0.00    +0.045 C 
ATOM     13  C   LIG    1       -0.469   6.318  -2.120  0.00  0.00    +0.156 C 
ATOM     14  O   LIG    1        0.075   7.347  -1.730  0.00  0.00    -0.293 OA
ATOM     15  C   LIG    1       -1.915   6.271  -2.551  0.00  0.00    +0.079 C 
ATOM     16  C   LIG    1       -2.541   4.973  -2.067  0.00  0.00    +0.016 C 
ATOM     17  C   LIG    1       -2.177   2.520  -0.267  0.00  0.00    +0.005 C 
ATOM     18  C   LIG    1        0.139   1.455  -2.282  0.00  0.00    +0.008 C 
ATOM     19  C   LIG    1       -2.643   1.219   0.420  0.00  0.00    +0.011 C 
ENDROOT
BRANCH   3  20
ATOM     20  O   LIG    1       -3.870  -1.346  -0.013  0.00  0.00    -0.461 OA
BRANCH  20  21
ATOM     21  C   LIG    1       -4.601  -2.406   0.416  0.00  0.00    +0.308 C 
ATOM     22  O   LIG    1       -4.155  -3.365   1.035  0.00  0.00    -0.251 OA
BRANCH  21  23
ATOM     23  C   LIG    1       -6.046  -2.218   0.035  0.00  0.00    +0.125 C 
BRANCH  23  24
ATOM     24  C   LIG    1       -6.706  -3.576  -0.179  0.00  0.00    +0.046 C 
BRANCH  24  25
ATOM     25  C   LIG    1       -8.151  -3.449  -0.587  0.00  0.00    -0.047 A 
ATOM     26  C   LIG    1       -9.157  -3.381   0.386  0.00  0.00    +0.003 A 
ATOM     27  C   LIG    1      -10.496  -3.268   0.011  0.00  0.00    +0.000 A 
ATOM     28  C   LIG    1      -10.841  -3.217  -1.339  0.00  0.00    +0.000 A 
ATOM     29  C   LIG    1       -9.847  -3.276  -2.314  0.00  0.00    +0.000 A 
ATOM     30  C   LIG    1       -8.507  -3.388  -1.940  0.00  0.00    +0.003 A 
ENDBRANCH  24  25
ENDBRANCH  23  24
ENDBRANCH  21  23
ENDBRANCH  20  21
ENDBRANCH   3  20
TORSDOF 5
