REMARK  Name = *****
REMARK                            x       y       z     vdW  Elec       q    Type
REMARK                         _______ _______ _______ _____ _____    ______ ____
ROOT
ATOM      1  C   LIG    1        3.395   3.583  -0.898  0.00  0.00    -0.015 A 
ATOM      2  C   LIG    1        3.098   3.902   0.434  0.00  0.00    +0.028 A 
ATOM      3  C   LIG    1        1.902   4.551   0.769  0.00  0.00    +0.063 A 
ATOM      4 CL   LIG    1        1.599   4.887   2.439  0.00  0.00    -0.082 Cl
ATOM      5  C   LIG    1        0.981   4.945  -0.221  0.00  0.00    +0.062 A 
ATOM      6  C   LIG    1        1.267   4.583  -1.545  0.00  0.00    +0.063 A 
ATOM      7 CL   LIG    1        0.161   4.965  -2.823  0.00  0.00    -0.082 Cl
ATOM      8  C   LIG    1        2.457   3.930  -1.884  0.00  0.00    +0.028 A 
ENDROOT
BRANCH   5   9
ATOM      9  N   LIG    1       -0.280   5.480   0.133  0.00  0.00    -0.356 N 
ATOM     10  H   LIG    1       -0.269   5.982   1.016  0.00  0.00    +0.142 HD
ATOM     11  H   LIG    1       -0.710   6.006  -0.627  0.00  0.00    +0.142 HD
ENDBRANCH   5   9
BRANCH   1  12
ATOM     12  C   LIG    1        4.699   2.891  -1.258  0.00  0.00    +0.158 C 
BRANCH  12  13
ATOM     13  O   LIG    1        4.823   2.729  -2.676  0.00  0.00    -0.386 OA
ATOM     14  H   LIG    1        4.653   1.781  -2.845  0.00  0.00    +0.210 HD
ENDBRANCH  12  13
BRANCH  12  15
ATOM     15  C   LIG    1        4.902   1.512  -0.576  0.00  0.00    +0.117 C 
BRANCH  15  16
ATOM     16  N   LIG    1        3.907   0.516  -1.022  0.00  0.00    -0.309 NA
ATOM     17  H   LIG    1        2.970   0.882  -0.832  0.00  0.00    +0.122 HD
BRANCH  16  19
ATOM     18  C   LIG    1        2.898  -1.700  -0.950  0.00  0.00    +0.027 C 
ATOM     19  C   LIG    1        4.031  -0.816  -0.388  0.00  0.00    +0.011 C 
ATOM     20  C   LIG    1        5.373  -1.476  -0.743  0.00  0.00    +0.027 C 
ATOM     21  C   LIG    1        3.863  -0.745   1.140  0.00  0.00    +0.027 C 
ENDBRANCH  16  19
ENDBRANCH  15  16
ENDBRANCH  12  15
ENDBRANCH   1  12
TORSDOF 6
