REMARK  Name = *****
REMARK                            x       y       z     vdW  Elec       q    Type
REMARK                         _______ _______ _______ _____ _____    ______ ____
ROOT
ATOM      1  C   LIG    1        2.021   1.060   2.149  0.00  0.00    +0.134 C 
ATOM      2  N   LIG    1        3.192   1.463   1.617  0.00  0.00    -0.276 N 
ATOM      3  C   LIG    1        4.159   1.038   2.486  0.00  0.00    +0.347 C 
ATOM      4  O   LIG    1        5.377   1.093   2.318  0.00  0.00    -0.245 OA
ATOM      5  N   LIG    1        3.475   0.503   3.573  0.00  0.00    -0.213 N 
ATOM      6  N   LIG    1        2.124   0.484   3.314  0.00  0.00    -0.154 NA
ENDROOT
BRANCH   1   8
ATOM      7  C   LIG    1        0.152   2.657   1.878  0.00  0.00    +0.012 C 
ATOM      8  C   LIG    1        0.699   1.299   1.482  0.00  0.00    +0.073 C 
ENDBRANCH   1   8
BRANCH   2   9
ATOM      9  C   LIG    1        3.457   2.077   0.329  0.00  0.00    +0.169 C 
BRANCH   9  10
ATOM     10  C   LIG    1        3.730   1.052  -0.776  0.00  0.00    +0.250 C 
BRANCH  10  11
ATOM     11  O   LIG    1        2.552   0.264  -0.991  0.00  0.00    -0.490 OA
BRANCH  11  12
ATOM     12  C   LIG    1        2.372  -0.239  -2.250  0.00  0.00    +0.121 A 
ATOM     13  C   LIG    1        3.389  -0.424  -3.186  0.00  0.00    +0.045 A 
ATOM     14  C   LIG    1        3.087  -0.886  -4.468  0.00  0.00    +0.004 A 
ATOM     15  C   LIG    1        1.773  -1.201  -4.809  0.00  0.00    +0.000 A 
ATOM     16  C   LIG    1        0.759  -1.064  -3.862  0.00  0.00    +0.004 A 
ATOM     17  C   LIG    1        1.060  -0.587  -2.584  0.00  0.00    +0.045 A 
ENDBRANCH  11  12
ENDBRANCH  10  11
ENDBRANCH   9  10
ENDBRANCH   2   9
BRANCH   5  18
ATOM     18  C   LIG    1        4.057  -0.220   4.684  0.00  0.00    +0.150 C 
BRANCH  18  19
ATOM     19  C   LIG    1        4.245  -1.690   4.336  0.00  0.00    +0.039 C 
BRANCH  19  20
ATOM     20  C   LIG    1        4.840  -2.491   5.502  0.00  0.00    +0.086 C 
BRANCH  20  21
ATOM     21  N   LIG    1        4.934  -3.928   5.189  0.00  0.00    -0.299 NA
ATOM     22  C   LIG    1        5.621  -4.692   6.259  0.00  0.00    +0.103 C 
ATOM     23  C   LIG    1        4.823  -4.864   7.574  0.00  0.00    +0.120 C 
ATOM     24  N   LIG    1        3.497  -5.462   7.301  0.00  0.00    -0.327 N 
ATOM     25  C   LIG    1        2.744  -4.729   6.258  0.00  0.00    +0.120 C 
ATOM     26  C   LIG    1        3.607  -4.558   4.985  0.00  0.00    +0.103 C 
BRANCH  24  27
ATOM     27  C   LIG    1        2.791  -6.100   8.323  0.00  0.00    +0.031 A 
ATOM     28  C   LIG    1        3.289  -6.212   9.632  0.00  0.00    +0.043 A 
ATOM     29  C   LIG    1        2.581  -6.876  10.640  0.00  0.00    +0.043 A 
ATOM     30 CL   LIG    1        3.240  -6.955  12.230  0.00  0.00    -0.084 Cl
ATOM     31  C   LIG    1        1.350  -7.458  10.377  0.00  0.00    +0.020 A 
ATOM     32  C   LIG    1        0.838  -7.392   9.089  0.00  0.00    +0.003 A 
ATOM     33  C   LIG    1        1.557  -6.734   8.081  0.00  0.00    +0.023 A 
ENDBRANCH  24  27
ENDBRANCH  20  21
ENDBRANCH  19  20
ENDBRANCH  18  19
ENDBRANCH   5  18
TORSDOF 10
