REMARK  Name = *****
REMARK                            x       y       z     vdW  Elec       q    Type
REMARK                         _______ _______ _______ _____ _____    ______ ____
ROOT
ATOM      1  C   LIG    1        4.199  -1.446  -0.544  0.00  0.00    +0.199 C 
ENDROOT
BRANCH   1   2
ATOM      2  N   LIG    1        4.828  -2.789  -0.864  0.00  0.00    -0.282 NA
ATOM      3  C   LIG    1        4.277  -3.260  -2.174  0.00  0.00    +0.121 C 
ATOM      4  C   LIG    1        5.114  -4.335  -2.818  0.00  0.00    -0.023 A 
ATOM      5  C   LIG    1        6.385  -4.652  -2.393  0.00  0.00    -0.005 A 
ATOM      6  S   LIG    1        7.138  -5.849  -3.330  0.00  0.00    -0.101 S 
ATOM      7  C   LIG    1        5.774  -5.963  -4.359  0.00  0.00    +0.045 A 
ATOM      8  C   LIG    1        7.033  -4.002  -1.225  0.00  0.00    +0.058 C 
ATOM      9  C   LIG    1        4.763  -5.107  -3.972  0.00  0.00    +0.013 A 
ATOM     10  C   LIG    1        6.315  -2.664  -0.940  0.00  0.00    +0.091 C 
ENDBRANCH   1   2
BRANCH   1  11
ATOM     11  C   LIG    1        2.668  -1.467  -0.435  0.00  0.00    -0.001 A 
ATOM     12  C   LIG    1        1.855  -0.632  -1.227  0.00  0.00    +0.046 A 
ATOM     13 CL   LIG    1        2.507   0.512  -2.349  0.00  0.00    -0.083 Cl
ATOM     14  C   LIG    1        0.459  -0.682  -1.130  0.00  0.00    +0.020 A 
ATOM     15  C   LIG    1       -0.154  -1.544  -0.226  0.00  0.00    +0.001 A 
ATOM     16  C   LIG    1        0.630  -2.341   0.602  0.00  0.00    +0.000 A 
ATOM     17  C   LIG    1        2.026  -2.304   0.501  0.00  0.00    +0.007 A 
ENDBRANCH   1  11
BRANCH   1  18
ATOM     18  C   LIG    1        4.801  -0.783   0.725  0.00  0.00    +0.329 C 
ATOM     19  O   LIG    1        4.476  -0.980   1.883  0.00  0.00    -0.249 OA
BRANCH  18  21
ATOM     20  C   LIG    1        6.379   0.846   1.385  0.00  0.00    +0.280 C 
ATOM     21  O   LIG    1        5.786   0.093   0.330  0.00  0.00    -0.467 OA
ENDBRANCH  18  21
ENDBRANCH   1  18
TORSDOF 4
