REMARK  Name = *****
REMARK                            x       y       z     vdW  Elec       q    Type
REMARK                         _______ _______ _______ _____ _____    ______ ____
ROOT
ATOM      1  C   LIG    1       -7.356  -3.861  -0.728  0.00  0.00    +0.065 C 
ATOM      2  C   LIG    1       -6.648  -4.994  -1.522  0.00  0.00    -0.019 C 
ATOM      3  C   LIG    1       -5.120  -5.054  -1.246  0.00  0.00    +0.012 C 
ATOM      4  C   LIG    1       -6.827  -4.542  -3.001  0.00  0.00    -0.001 C 
ATOM      5  C   LIG    1       -8.120  -5.013  -3.713  0.00  0.00    -0.003 C 
ATOM      6  C   LIG    1       -8.500  -6.488  -3.448  0.00  0.00    +0.002 C 
ATOM      7  C   LIG    1       -8.553  -6.706  -1.927  0.00  0.00    +0.005 C 
ATOM      8  C   LIG    1       -7.757  -7.599  -4.301  0.00  0.00    -0.007 C 
ATOM      9  C   LIG    1       -8.630  -8.888  -4.233  0.00  0.00    +0.016 C 
ATOM     10  C   LIG    1       -7.570  -7.145  -5.757  0.00  0.00    -0.060 C 
ATOM     11  C   LIG    1       -7.144  -8.031  -6.684  0.00  0.00    +0.046 C 
ATOM     12  C   LIG    1       -5.761  -8.491  -6.284  0.00  0.00    +0.156 C 
ATOM     13  O   LIG    1       -4.916  -8.698  -7.150  0.00  0.00    -0.293 OA
ATOM     14  C   LIG    1       -5.533  -8.839  -4.819  0.00  0.00    +0.080 C 
ATOM     15  C   LIG    1       -7.176  -5.700  -5.974  0.00  0.00    +0.032 C 
ATOM     16  C   LIG    1       -6.328  -7.969  -3.830  0.00  0.00    +0.019 C 
ATOM     17  C   LIG    1       -8.097  -4.745  -5.229  0.00  0.00    +0.008 C 
ATOM     18  C   LIG    1       -6.748  -2.998  -2.933  0.00  0.00    +0.005 C 
ATOM     19  C   LIG    1       -7.262  -6.369  -1.190  0.00  0.00    +0.008 C 
ATOM     20  C   LIG    1       -6.976  -2.587  -1.477  0.00  0.00    +0.012 C 
ENDROOT
BRANCH   1  21
ATOM     21  C   LIG    1       -7.041  -3.775   0.771  0.00  0.00    +0.174 C 
ATOM     22  O   LIG    1       -6.348  -4.610   1.358  0.00  0.00    -0.293 OA
BRANCH  21  23
ATOM     23  C   LIG    1       -7.688  -2.632   1.552  0.00  0.00    +0.306 C 
BRANCH  23  24
ATOM     24  O   LIG    1       -7.981  -3.029   2.895  0.00  0.00    -0.457 OA
BRANCH  24  26
ATOM     25  C   LIG    1       -9.157  -4.457   4.370  0.00  0.00    +0.136 C 
ATOM     26  C   LIG    1       -9.032  -3.884   2.987  0.00  0.00    +0.304 C 
ATOM     27  O   LIG    1       -9.758  -4.206   2.042  0.00  0.00    -0.251 OA
ENDBRANCH  24  26
ENDBRANCH  23  24
ENDBRANCH  21  23
ENDBRANCH   1  21
TORSDOF 4
