REMARK  Name = *****
REMARK                            x       y       z     vdW  Elec       q    Type
REMARK                         _______ _______ _______ _____ _____    ______ ____
ROOT
ATOM      1  C   LIG    1        4.712  -0.287  -1.617  0.00  0.00    +0.107 A 
ATOM      2  C   LIG    1        5.498   0.817  -1.252  0.00  0.00    +0.053 A 
ATOM      3  C   LIG    1        6.902   0.844  -1.414  0.00  0.00    +0.050 A 
ATOM      4  N   LIG    1        7.684   1.975  -1.035  0.00  0.00    -0.298 N 
ATOM      5  C   LIG    1        9.109   2.035  -1.043  0.00  0.00    +0.048 A 
ATOM      6  C   LIG    1        9.893   1.016  -1.620  0.00  0.00    +0.034 A 
ATOM      7  S   LIG    1        9.218  -0.470  -2.325  0.00  0.00    -0.086 S 
ATOM      8  C   LIG    1       11.299   1.125  -1.671  0.00  0.00    +0.017 A 
ATOM      9  C   LIG    1       11.956   2.224  -1.127  0.00  0.00    +0.001 A 
ATOM     10  C   LIG    1       11.213   3.215  -0.511  0.00  0.00    +0.002 A 
ATOM     11  C   LIG    1        9.819   3.115  -0.467  0.00  0.00    +0.024 A 
ATOM     12  C   LIG    1        7.483  -0.315  -1.970  0.00  0.00    +0.034 A 
ATOM     13  C   LIG    1        6.689  -1.425  -2.335  0.00  0.00    +0.019 A 
ATOM     14  C   LIG    1        5.306  -1.410  -2.173  0.00  0.00    +0.030 A 
ENDROOT
BRANCH   1  15
ATOM     15  S   LIG    1        2.937  -0.153  -1.500  0.00  0.00    +0.060 S 
ATOM     16  O   LIG    1        2.650   1.064  -0.772  0.00  0.00    -0.153 OA
ATOM     17  O   LIG    1        2.425  -0.359  -2.841  0.00  0.00    -0.153 OA
BRANCH  15  19
ATOM     18  C   LIG    1        2.483  -2.813  -1.045  0.00  0.00    +0.131 C 
ATOM     19  N   LIG    1        2.435  -1.442  -0.531  0.00  0.00    -0.183 NA
ATOM     20  C   LIG    1        2.611  -1.326   0.919  0.00  0.00    +0.131 C 
ENDBRANCH  15  19
ENDBRANCH   1  15
BRANCH   4  21
ATOM     21  C   LIG    1        6.964   3.212  -0.625  0.00  0.00    +0.112 C 
BRANCH  21  22
ATOM     22  C   LIG    1        6.675   3.201   0.885  0.00  0.00    +0.035 C 
BRANCH  22  23
ATOM     23  C   LIG    1        5.916   4.456   1.342  0.00  0.00    +0.086 C 
BRANCH  23  24
ATOM     24  N   LIG    1        5.636   4.472   2.794  0.00  0.00    -0.302 NA
ATOM     25  C   LIG    1        5.091   5.765   3.245  0.00  0.00    +0.085 C 
ATOM     26  C   LIG    1        3.691   6.043   2.691  0.00  0.00    +0.019 C 
ATOM     27  C   LIG    1        2.686   4.959   3.113  0.00  0.00    -0.007 C 
ATOM     28  C   LIG    1        3.280   3.568   2.818  0.00  0.00    +0.019 C 
ATOM     29  C   LIG    1        4.742   3.397   3.250  0.00  0.00    +0.085 C 
BRANCH  27  30
ATOM     30  C   LIG    1        2.215   5.076   4.576  0.00  0.00    +0.031 C 
BRANCH  30  31
ATOM     31  C   LIG    1        1.587   6.430   4.906  0.00  0.00    +0.156 C 
BRANCH  31  32
ATOM     32  O   LIG    1        1.166   6.456   6.264  0.00  0.00    -0.395 OA
ATOM     33  H   LIG    1        0.532   5.731   6.391  0.00  0.00    +0.209 HD
ENDBRANCH  31  32
ENDBRANCH  30  31
ENDBRANCH  27  30
ENDBRANCH  23  24
ENDBRANCH  22  23
ENDBRANCH  21  22
ENDBRANCH   4  21
TORSDOF 9
