REMARK  Name = *****
REMARK                            x       y       z     vdW  Elec       q    Type
REMARK                         _______ _______ _______ _____ _____    ______ ____
ROOT
ATOM      1  C   LIG    1        7.163  -3.779  -5.848  0.00  0.00    +0.169 C 
ATOM      2  C   LIG    1        7.971  -3.223  -7.065  0.00  0.00    +0.084 C 
ATOM      3  C   LIG    1        8.202  -1.696  -6.927  0.00  0.00    +0.042 C 
ATOM      4  C   LIG    1        7.232  -1.034  -5.929  0.00  0.00    +0.084 C 
ATOM      5  C   LIG    1        5.792  -1.585  -6.130  0.00  0.00    +0.169 C 
ATOM      6  C   LIG    1        5.748  -3.127  -5.878  0.00  0.00    +0.175 C 
ENDROOT
BRANCH   2   7
ATOM      7  N   LIG    1        7.322  -3.551  -8.346  0.00  0.00    -0.325 NA
ATOM      8  H   LIG    1        7.908  -3.256  -9.129  0.00  0.00    +0.118 HD
ATOM      9  H   LIG    1        6.450  -3.016  -8.453  0.00  0.00    +0.118 HD
ENDBRANCH   2   7
BRANCH   4  10
ATOM     10  N   LIG    1        7.356   0.431  -6.010  0.00  0.00    -0.325 NA
ATOM     11  H   LIG    1        8.269   0.717  -5.652  0.00  0.00    +0.118 HD
ATOM     12  H   LIG    1        6.662   0.860  -5.399  0.00  0.00    +0.118 HD
ENDBRANCH   4  10
BRANCH   6  13
ATOM     13  O   LIG    1        4.934  -3.448  -4.745  0.00  0.00    -0.387 OA
ATOM     14  H   LIG    1        4.862  -4.421  -4.730  0.00  0.00    +0.210 HD
ENDBRANCH   6  13
BRANCH   1  15
ATOM     15  O   LIG    1        7.942  -3.507  -4.661  0.00  0.00    -0.342 OA
BRANCH  15  18
ATOM     16  C   LIG    1        6.633  -5.987  -2.335  0.00  0.00    +0.138 C 
ATOM     17  O   LIG    1        7.284  -5.439  -3.499  0.00  0.00    -0.345 OA
ATOM     18  C   LIG    1        7.404  -4.017  -3.441  0.00  0.00    +0.268 C 
ATOM     19  C   LIG    1        8.300  -3.575  -2.245  0.00  0.00    +0.107 C 
ATOM     20  C   LIG    1        7.700  -4.148  -0.959  0.00  0.00    +0.026 C 
ATOM     21  C   LIG    1        7.442  -5.649  -1.073  0.00  0.00    +0.035 C 
BRANCH  19  22
ATOM     22  N   LIG    1        9.710  -3.998  -2.373  0.00  0.00    -0.323 NA
ATOM     23  H   LIG    1        9.722  -4.841  -2.955  0.00  0.00    +0.119 HD
ATOM     24  H   LIG    1       10.190  -3.305  -2.952  0.00  0.00    +0.119 HD
ENDBRANCH  19  22
BRANCH  16  25
ATOM     25  C   LIG    1        6.482  -7.526  -2.549  0.00  0.00    +0.079 C 
ATOM     26  C   LIG    1        5.930  -8.263  -1.326  0.00  0.00    +0.026 C 
BRANCH  25  28
ATOM     27  C   LIG    1        4.306  -7.575  -3.743  0.00  0.00    +0.101 C 
ATOM     28  N   LIG    1        5.729  -7.874  -3.776  0.00  0.00    -0.314 NA
ATOM     29  H   LIG    1        6.166  -7.378  -4.556  0.00  0.00    +0.122 HD
ENDBRANCH  25  28
ENDBRANCH  16  25
ENDBRANCH  15  18
ENDBRANCH   1  15
BRANCH   5  30
ATOM     30  O   LIG    1        5.338  -1.450  -7.488  0.00  0.00    -0.341 OA
BRANCH  30  31
ATOM     31  C   LIG    1        5.197  -0.122  -8.007  0.00  0.00    +0.281 C 
ATOM     32  C   LIG    1        4.791  -0.298  -9.503  0.00  0.00    +0.190 C 
ATOM     33  C   LIG    1        3.246  -0.516  -9.549  0.00  0.00    +0.121 C 
ATOM     34  C   LIG    1        2.559   0.750  -8.920  0.00  0.00    +0.104 C 
ATOM     35  C   LIG    1        1.272   0.357  -8.191  0.00  0.00    +0.045 C 
ATOM     36  C   LIG    1        3.500   1.511  -7.970  0.00  0.00    +0.199 C 
ATOM     37  O   LIG    1        4.280   0.604  -7.204  0.00  0.00    -0.346 OA
BRANCH  33  38
ATOM     38  N   LIG    1        2.635  -0.751 -10.890  0.00  0.00    -0.311 NA
ATOM     39  H   LIG    1        1.626  -0.952 -10.741  0.00  0.00    +0.122 HD
ATOM     40  C   LIG    1        3.192  -1.912 -11.577  0.00  0.00    +0.101 C 
ENDBRANCH  33  38
BRANCH  32  41
ATOM     41  O   LIG    1        5.545  -1.349 -10.110  0.00  0.00    -0.385 OA
ATOM     42  H   LIG    1        6.480  -1.228  -9.830  0.00  0.00    +0.210 HD
ENDBRANCH  32  41
BRANCH  34  43
ATOM     43  O   LIG    1        2.195   1.662  -9.974  0.00  0.00    -0.385 OA
ATOM     44  H   LIG    1        2.246   1.127 -10.796  0.00  0.00    +0.210 HD
ENDBRANCH  34  43
ENDBRANCH  30  31
ENDBRANCH   5  30
TORSDOF 13
