REMARK  Name = *****
REMARK                            x       y       z     vdW  Elec       q    Type
REMARK                         _______ _______ _______ _____ _____    ______ ____
ROOT
ATOM      1  C   LIG    1        4.854  -0.263   3.029  0.00  0.00    +0.065 C 
ATOM      2  C   LIG    1        4.628  -1.539   3.866  0.00  0.00    +0.097 C 
ATOM      3  C   LIG    1        5.599  -1.626   5.060  0.00  0.00    +0.065 C 
ATOM      4  C   LIG    1        6.214  -0.502   5.512  0.00  0.00    +0.016 C 
ATOM      5  C   LIG    1        7.173  -0.434   6.672  0.00  0.00    +0.061 C 
ATOM      6  N   LIG    1        5.968   0.708   4.881  0.00  0.00    -0.321 N 
ATOM      7  H   LIG    1        6.524   1.500   5.200  0.00  0.00    +0.152 HD
ATOM      8  C   LIG    1        5.437   0.821   3.603  0.00  0.00    +0.016 C 
ATOM      9  C   LIG    1        5.593   2.192   2.991  0.00  0.00    +0.061 C 
ENDROOT
BRANCH   2  10
ATOM     10  C   LIG    1        3.158  -1.629   4.341  0.00  0.00    -0.015 A 
ATOM     11  C   LIG    1        2.274  -2.670   3.975  0.00  0.00    +0.063 A 
ATOM     12 CL   LIG    1        2.735  -3.865   2.803  0.00  0.00    -0.082 Cl
ATOM     13  C   LIG    1        0.994  -2.745   4.563  0.00  0.00    +0.059 A 
ATOM     14 CL   LIG    1       -0.120  -4.030   4.222  0.00  0.00    -0.082 Cl
ATOM     15  C   LIG    1        0.570  -1.778   5.477  0.00  0.00    +0.021 A 
ATOM     16  C   LIG    1        1.405  -0.718   5.801  0.00  0.00    +0.002 A 
ATOM     17  C   LIG    1        2.680  -0.646   5.241  0.00  0.00    +0.006 A 
ENDBRANCH   2  10
BRANCH   1  18
ATOM     18  C   LIG    1        4.480  -0.300   1.590  0.00  0.00    +0.338 C 
ATOM     19  O   LIG    1        4.420   0.676   0.852  0.00  0.00    -0.245 OA
BRANCH  18  20
ATOM     20  O   LIG    1        4.251  -1.575   1.200  0.00  0.00    -0.462 OA
BRANCH  20  22
ATOM     21  C   LIG    1        2.312  -1.506  -0.236  0.00  0.00    +0.048 C 
ATOM     22  C   LIG    1        3.803  -1.774  -0.149  0.00  0.00    +0.229 C 
ENDBRANCH  20  22
ENDBRANCH  18  20
ENDBRANCH   1  18
BRANCH   3  23
ATOM     23  C   LIG    1        5.798  -2.997   5.612  0.00  0.00    +0.337 C 
ATOM     24  O   LIG    1        5.015  -3.923   5.429  0.00  0.00    -0.245 OA
BRANCH  23  25
ATOM     25  O   LIG    1        6.967  -3.081   6.278  0.00  0.00    -0.465 OA
ATOM     26  C   LIG    1        7.329  -4.327   6.879  0.00  0.00    +0.280 C 
ENDBRANCH  23  25
ENDBRANCH   3  23
TORSDOF 6
