REMARK  Name = *****
REMARK                            x       y       z     vdW  Elec       q    Type
REMARK                         _______ _______ _______ _____ _____    ______ ____
ROOT
ATOM      1  C   LIG    1        2.889  -1.404  -1.057  0.00  0.00    +0.121 A 
ATOM      2  C   LIG    1        3.576  -0.456  -1.825  0.00  0.00    +0.054 A 
ATOM      3  C   LIG    1        4.180  -0.788  -3.066  0.00  0.00    -0.011 A 
ATOM      4  C   LIG    1        4.106  -2.144  -3.478  0.00  0.00    -0.017 A 
ATOM      5  C   LIG    1        4.715  -2.567  -4.663  0.00  0.00    +0.008 A 
ATOM      6  C   LIG    1        5.393  -1.664  -5.471  0.00  0.00    +0.001 A 
ATOM      7  C   LIG    1        5.447  -0.321  -5.110  0.00  0.00    +0.004 A 
ATOM      8  C   LIG    1        3.420  -3.083  -2.704  0.00  0.00    +0.012 A 
ATOM      9  C   LIG    1        4.846   0.140  -3.921  0.00  0.00    -0.038 A 
ATOM     10  C   LIG    1        2.811  -2.715  -1.511  0.00  0.00    +0.046 A 
ENDROOT
BRANCH   1  12
ATOM     11  C   LIG    1        1.628  -1.944   0.864  0.00  0.00    +0.277 C 
ATOM     12  O   LIG    1        2.325  -0.954   0.109  0.00  0.00    -0.495 OA
ENDBRANCH   1  12
BRANCH   9  13
ATOM     13  C   LIG    1        4.920   1.628  -3.620  0.00  0.00    +0.054 C 
BRANCH  13  14
ATOM     14  C   LIG    1        3.755   2.454  -4.190  0.00  0.00    +0.109 C 
BRANCH  14  15
ATOM     15  N   LIG    1        2.443   2.096  -3.686  0.00  0.00    -0.315 N 
ATOM     16  H   LIG    1        1.877   1.453  -4.223  0.00  0.00    +0.149 HD
ATOM     17  C   LIG    1        1.939   2.632  -2.521  0.00  0.00    +0.210 C 
ATOM     18  O   LIG    1        2.512   3.480  -1.862  0.00  0.00    -0.276 OA
ATOM     19  C   LIG    1        0.588   2.083  -2.138  0.00  0.00    +0.109 C 
ENDBRANCH  14  15
ENDBRANCH  13  14
ENDBRANCH   9  13
TORSDOF 4
