REMARK  Name = *****
REMARK                            x       y       z     vdW  Elec       q    Type
REMARK                         _______ _______ _______ _____ _____    ______ ____
ROOT
ATOM      1  C   LIG    1        9.370   0.617  -3.510  0.00  0.00    +0.000 C 
ENDROOT
BRANCH   1   2
ATOM      2  C   LIG    1        8.984   2.087  -3.791  0.00  0.00    -0.000 C 
BRANCH   2   3
ATOM      3  C   LIG    1        7.600   2.388  -4.403  0.00  0.00    -0.000 C 
BRANCH   3   4
ATOM      4  C   LIG    1        6.449   1.929  -3.496  0.00  0.00    -0.000 C 
BRANCH   4   5
ATOM      5  C   LIG    1        5.032   2.175  -4.034  0.00  0.00    -0.000 C 
BRANCH   5   6
ATOM      6  C   LIG    1        3.936   1.617  -3.100  0.00  0.00    -0.000 C 
BRANCH   6   7
ATOM      7  C   LIG    1        3.834   2.185  -1.674  0.00  0.00    -0.000 C 
BRANCH   7   9
ATOM      8  C   LIG    1        2.224   4.114  -2.144  0.00  0.00    +0.004 C 
ATOM      9  C   LIG    1        3.559   3.684  -1.549  0.00  0.00    -0.003 C 
ENDBRANCH   7   9
ENDBRANCH   6   7
ENDBRANCH   5   6
ENDBRANCH   4   5
ENDBRANCH   3   4
ENDBRANCH   2   3
ENDBRANCH   1   2
BRANCH   1  10
ATOM     10  C   LIG    1        9.582  -0.329  -4.709  0.00  0.00    +0.002 C 
BRANCH  10  11
ATOM     11  C   LIG    1       10.738   0.178  -5.579  0.00  0.00    +0.030 C 
BRANCH  11  12
ATOM     12  C   LIG    1       11.085  -0.629  -6.828  0.00  0.00    +0.196 C 
BRANCH  12  13
ATOM     13  O   LIG    1        9.991  -0.805  -7.711  0.00  0.00    -0.216 OA
BRANCH  13  14
ATOM     14  S   LIG    1        9.367   0.469  -8.502  0.00  0.00    +0.207 S 
ATOM     15  O   LIG    1       10.270   0.899  -9.525  0.00  0.00    -0.118 OA
ATOM     16  O   LIG    1        8.809   1.415  -7.535  0.00  0.00    -0.118 OA
BRANCH  14  17
ATOM     17  O   LIG    1        8.106  -0.176  -9.255  0.00  0.00    -0.231 OA
ATOM     18  H   LIG    1        7.977   0.332 -10.084  0.00  0.00    +0.247 HD
ENDBRANCH  14  17
ENDBRANCH  13  14
ENDBRANCH  12  13
ENDBRANCH  11  12
ENDBRANCH  10  11
ENDBRANCH   1  10
TORSDOF 13
