REMARK  Name = *****
REMARK                            x       y       z     vdW  Elec       q    Type
REMARK                         _______ _______ _______ _____ _____    ______ ____
ROOT
ATOM      1  C   LIG    1        9.103   8.980   1.463  0.00  0.00    +0.144 C 
ENDROOT
BRANCH   1   2
ATOM      2  C   LIG    1        7.716   9.564   1.925  0.00  0.00    -0.019 A 
ATOM      3  C   LIG    1        6.648   8.653   2.138  0.00  0.00    +0.008 A 
ATOM      4  C   LIG    1        5.333   9.030   2.237  0.00  0.00    +0.025 A 
ATOM      5  C   LIG    1        5.047  10.372   2.186  0.00  0.00    +0.048 A 
ATOM      6  C   LIG    1        6.061  11.331   2.119  0.00  0.00    +0.025 A 
ATOM      7  C   LIG    1        7.401  10.934   1.969  0.00  0.00    +0.008 A 
BRANCH   5   8
ATOM      8  N   LIG    1        3.693  10.726   2.246  0.00  0.00    -0.221 N 
ATOM      9  H   LIG    1        3.418  11.484   1.611  0.00  0.00    +0.173 HD
BRANCH   8  10
ATOM     10  S   LIG    1        3.029  10.982   3.767  0.00  0.00    +0.040 S 
ATOM     11  O   LIG    1        1.895  11.779   3.552  0.00  0.00    -0.155 OA
ATOM     12  O   LIG    1        4.106  11.408   4.697  0.00  0.00    -0.155 OA
ATOM     13  C   LIG    1        2.515   9.338   4.231  0.00  0.00    +0.218 C 
ENDBRANCH   8  10
ENDBRANCH   5   8
ENDBRANCH   1   2
BRANCH   1  14
ATOM     14  O   LIG    1       10.153   9.860   1.833  0.00  0.00    -0.387 OA
ATOM     15  H   LIG    1       10.804   9.858   1.107  0.00  0.00    +0.210 HD
ENDBRANCH   1  14
BRANCH   1  16
ATOM     16  C   LIG    1        9.185   7.477   2.000  0.00  0.00    +0.037 C 
BRANCH  16  17
ATOM     17  C   LIG    1        9.954   6.067   1.958  0.00  0.00    +0.018 C 
BRANCH  17  18
ATOM     18  C   LIG    1       10.390   4.984   0.728  0.00  0.00    +0.084 C 
BRANCH  18  19
ATOM     19  N   LIG    1        9.552   4.323  -0.379  0.00  0.00    -0.303 NA
BRANCH  19  20
ATOM     20  C   LIG    1       10.355   3.363  -1.288  0.00  0.00    +0.081 C 
ATOM     21  C   LIG    1        9.561   2.660  -2.461  0.00  0.00    +0.020 C 
ENDBRANCH  19  20
BRANCH  19  22
ATOM     22  C   LIG    1        9.087   5.262  -1.382  0.00  0.00    +0.084 C 
BRANCH  22  23
ATOM     23  C   LIG    1        8.241   6.419  -1.060  0.00  0.00    +0.015 C 
BRANCH  23  24
ATOM     24  C   LIG    1        8.018   7.230  -2.344  0.00  0.00    +0.001 C 
BRANCH  24  25
ATOM     25  C   LIG    1        9.133   7.458  -3.488  0.00  0.00    +0.000 C 
BRANCH  25  26
ATOM     26  C   LIG    1       10.014   6.324  -4.207  0.00  0.00    -0.000 C 
BRANCH  26  28
ATOM     27  C   LIG    1       11.454   7.370  -6.368  0.00  0.00    +0.004 C 
ATOM     28  C   LIG    1       10.500   6.344  -5.724  0.00  0.00    -0.003 C 
ENDBRANCH  26  28
ENDBRANCH  25  26
ENDBRANCH  24  25
ENDBRANCH  23  24
ENDBRANCH  22  23
ENDBRANCH  19  22
ENDBRANCH  18  19
ENDBRANCH  17  18
ENDBRANCH  16  17
ENDBRANCH   1  16
TORSDOF 15
