REMARK  Name = *****
REMARK                            x       y       z     vdW  Elec       q    Type
REMARK                         _______ _______ _______ _____ _____    ______ ____
ROOT
ATOM      1  C   LIG    1        2.640  -1.323   1.269  0.00  0.00    +0.035 C 
ATOM      2  N   LIG    1        3.704  -1.739   2.051  0.00  0.00    -0.342 NA
ATOM      3  C   LIG    1        3.760  -3.132   2.075  0.00  0.00    +0.058 C 
ATOM      4  C   LIG    1        2.792  -3.605   1.181  0.00  0.00    +0.020 C 
ATOM      5  C   LIG    1        2.209  -2.446   0.565  0.00  0.00    +0.066 C 
ENDROOT
BRANCH   3   6
ATOM      6  C   LIG    1        4.771  -3.872   2.848  0.00  0.00    -0.001 C 
ATOM      7  C   LIG    1        5.710  -4.681   2.192  0.00  0.00    +0.013 C 
ATOM      8  C   LIG    1        6.651  -5.407   2.925  0.00  0.00    +0.039 C 
ATOM      9  C   LIG    1        6.658  -5.313   4.311  0.00  0.00    +0.123 C 
ATOM     10  F   LIG    1        7.566  -6.002   5.014  0.00  0.00    -0.205 F 
ATOM     11  C   LIG    1        5.734  -4.519   4.980  0.00  0.00    +0.039 C 
ATOM     12  C   LIG    1        4.782  -3.807   4.249  0.00  0.00    +0.013 C 
ENDBRANCH   3   6
BRANCH   4  13
ATOM     13  C   LIG    1        2.532  -5.028   0.905  0.00  0.00    -0.015 C 
ATOM     14  C   LIG    1        2.153  -5.466  -0.372  0.00  0.00    +0.008 C 
ATOM     15  C   LIG    1        1.870  -6.815  -0.619  0.00  0.00    +0.001 C 
ATOM     16  C   LIG    1        1.993  -7.755   0.400  0.00  0.00    +0.000 C 
ATOM     17  C   LIG    1        2.376  -7.344   1.671  0.00  0.00    +0.001 C 
ATOM     18  C   LIG    1        2.617  -5.991   1.923  0.00  0.00    +0.008 C 
ENDBRANCH   4  13
BRANCH   5  19
ATOM     19  C   LIG    1        1.291  -2.387  -0.565  0.00  0.00    +0.251 C 
ATOM     20  N   LIG    1        1.741  -1.867  -1.774  0.00  0.00    -0.281 N 
ATOM     21  H   LIG    1        0.964  -1.777  -2.418  0.00  0.00    +0.155 HD
ATOM     22  O   LIG    1        0.129  -2.755  -0.479  0.00  0.00    -0.270 OA
BRANCH  20  23
ATOM     23  C   LIG    1        3.006  -1.470  -2.257  0.00  0.00    +0.034 C 
ATOM     24  C   LIG    1        3.059  -0.938  -3.551  0.00  0.00    +0.023 C 
ATOM     25  C   LIG    1        4.266  -0.478  -4.097  0.00  0.00    +0.002 C 
ATOM     26  C   LIG    1        5.440  -0.531  -3.352  0.00  0.00    +0.000 C 
ATOM     27  C   LIG    1        5.412  -1.088  -2.085  0.00  0.00    +0.002 C 
ATOM     28  C   LIG    1        4.211  -1.579  -1.563  0.00  0.00    +0.023 C 
ENDBRANCH  20  23
ENDBRANCH   5  19
BRANCH   1  30
ATOM     29  C   LIG    1        1.278   0.401   2.454  0.00  0.00    +0.014 C 
ATOM     30  C   LIG    1        2.049   0.072   1.177  0.00  0.00    +0.030 C 
ATOM     31  C   LIG    1        3.006   1.190   0.782  0.00  0.00    +0.014 C 
ENDBRANCH   1  30
BRANCH   2  32
ATOM     32  C   LIG    1        4.740  -0.871   2.614  0.00  0.00    +0.124 C 
BRANCH  32  33
ATOM     33  C   LIG    1        5.919  -0.711   1.651  0.00  0.00    +0.053 C 
BRANCH  33  34
ATOM     34  C   LIG    1        7.040   0.190   2.173  0.00  0.00    +0.119 C 
BRANCH  34  35
ATOM     35  O   LIG    1        8.101   0.121   1.218  0.00  0.00    -0.392 OA
ATOM     36  H   LIG    1        8.943   0.303   1.670  0.00  0.00    +0.210 HD
ENDBRANCH  34  35
BRANCH  34  37
ATOM     37  C   LIG    1        6.588   1.650   2.311  0.00  0.00    +0.063 C 
BRANCH  37  38
ATOM     38  C   LIG    1        7.657   2.604   2.861  0.00  0.00    +0.128 C 
BRANCH  38  39
ATOM     39  O   LIG    1        7.150   3.944   2.893  0.00  0.00    -0.391 OA
ATOM     40  H   LIG    1        6.238   3.923   3.244  0.00  0.00    +0.210 HD
ENDBRANCH  38  39
BRANCH  38  41
ATOM     41  C   LIG    1        8.181   2.261   4.253  0.00  0.00    +0.151 C 
BRANCH  41  42
ATOM     42  C   LIG    1        7.069   2.275   5.268  0.00  0.00    +0.307 C 
ATOM     43  O   LIG    1        6.374   1.312   5.515  0.00  0.00    -0.251 OA
BRANCH  42  44
ATOM     44  O   LIG    1        6.848   3.501   5.811  0.00  0.00    -0.481 OA
ATOM     45  H   LIG    1        7.452   4.193   5.485  0.00  0.00    +0.295 HD
ENDBRANCH  42  44
ENDBRANCH  41  42
ENDBRANCH  38  41
ENDBRANCH  37  38
ENDBRANCH  34  37
ENDBRANCH  33  34
ENDBRANCH  32  33
ENDBRANCH   2  32
TORSDOF 15
