REMARK  Name = *****
REMARK                            x       y       z     vdW  Elec       q    Type
REMARK                         _______ _______ _______ _____ _____    ______ ____
ROOT
ATOM      1  N   LIG    1        4.373  -0.068   2.520  0.00  0.00    -0.301 N 
ATOM      2  H   LIG    1        5.297   0.318   2.680  0.00  0.00    +0.150 HD
ATOM      3  C   LIG    1        3.793  -0.891   3.447  0.00  0.00    +0.231 C 
ATOM      4  O   LIG    1        2.762  -1.517   3.200  0.00  0.00    -0.274 OA
ENDROOT
BRANCH   1   5
ATOM      5  C   LIG    1        3.770   0.157   1.196  0.00  0.00    +0.186 C 
BRANCH   5   6
ATOM      6  C   LIG    1        4.766   0.824   0.213  0.00  0.00    +0.328 C 
ATOM      7  O   LIG    1        4.656   0.824  -0.992  0.00  0.00    -0.249 OA
BRANCH   6   9
ATOM      8  C   LIG    1        6.632   2.325   0.200  0.00  0.00    +0.280 C 
ATOM      9  O   LIG    1        5.697   1.530   0.942  0.00  0.00    -0.467 OA
ENDBRANCH   6   9
ENDBRANCH   5   6
BRANCH   5  10
ATOM     10  C   LIG    1        2.427   0.936   1.266  0.00  0.00    +0.069 C 
BRANCH  10  11
ATOM     11  C   LIG    1        2.471   2.312   1.910  0.00  0.00    -0.045 A 
ATOM     12  C   LIG    1        1.699   2.618   3.042  0.00  0.00    +0.003 A 
ATOM     13  C   LIG    1        1.752   3.896   3.614  0.00  0.00    +0.000 A 
ATOM     14  C   LIG    1        2.580   4.877   3.073  0.00  0.00    +0.000 A 
ATOM     15  C   LIG    1        3.330   4.595   1.939  0.00  0.00    +0.000 A 
ATOM     16  C   LIG    1        3.246   3.335   1.348  0.00  0.00    +0.003 A 
ENDBRANCH  10  11
ENDBRANCH   5  10
ENDBRANCH   1   5
BRANCH   3  17
ATOM     17  C   LIG    1        4.510  -1.005   4.809  0.00  0.00    +0.148 C 
BRANCH  17  18
ATOM     18  N   LIG    1        4.816   0.317   5.377  0.00  0.00    -0.320 NA
ATOM     19  H   LIG    1        5.393   0.875   4.752  0.00  0.00    +0.119 HD
ATOM     20  H   LIG    1        3.956   0.849   5.527  0.00  0.00    +0.119 HD
ENDBRANCH  17  18
BRANCH  17  21
ATOM     21  C   LIG    1        3.721  -1.877   5.795  0.00  0.00    +0.148 C 
BRANCH  21  22
ATOM     22  C   LIG    1        2.366  -1.356   6.212  0.00  0.00    +0.307 C 
ATOM     23  O   LIG    1        2.103  -1.042   7.378  0.00  0.00    -0.251 OA
BRANCH  22  24
ATOM     24  O   LIG    1        1.425  -1.301   5.256  0.00  0.00    -0.481 OA
ATOM     25  H   LIG    1        1.734  -1.584   4.358  0.00  0.00    +0.295 HD
ENDBRANCH  22  24
ENDBRANCH  21  22
ENDBRANCH  17  21
ENDBRANCH   3  17
TORSDOF 10
