REMARK  Name = *****
REMARK                            x       y       z     vdW  Elec       q    Type
REMARK                         _______ _______ _______ _____ _____    ______ ____
ROOT
ATOM      1  C   LIG    1        0.793  -0.765   0.466  0.00  0.00    +0.089 C 
ATOM      2  C   LIG    1        2.270  -0.485   0.343  0.00  0.00    +0.103 C 
ATOM      3  N   LIG    1        3.100  -1.598   0.345  0.00  0.00    -0.208 N 
ATOM      4  H   LIG    1        2.663  -2.513   0.389  0.00  0.00    +0.298 HD
ATOM      5  C   LIG    1        4.398  -1.590  -0.120  0.00  0.00    +0.269 C 
ATOM      6  C   LIG    1        5.022  -0.392  -0.224  0.00  0.00    +0.133 C 
ATOM      7  C   LIG    1        4.346   0.889   0.254  0.00  0.00    +0.104 C 
ATOM      8  C   LIG    1        2.825   0.748   0.246  0.00  0.00    +0.088 C 
ENDROOT
BRANCH   7   9
ATOM      9  C   LIG    1        4.848   1.354   1.645  0.00  0.00    -0.028 A 
ATOM     10  C   LIG    1        5.532   2.576   1.793  0.00  0.00    +0.088 A 
ATOM     11  C   LIG    1        5.933   3.001   3.070  0.00  0.00    +0.273 A 
ATOM     12  C   LIG    1        5.653   2.258   4.217  0.00  0.00    +0.084 A 
ATOM     13  C   LIG    1        4.972   1.053   4.077  0.00  0.00    +0.007 A 
ATOM     14  C   LIG    1        4.587   0.600   2.808  0.00  0.00    +0.005 A 
BRANCH  11  15
ATOM     15  N   LIG    1        6.668   4.247   3.213  0.00  0.00    +0.080 N 
ATOM     16  O   LIG    1        6.124   5.280   2.799  0.00  0.00    -0.576 OA
ATOM     17  O   LIG    1        7.785   4.185   3.744  0.00  0.00    +0.041 OA
ENDBRANCH  11  15
ENDBRANCH   7   9
BRANCH   5  18
ATOM     18  N   LIG    1        4.939  -2.803  -0.470  0.00  0.00    -0.251 N 
ATOM     19  H   LIG    1        4.260  -3.402  -0.929  0.00  0.00    +0.288 HD
ATOM     20  H   LIG    1        5.780  -2.712  -1.048  0.00  0.00    +0.288 HD
ENDBRANCH   5  18
BRANCH   6  21
ATOM     21  C   LIG    1        6.333  -0.281  -0.907  0.00  0.00    +0.344 C 
ATOM     22  O   LIG    1        6.761  -1.053  -1.737  0.00  0.00    -0.245 OA
BRANCH  21  23
ATOM     23  O   LIG    1        6.994   0.789  -0.403  0.00  0.00    -0.455 OA
BRANCH  23  24
ATOM     24  C   LIG    1        8.430   0.674  -0.406  0.00  0.00    +0.205 C 
ATOM     25  C   LIG    1        9.115   1.576   0.646  0.00  0.00    +0.131 C 
ATOM     26  N   LIG    1        9.919   0.431   1.121  0.00  0.00    -0.284 NA
ATOM     27  C   LIG    1        9.038  -0.498   0.393  0.00  0.00    +0.131 C 
BRANCH  26  28
ATOM     28  C   LIG    1       11.302   0.522   0.581  0.00  0.00    +0.117 C 
BRANCH  28  29
ATOM     29  C   LIG    1       12.010  -0.834   0.522  0.00  0.00    -0.026 A 
ATOM     30  C   LIG    1       12.490  -1.335  -0.702  0.00  0.00    +0.005 A 
ATOM     31  C   LIG    1       13.162  -2.558  -0.757  0.00  0.00    +0.000 A 
ATOM     32  C   LIG    1       13.354  -3.302   0.406  0.00  0.00    +0.000 A 
ATOM     33  C   LIG    1       12.870  -2.827   1.622  0.00  0.00    +0.000 A 
ATOM     34  C   LIG    1       12.203  -1.604   1.680  0.00  0.00    +0.005 A 
ENDBRANCH  28  29
BRANCH  28  35
ATOM     35  C   LIG    1       12.133   1.528   1.404  0.00  0.00    -0.026 A 
ATOM     36  C   LIG    1       13.175   2.252   0.804  0.00  0.00    +0.005 A 
ATOM     37  C   LIG    1       13.942   3.151   1.553  0.00  0.00    +0.000 A 
ATOM     38  C   LIG    1       13.681   3.341   2.910  0.00  0.00    +0.000 A 
ATOM     39  C   LIG    1       12.657   2.627   3.523  0.00  0.00    +0.000 A 
ATOM     40  C   LIG    1       11.896   1.725   2.779  0.00  0.00    +0.005 A 
ENDBRANCH  28  35
ENDBRANCH  26  28
ENDBRANCH  23  24
ENDBRANCH  21  23
ENDBRANCH   6  21
BRANCH   8  41
ATOM     41  C   LIG    1        2.007   1.984   0.123  0.00  0.00    +0.340 C 
ATOM     42  O   LIG    1        0.839   2.006  -0.215  0.00  0.00    -0.245 OA
BRANCH  41  43
ATOM     43  O   LIG    1        2.747   3.066   0.475  0.00  0.00    -0.459 OA
BRANCH  43  44
ATOM     44  C   LIG    1        2.012   4.240   0.859  0.00  0.00    +0.171 C 
ATOM     45  C   LIG    1        2.219   5.353  -0.157  0.00  0.00    +0.051 C 
ATOM     46  C   LIG    1        2.512   4.656   2.238  0.00  0.00    +0.051 C 
ENDBRANCH  43  44
ENDBRANCH  41  43
ENDBRANCH   8  41
TORSDOF 12
