REMARK  Name = *****
REMARK                            x       y       z     vdW  Elec       q    Type
REMARK                         _______ _______ _______ _____ _____    ______ ____
ROOT
ATOM      1  C   LIG    1        3.422   0.069  -0.005  0.00  0.00    +0.132 C 
ATOM      2  C   LIG    1        4.188  -0.670   1.143  0.00  0.00    +0.014 C 
ATOM      3  C   LIG    1        3.714   0.085   2.435  0.00  0.00    +0.002 C 
ATOM      4  C   LIG    1        2.657  -0.597   3.349  0.00  0.00    -0.003 C 
ATOM      5  C   LIG    1        2.792  -2.135   3.419  0.00  0.00    -0.000 C 
ATOM      6  C   LIG    1        2.721  -2.667   1.986  0.00  0.00    +0.005 C 
ATOM      7  C   LIG    1        4.047  -2.557   4.233  0.00  0.00    +0.019 C 
ATOM      8  C   LIG    1        3.939  -1.938   5.617  0.00  0.00    -0.064 C 
ATOM      9  C   LIG    1        3.854  -2.643   6.758  0.00  0.00    +0.026 C 
ATOM     10  C   LIG    1        3.756  -4.130   6.723  0.00  0.00    +0.080 C 
ATOM     11  C   LIG    1        3.462  -4.756   5.374  0.00  0.00    +0.059 C 
ATOM     12  N   LIG    1        3.849  -4.926   7.745  0.00  0.00    -0.092 NA
ATOM     13  C   LIG    1        3.865  -0.435   5.619  0.00  0.00    +0.031 C 
ATOM     14  C   LIG    1        4.300  -4.074   4.305  0.00  0.00    +0.014 C 
ATOM     15  C   LIG    1        2.672   0.019   4.770  0.00  0.00    +0.008 C 
ATOM     16  C   LIG    1        3.183   1.464   1.962  0.00  0.00    +0.008 C 
ATOM     17  C   LIG    1        3.896  -2.203   1.140  0.00  0.00    +0.011 C 
ATOM     18  C   LIG    1        3.338   1.527   0.447  0.00  0.00    +0.049 C 
ENDROOT
BRANCH   1  20
ATOM     19  C   LIG    1        4.583  -0.139  -2.405  0.00  0.00    +0.007 C 
ATOM     20  C   LIG    1        4.060  -0.048  -1.327  0.00  0.00    -0.070 C 
ENDBRANCH   1  20
BRANCH   1  21
ATOM     21  O   LIG    1        2.091  -0.432  -0.136  0.00  0.00    -0.376 OA
ATOM     22  H   LIG    1        1.582  -0.167   0.645  0.00  0.00    +0.211 HD
ENDBRANCH   1  21
BRANCH  12  23
ATOM     23  O   LIG    1        4.113  -4.230   8.931  0.00  0.00    -0.409 OA
ATOM     24  H   LIG    1        4.184  -4.953   9.582  0.00  0.00    +0.328 HD
ENDBRANCH  12  23
BRANCH   2  25
ATOM     25  C   LIG    1        5.761  -0.563   1.036  0.00  0.00    +0.007 C 
ATOM     26  C   LIG    1        6.420   0.808   0.969  0.00  0.00    +0.004 C 
ENDBRANCH   2  25
TORSDOF 4
