REMARK  Name = *****
REMARK                            x       y       z     vdW  Elec       q    Type
REMARK                         _______ _______ _______ _____ _____    ______ ____
ROOT
ATOM      1  C   LIG    1        1.716   0.328   4.573  0.00  0.00    +0.162 A 
ATOM      2  C   LIG    1        2.380   0.476   5.820  0.00  0.00    +0.162 A 
ATOM      3  C   LIG    1        2.754  -0.649   6.554  0.00  0.00    +0.061 A 
ATOM      4  C   LIG    1        2.555  -1.880   5.971  0.00  0.00    +0.025 A 
ATOM      5  C   LIG    1        3.077  -3.167   6.420  0.00  0.00    +0.167 C 
ATOM      6  C   LIG    1        3.147  -4.080   5.208  0.00  0.00    +0.065 C 
ATOM      7  C   LIG    1        1.987  -3.512   4.337  0.00  0.00    +0.047 C 
ATOM      8  O   LIG    1        3.430  -3.406   7.547  0.00  0.00    -0.292 OA
ATOM      9  C   LIG    1        1.971  -2.061   4.724  0.00  0.00    -0.033 A 
ATOM     10  C   LIG    1        1.506  -0.958   4.029  0.00  0.00    +0.053 A 
ENDROOT
BRANCH   1  12
ATOM     11  C   LIG    1        0.945   2.577   4.360  0.00  0.00    +0.277 C 
ATOM     12  O   LIG    1        1.327   1.352   3.740  0.00  0.00    -0.491 OA
ENDBRANCH   1  12
BRANCH   2  13
ATOM     13  O   LIG    1        2.656   1.737   6.273  0.00  0.00    -0.491 OA
ATOM     14  C   LIG    1        3.829   1.898   7.062  0.00  0.00    +0.277 C 
ENDBRANCH   2  13
BRANCH   6  15
ATOM     15  C   LIG    1        4.502  -3.948   4.465  0.00  0.00    +0.015 C 
BRANCH  15  16
ATOM     16  C   LIG    1        5.774  -4.266   5.289  0.00  0.00    -0.008 C 
ATOM     17  C   LIG    1        5.816  -5.690   5.858  0.00  0.00    +0.019 C 
ATOM     18  C   LIG    1        6.157  -6.760   4.813  0.00  0.00    +0.085 C 
ATOM     19  N   LIG    1        7.345  -6.497   3.987  0.00  0.00    -0.298 NA
ATOM     20  C   LIG    1        7.280  -5.138   3.418  0.00  0.00    +0.085 C 
ATOM     21  C   LIG    1        7.056  -4.038   4.467  0.00  0.00    +0.019 C 
BRANCH  19  22
ATOM     22  C   LIG    1        8.638  -6.719   4.661  0.00  0.00    +0.119 C 
BRANCH  22  23
ATOM     23  C   LIG    1        8.879  -8.096   5.252  0.00  0.00    -0.033 A 
ATOM     24  C   LIG    1        9.275  -8.213   6.595  0.00  0.00    +0.005 A 
ATOM     25  C   LIG    1        9.592  -9.457   7.145  0.00  0.00    +0.000 A 
ATOM     26  C   LIG    1        9.527 -10.602   6.356  0.00  0.00    +0.000 A 
ATOM     27  C   LIG    1        9.138 -10.504   5.021  0.00  0.00    +0.000 A 
ATOM     28  C   LIG    1        8.812  -9.258   4.471  0.00  0.00    +0.005 A 
ENDBRANCH  22  23
ENDBRANCH  19  22
ENDBRANCH  15  16
ENDBRANCH   6  15
TORSDOF 6
