REMARK  Name = *****
REMARK                            x       y       z     vdW  Elec       q    Type
REMARK                         _______ _______ _______ _____ _____    ______ ____
ROOT
ATOM      1  O   LIG    1        0.867   0.087   0.397  0.00  0.00    -0.271 OA
ATOM      2  C   LIG    1        2.083   0.006   0.207  0.00  0.00    +0.269 C 
ATOM      3  C   LIG    1        2.750  -1.193  -0.515  0.00  0.00    +0.320 C 
ATOM      4  N   LIG    1        3.566  -1.913   0.449  0.00  0.00    -0.243 NA
ATOM      5  C   LIG    1        4.638  -1.361   0.904  0.00  0.00    +0.079 C 
ATOM      6  C   LIG    1        5.139   0.001   0.540  0.00  0.00    +0.023 A 
ATOM      7  C   LIG    1        4.287   1.119   0.489  0.00  0.00    +0.043 A 
ATOM      8  C   LIG    1        4.844   2.401   0.378  0.00  0.00    +0.025 A 
ATOM      9  C   LIG    1        6.224   2.567   0.239  0.00  0.00    +0.022 A 
ATOM     10  C   LIG    1        7.055   1.452   0.225  0.00  0.00    +0.042 A 
ATOM     11 CL   LIG    1        8.753   1.655   0.044  0.00  0.00    -0.084 Cl
ATOM     12  C   LIG    1        6.524   0.174   0.380  0.00  0.00    +0.032 A 
ATOM     13  N   LIG    1        2.888   1.056   0.571  0.00  0.00    -0.281 N 
ATOM     14  H   LIG    1        2.366   1.887   0.823  0.00  0.00    +0.155 HD
ENDROOT
BRANCH   5  15
ATOM     15  C   LIG    1        5.442  -2.181   1.860  0.00  0.00    +0.019 A 
ATOM     16  C   LIG    1        5.800  -1.740   3.141  0.00  0.00    +0.050 A 
ATOM     17 CL   LIG    1        5.292  -0.222   3.789  0.00  0.00    -0.083 Cl
ATOM     18  C   LIG    1        6.570  -2.567   3.966  0.00  0.00    +0.021 A 
ATOM     19  C   LIG    1        6.969  -3.830   3.525  0.00  0.00    +0.002 A 
ATOM     20  C   LIG    1        6.593  -4.279   2.261  0.00  0.00    +0.001 A 
ATOM     21  C   LIG    1        5.826  -3.461   1.431  0.00  0.00    +0.011 A 
ENDBRANCH   5  15
BRANCH   3  22
ATOM     22  O   LIG    1        1.764  -2.024  -1.107  0.00  0.00    -0.364 OA
ATOM     23  H   LIG    1        1.223  -2.315  -0.352  0.00  0.00    +0.212 HD
ENDBRANCH   3  22
TORSDOF 2
