REMARK  Name = *****
REMARK                            x       y       z     vdW  Elec       q    Type
REMARK                         _______ _______ _______ _____ _____    ______ ____
ROOT
ATOM      1  C   LIG    1        2.694  -0.838   1.415  0.00  0.00    +0.042 C 
ATOM      2  C   LIG    1        2.159   0.000   0.242  0.00  0.00    +0.069 C 
ATOM      3  C   LIG    1        2.641  -0.482  -1.182  0.00  0.00    -0.000 C 
ATOM      4  C   LIG    1        3.973   0.306  -1.383  0.00  0.00    +0.001 C 
ATOM      5  C   LIG    1        5.269  -0.499  -1.565  0.00  0.00    -0.004 C 
ATOM      6  C   LIG    1        5.053  -1.843  -2.353  0.00  0.00    -0.001 C 
ATOM      7  C   LIG    1        4.107  -2.600  -1.375  0.00  0.00    +0.005 C 
ATOM      8  C   LIG    1        4.828  -1.770  -4.007  0.00  0.00    -0.022 C 
ATOM      9  C   LIG    1        5.950  -0.676  -4.303  0.00  0.00    +0.001 C 
ATOM     10  C   LIG    1        7.288  -1.367  -4.584  0.00  0.00    +0.059 C 
ATOM     11  C   LIG    1        7.109  -1.670  -6.008  0.00  0.00    +0.040 A 
ATOM     12  C   LIG    1        5.871  -1.976  -6.543  0.00  0.00    -0.006 A 
ATOM     13  C   LIG    1        6.082  -1.730  -7.926  0.00  0.00    +0.138 A 
ATOM     14  N   LIG    1        7.307  -1.263  -8.190  0.00  0.00    -0.182 NA
ATOM     15  N   LIG    1        7.910  -1.155  -6.990  0.00  0.00    -0.281 N 
ATOM     16  H   LIG    1        8.737  -0.567  -6.892  0.00  0.00    +0.189 HD
ATOM     17  C   LIG    1        6.082   0.631  -3.550  0.00  0.00    +0.005 C 
ATOM     18  C   LIG    1        4.944  -3.448  -3.996  0.00  0.00    +0.012 C 
ATOM     19  C   LIG    1        4.529  -2.014  -5.664  0.00  0.00    +0.045 C 
ATOM     20  C   LIG    1        6.378   0.380  -2.117  0.00  0.00    +0.004 C 
ATOM     21  C   LIG    1        4.104   1.297  -0.205  0.00  0.00    +0.007 C 
ATOM     22  C   LIG    1        1.661   0.010  -2.291  0.00  0.00    +0.014 C 
ATOM     23  C   LIG    1        2.714  -2.019  -1.371  0.00  0.00    +0.010 C 
ATOM     24  C   LIG    1        2.702   1.427   0.338  0.00  0.00    +0.035 C 
ENDROOT
BRANCH   2  25
ATOM     25  O   LIG    1        0.743  -0.005   0.357  0.00  0.00    -0.388 OA
ATOM     26  H   LIG    1        0.387   0.701  -0.208  0.00  0.00    +0.210 HD
ENDBRANCH   2  25
TORSDOF 1
