REMARK  Name = *****
REMARK                            x       y       z     vdW  Elec       q    Type
REMARK                         _______ _______ _______ _____ _____    ______ ____
ROOT
ATOM      1  C   LIG    1        4.689  -0.762  -0.732  0.00  0.00    +0.131 C 
ATOM      2  C   LIG    1        5.043   0.406  -1.630  0.00  0.00    +0.234 C 
ATOM      3  O   LIG    1        4.450   1.483  -1.615  0.00  0.00    -0.274 OA
ATOM      4  N   LIG    1        6.090   0.228  -2.475  0.00  0.00    -0.266 N 
ATOM      5  H   LIG    1        6.351   1.008  -3.063  0.00  0.00    +0.157 HD
ATOM      6  C   LIG    1        6.569  -0.995  -2.773  0.00  0.00    +0.150 C 
ATOM      7  N   LIG    1        6.225  -2.095  -2.219  0.00  0.00    -0.158 NA
ATOM      8  C   LIG    1        5.302  -2.086  -1.205  0.00  0.00    +0.254 C 
ATOM      9  O   LIG    1        5.016  -3.136  -0.627  0.00  0.00    -0.273 OA
ENDROOT
BRANCH   6  10
ATOM     10  S   LIG    1        7.752  -0.975  -4.035  0.00  0.00    -0.110 S 
ATOM     11  H   LIG    1        7.977  -2.297  -4.014  0.00  0.00    +0.110 HD
ENDBRANCH   6  10
BRANCH   1  12
ATOM     12  C   LIG    1        5.236  -0.512   0.735  0.00  0.00    +0.010 C 
ATOM     13  C   LIG    1        6.767  -0.329   0.748  0.00  0.00    +0.009 C 
BRANCH  12  14
ATOM     14  C   LIG    1        4.535   0.639   1.512  0.00  0.00    +0.004 C 
BRANCH  14  15
ATOM     15  C   LIG    1        5.087   0.850   2.933  0.00  0.00    -0.003 C 
ATOM     16  C   LIG    1        4.363   1.955   3.691  0.00  0.00    +0.004 C 
ENDBRANCH  14  15
ENDBRANCH  12  14
ENDBRANCH   1  12
BRANCH   1  17
ATOM     17  C   LIG    1        3.146  -0.945  -0.760  0.00  0.00    +0.052 C 
BRANCH  17  19
ATOM     18  C   LIG    1        2.333  -2.404  -2.648  0.00  0.00    +0.004 C 
ATOM     19  C   LIG    1        2.577  -1.189  -2.141  0.00  0.00    -0.033 C 
ENDBRANCH  17  19
ENDBRANCH   1  17
TORSDOF 6
