REMARK  Name = *****
REMARK                            x       y       z     vdW  Elec       q    Type
REMARK                         _______ _______ _______ _____ _____    ______ ____
ROOT
ATOM      1  C   LIG    1        4.174  -0.176   0.095  0.00  0.00    +0.129 C 
ATOM      2  C   LIG    1        4.184  -1.109  -1.115  0.00  0.00    +0.236 C 
ATOM      3  O   LIG    1        3.891  -2.302  -1.057  0.00  0.00    -0.274 OA
ATOM      4  N   LIG    1        4.641  -0.589  -2.298  0.00  0.00    -0.239 N 
ATOM      5  H   LIG    1        4.688  -1.223  -3.081  0.00  0.00    +0.159 HD
ATOM      6  C   LIG    1        4.883   0.722  -2.567  0.00  0.00    +0.312 C 
ATOM      7  O   LIG    1        5.193   1.103  -3.689  0.00  0.00    -0.252 OA
ATOM      8  N   LIG    1        4.720   1.594  -1.534  0.00  0.00    -0.239 N 
ATOM      9  H   LIG    1        4.765   2.571  -1.777  0.00  0.00    +0.159 HD
ATOM     10  C   LIG    1        4.183   1.292  -0.315  0.00  0.00    +0.236 C 
ATOM     11  O   LIG    1        3.790   2.202   0.416  0.00  0.00    -0.274 OA
ENDROOT
BRANCH   1  12
ATOM     12  C   LIG    1        5.470  -0.502   0.964  0.00  0.00    +0.010 C 
ATOM     13  C   LIG    1        6.782  -0.297   0.181  0.00  0.00    +0.009 C 
BRANCH  12  14
ATOM     14  C   LIG    1        5.514   0.257   2.325  0.00  0.00    +0.004 C 
BRANCH  14  15
ATOM     15  C   LIG    1        6.748  -0.027   3.195  0.00  0.00    -0.003 C 
ATOM     16  C   LIG    1        6.697   0.729   4.517  0.00  0.00    +0.004 C 
ENDBRANCH  14  15
ENDBRANCH  12  14
ENDBRANCH   1  12
BRANCH   1  17
ATOM     17  C   LIG    1        2.877  -0.472   0.906  0.00  0.00    +0.052 C 
BRANCH  17  19
ATOM     18  C   LIG    1        0.871  -1.133  -0.474  0.00  0.00    +0.004 C 
ATOM     19  C   LIG    1        1.581  -0.203   0.175  0.00  0.00    -0.033 C 
ENDBRANCH  17  19
ENDBRANCH   1  17
TORSDOF 5
