REMARK  Name = *****
REMARK                            x       y       z     vdW  Elec       q    Type
REMARK                         _______ _______ _______ _____ _____    ______ ____
ROOT
ATOM      1  C   LIG    1        6.170  -1.926   0.060  0.00  0.00    +0.121 A 
ATOM      2  C   LIG    1        4.906  -2.489   0.242  0.00  0.00    +0.055 A 
ATOM      3  C   LIG    1        4.654  -3.849  -0.027  0.00  0.00    +0.027 A 
ATOM      4  C   LIG    1        5.686  -4.626  -0.581  0.00  0.00    +0.126 A 
ATOM      5  C   LIG    1        6.950  -4.050  -0.794  0.00  0.00    +0.049 A 
ATOM      6  C   LIG    1        7.187  -2.712  -0.468  0.00  0.00    +0.049 A 
ENDROOT
BRANCH   1   8
ATOM      7  C   LIG    1        5.488   0.169   0.951  0.00  0.00    +0.277 C 
ATOM      8  O   LIG    1        6.506  -0.637   0.368  0.00  0.00    -0.495 OA
ENDBRANCH   1   8
BRANCH   4   9
ATOM      9  O   LIG    1        5.380  -5.931  -0.869  0.00  0.00    -0.495 OA
ATOM     10  C   LIG    1        6.384  -6.701  -1.520  0.00  0.00    +0.277 C 
ENDBRANCH   4   9
BRANCH   3  11
ATOM     11  C   LIG    1        3.287  -4.437   0.324  0.00  0.00    +0.165 C 
BRANCH  11  12
ATOM     12  C   LIG    1        2.207  -4.305  -0.795  0.00  0.00    +0.081 C 
ATOM     13  C   LIG    1        0.886  -4.944  -0.344  0.00  0.00    +0.027 C 
BRANCH  12  14
ATOM     14  N   LIG    1        2.568  -4.914  -2.088  0.00  0.00    -0.325 NA
ATOM     15  H   LIG    1        3.256  -4.318  -2.548  0.00  0.00    +0.118 HD
ATOM     16  H   LIG    1        3.062  -5.790  -1.908  0.00  0.00    +0.118 HD
ENDBRANCH  12  14
ENDBRANCH  11  12
BRANCH  11  17
ATOM     17  O   LIG    1        2.792  -3.803   1.518  0.00  0.00    -0.386 OA
ATOM     18  H   LIG    1        3.545  -3.722   2.129  0.00  0.00    +0.210 HD
ENDBRANCH  11  17
ENDBRANCH   3  11
TORSDOF 6
