REMARK  Name = *****
REMARK                            x       y       z     vdW  Elec       q    Type
REMARK                         _______ _______ _______ _____ _____    ______ ____
ROOT
ATOM      1  C   LIG    1        8.615   1.747  -1.128  0.00  0.00    +0.132 A 
ATOM      2  C   LIG    1        8.581   1.569   0.246  0.00  0.00    +0.050 A 
ATOM      3  C   LIG    1        9.464   0.673   0.861  0.00  0.00    -0.040 A 
ATOM      4  C   LIG    1        9.407   0.551   2.347  0.00  0.00    +0.036 C 
ATOM      5  C   LIG    1       10.824   0.474   2.868  0.00  0.00    +0.009 C 
ATOM      6  C   LIG    1       11.512  -0.808   2.362  0.00  0.00    +0.001 C 
ATOM      7  C   LIG    1       11.492  -0.904   0.795  0.00  0.00    +0.023 C 
ATOM      8  C   LIG    1       12.858  -0.557   0.180  0.00  0.00    +0.009 C 
ATOM      9  C   LIG    1       14.006  -1.332   0.791  0.00  0.00    +0.011 C 
ATOM     10  C   LIG    1       14.191  -1.138   2.295  0.00  0.00    +0.008 C 
ATOM     11  C   LIG    1       15.094  -2.314   2.771  0.00  0.00    +0.015 C 
ATOM     12  C   LIG    1       14.929   0.172   2.762  0.00  0.00    +0.183 C 
ATOM     13  C   LIG    1       13.970   0.869   3.723  0.00  0.00    +0.045 C 
ATOM     14  C   LIG    1       13.194  -0.295   4.321  0.00  0.00    +0.008 C 
ATOM     15  C   LIG    1       12.854  -1.172   3.099  0.00  0.00    +0.002 C 
ATOM     16  C   LIG    1       10.393  -0.066   0.107  0.00  0.00    -0.041 A 
ATOM     17  C   LIG    1       10.326   0.049  -1.295  0.00  0.00    +0.008 A 
ATOM     18  C   LIG    1        9.456   0.963  -1.909  0.00  0.00    +0.046 A 
ENDROOT
BRANCH   1  19
ATOM     19  O   LIG    1        7.721   2.615  -1.779  0.00  0.00    -0.426 OA
BRANCH  19  20
ATOM     20  C   LIG    1        7.371   3.828  -1.173  0.00  0.00    +0.312 C 
ATOM     21  O   LIG    1        7.932   4.375  -0.239  0.00  0.00    -0.250 OA
BRANCH  20  22
ATOM     22  C   LIG    1        6.117   4.355  -1.828  0.00  0.00    +0.121 C 
BRANCH  22  23
ATOM     23  C   LIG    1        4.871   3.767  -1.174  0.00  0.00    +0.011 C 
BRANCH  23  24
ATOM     24  C   LIG    1        3.596   4.322  -1.816  0.00  0.00    +0.000 C 
BRANCH  24  25
ATOM     25  C   LIG    1        2.313   3.736  -1.219  0.00  0.00    -0.000 C 
BRANCH  25  27
ATOM     26  C   LIG    1        0.867   3.467   0.835  0.00  0.00    +0.004 C 
ATOM     27  C   LIG    1        2.151   4.049   0.270  0.00  0.00    -0.003 C 
ENDBRANCH  25  27
ENDBRANCH  24  25
ENDBRANCH  23  24
ENDBRANCH  22  23
ENDBRANCH  20  22
ENDBRANCH  19  20
ENDBRANCH   1  19
BRANCH  12  28
ATOM     28  O   LIG    1       15.370   1.018   1.694  0.00  0.00    -0.461 OA
BRANCH  28  29
ATOM     29  C   LIG    1       16.432   1.822   2.011  0.00  0.00    +0.307 C 
ATOM     30  O   LIG    1       16.896   1.970   3.134  0.00  0.00    -0.251 OA
BRANCH  29  31
ATOM     31  C   LIG    1       17.028   2.462   0.778  0.00  0.00    +0.120 C 
BRANCH  31  32
ATOM     32  C   LIG    1       16.366   3.784   0.407  0.00  0.00    +0.011 C 
BRANCH  32  33
ATOM     33  C   LIG    1       17.017   4.423  -0.830  0.00  0.00    +0.000 C 
BRANCH  33  34
ATOM     34  C   LIG    1       16.337   5.746  -1.205  0.00  0.00    -0.000 C 
BRANCH  34  35
ATOM     35  C   LIG    1       16.974   6.389  -2.439  0.00  0.00    -0.003 C 
ATOM     36  C   LIG    1       16.296   7.701  -2.813  0.00  0.00    +0.004 C 
ENDBRANCH  34  35
ENDBRANCH  33  34
ENDBRANCH  32  33
ENDBRANCH  31  32
ENDBRANCH  29  31
ENDBRANCH  28  29
ENDBRANCH  12  28
TORSDOF 14
