REMARK  Name = *****
REMARK                            x       y       z     vdW  Elec       q    Type
REMARK                         _______ _______ _______ _____ _____    ______ ____
ROOT
ATOM      1  C   LIG    1        3.739   4.912  -4.104  0.00  0.00    +0.080 A 
ATOM      2  C   LIG    1        3.258   4.194  -5.211  0.00  0.00    +0.134 A 
ATOM      3  C   LIG    1        2.876   4.904  -6.370  0.00  0.00    +0.071 A 
ATOM      4  C   LIG    1        2.936   6.309  -6.448  0.00  0.00    +0.053 A 
ATOM      5  C   LIG    1        3.502   6.992  -5.367  0.00  0.00    +0.110 A 
ATOM      6  C   LIG    1        3.890   6.302  -4.214  0.00  0.00    +0.045 A 
ENDROOT
BRANCH   1   9
ATOM      7  N   LIG    1        3.583   3.156  -2.377  0.00  0.00    -0.310 N 
ATOM      8  H   LIG    1        3.051   2.616  -3.051  0.00  0.00    +0.149 HD
ATOM      9  C   LIG    1        4.121   4.357  -2.768  0.00  0.00    +0.248 C 
ATOM     10  O   LIG    1        4.853   5.013  -2.030  0.00  0.00    -0.270 OA
BRANCH   7  11
ATOM     11  C   LIG    1        3.768   2.648  -1.020  0.00  0.00    +0.123 C 
BRANCH  11  13
ATOM     12  N   LIG    1        5.346   1.397   0.556  0.00  0.00    -0.298 NA
ATOM     13  C   LIG    1        5.156   2.010  -0.784  0.00  0.00    +0.074 C 
ATOM     14  C   LIG    1        5.357   0.808  -1.706  0.00  0.00    +0.021 C 
ATOM     15  C   LIG    1        6.492   0.038  -1.068  0.00  0.00    +0.017 C 
ATOM     16  C   LIG    1        6.420   0.400   0.408  0.00  0.00    +0.085 C 
BRANCH  12  18
ATOM     17  C   LIG    1        5.858   1.773   2.985  0.00  0.00    +0.020 C 
ATOM     18  C   LIG    1        5.666   2.390   1.596  0.00  0.00    +0.081 C 
ENDBRANCH  12  18
ENDBRANCH  11  13
ENDBRANCH   7  11
ENDBRANCH   1   9
BRANCH   4  19
ATOM     19  N   LIG    1        2.650   6.921  -7.681  0.00  0.00    -0.356 N 
ATOM     20  H   LIG    1        1.982   6.411  -8.254  0.00  0.00    +0.142 HD
ATOM     21  H   LIG    1        2.347   7.894  -7.598  0.00  0.00    +0.142 HD
ENDBRANCH   4  19
BRANCH   5  22
ATOM     22  S   LIG    1        3.663   8.758  -5.341  0.00  0.00    -0.002 S 
ATOM     23  O   LIG    1        4.300   9.139  -4.101  0.00  0.00    -0.169 OA
ATOM     24  O   LIG    1        2.347   9.284  -5.693  0.00  0.00    -0.169 OA
BRANCH  22  25
ATOM     25  C   LIG    1        4.784   9.120  -6.668  0.00  0.00    +0.168 C 
ATOM     26  C   LIG    1        5.031  10.608  -6.783  0.00  0.00    +0.028 C 
ENDBRANCH  22  25
ENDBRANCH   5  22
BRANCH   2  27
ATOM     27  O   LIG    1        3.161   2.827  -5.111  0.00  0.00    -0.494 OA
ATOM     28  C   LIG    1        3.256   2.098  -6.337  0.00  0.00    +0.277 C 
ENDBRANCH   2  27
TORSDOF 8
