REMARK  Name = *****
REMARK                            x       y       z     vdW  Elec       q    Type
REMARK                         _______ _______ _______ _____ _____    ______ ____
ROOT
ATOM      1  N   LIG    1        6.440   5.270   3.949  0.00  0.00    -0.310 N 
ENDROOT
BRANCH   1   2
ATOM      2  C   LIG    1        6.016   6.569   4.300  0.00  0.00    +0.121 A 
ATOM      3  N   LIG    1        5.493   7.382   3.357  0.00  0.00    -0.240 NA
ATOM      4  C   LIG    1        5.096   8.620   3.723  0.00  0.00    +0.113 A 
ATOM      5  C   LIG    1        5.167   9.109   5.018  0.00  0.00    +0.020 A 
ATOM      6  C   LIG    1        5.694   8.277   5.988  0.00  0.00    +0.005 A 
ATOM      7  C   LIG    1        6.131   6.999   5.630  0.00  0.00    +0.043 A 
ENDBRANCH   1   2
BRANCH   1   8
ATOM      8  C   LIG    1        5.697   4.745   2.788  0.00  0.00    +0.141 C 
BRANCH   8  12
ATOM      9  C   LIG    1        6.375   0.490   2.275  0.00  0.00    +0.120 A 
ATOM     10  C   LIG    1        7.200   1.399   1.616  0.00  0.00    +0.046 A 
ATOM     11  C   LIG    1        6.960   2.780   1.755  0.00  0.00    +0.009 A 
ATOM     12  C   LIG    1        5.927   3.260   2.572  0.00  0.00    -0.030 A 
ATOM     13  C   LIG    1        5.096   2.334   3.202  0.00  0.00    +0.009 A 
ATOM     14  C   LIG    1        5.311   0.969   3.046  0.00  0.00    +0.046 A 
BRANCH   9  16
ATOM     15  C   LIG    1        5.783  -1.720   2.829  0.00  0.00    +0.277 C 
ATOM     16  O   LIG    1        6.663  -0.839   2.124  0.00  0.00    -0.495 OA
ENDBRANCH   9  16
ENDBRANCH   8  12
ENDBRANCH   1   8
BRANCH   1  17
ATOM     17  C   LIG    1        7.920   5.171   3.911  0.00  0.00    +0.122 C 
BRANCH  17  18
ATOM     18  C   LIG    1        8.586   5.872   2.693  0.00  0.00    +0.103 C 
BRANCH  18  19
ATOM     19  N   LIG    1       10.066   5.775   2.653  0.00  0.00    -0.307 NA
ATOM     20  C   LIG    1       10.587   6.585   1.545  0.00  0.00    +0.104 C 
ATOM     21  C   LIG    1       10.534   4.395   2.505  0.00  0.00    +0.104 C 
ENDBRANCH  18  19
ENDBRANCH  17  18
ENDBRANCH   1  17
TORSDOF 7
