REMARK  Name = *****
REMARK                            x       y       z     vdW  Elec       q    Type
REMARK                         _______ _______ _______ _____ _____    ______ ____
ROOT
ATOM      1  N   LIG    1        2.761  -2.214  -0.439  0.00  0.00    -0.284 N 
ATOM      2  H   LIG    1        1.768  -2.133  -0.596  0.00  0.00    +0.155 HD
ATOM      3  C   LIG    1        3.147  -3.496  -0.090  0.00  0.00    +0.234 C 
ATOM      4  O   LIG    1        4.163  -3.821   0.526  0.00  0.00    -0.274 OA
ENDROOT
BRANCH   1   7
ATOM      5  C   LIG    1        1.119   0.118  -0.097  0.00  0.00    +0.045 C 
ATOM      6  C   LIG    1        2.626   0.169  -0.062  0.00  0.00    -0.029 A 
ATOM      7  C   LIG    1        3.442  -0.984  -0.233  0.00  0.00    +0.039 A 
ATOM      8  C   LIG    1        4.844  -0.824  -0.237  0.00  0.00    -0.029 A 
ATOM      9  C   LIG    1        5.837  -1.888  -0.620  0.00  0.00    +0.045 C 
ATOM     10  C   LIG    1        5.396   0.439   0.073  0.00  0.00    +0.005 A 
ATOM     11  C   LIG    1        4.591   1.547   0.303  0.00  0.00    +0.001 A 
ATOM     12  C   LIG    1        3.214   1.415   0.217  0.00  0.00    +0.005 A 
ENDBRANCH   1   7
BRANCH   3  13
ATOM     13  C   LIG    1        2.082  -4.557  -0.483  0.00  0.00    +0.135 C 
ATOM     14  C   LIG    1        2.689  -5.588  -1.424  0.00  0.00    +0.033 C 
BRANCH  13  15
ATOM     15  N   LIG    1        1.542  -5.185   0.739  0.00  0.00    -0.320 NA
ATOM     16  H   LIG    1        1.345  -6.170   0.558  0.00  0.00    +0.119 HD
ATOM     17  H   LIG    1        2.282  -5.194   1.448  0.00  0.00    +0.119 HD
ENDBRANCH  13  15
ENDBRANCH   3  13
TORSDOF 3
