REMARK  Name = *****
REMARK                            x       y       z     vdW  Elec       q    Type
REMARK                         _______ _______ _______ _____ _____    ______ ____
ROOT
ATOM      1  C   LIG    1        2.709  -0.722  -0.001  0.00  0.00    +0.001 A 
ATOM      2  C   LIG    1        1.492  -1.400  -0.001  0.00  0.00    +0.010 A 
ATOM      3  C   LIG    1        0.250  -0.718  -0.001  0.00  0.00    -0.002 A 
ATOM      4  C   LIG    1       -0.926  -1.589  -0.002  0.00  0.00    +0.011 C 
ATOM      5  C   LIG    1       -2.211  -1.241  -0.002  0.00  0.00    +0.022 C 
ATOM      6  C   LIG    1       -2.742   0.125   0.001  0.00  0.00    +0.130 C 
ATOM      7  N   LIG    1       -2.199   1.289   0.001  0.00  0.00    -0.191 NA
ATOM      8  N   LIG    1       -0.880   1.531  -0.001  0.00  0.00    -0.237 N 
ATOM      9  H   LIG    1       -0.644   2.521   0.001  0.00  0.00    +0.174 HD
ATOM     10  C   LIG    1        0.242   0.683  -0.000  0.00  0.00    +0.055 A 
ATOM     11  C   LIG    1        1.497   1.345   0.000  0.00  0.00    +0.025 A 
ATOM     12  C   LIG    1        2.712   0.660   0.000  0.00  0.00    +0.002 A 
ENDROOT
TORSDOF 0
