REMARK  Name = *****
REMARK                            x       y       z     vdW  Elec       q    Type
REMARK                         _______ _______ _______ _____ _____    ______ ____
ROOT
ATOM      1  C6    A A  1        1.829  -2.822   2.152  0.00  0.00    +0.147 A 
ATOM      2  C5    A A  1        2.890  -2.409   1.327  0.00  0.00    +0.147 A 
ATOM      3  N7    A A  1        2.992  -1.422   0.371  0.00  0.00    -0.231 NA
ATOM      4  C8    A A  1        4.232  -1.505  -0.066  0.00  0.00    +0.203 A 
ATOM      5  N9    A A  1        4.932  -2.513   0.553  0.00  0.00    -0.285 N 
ATOM      6  C4    A A  1        4.096  -3.083   1.476  0.00  0.00    +0.167 A 
ATOM      7  N3    A A  1        4.363  -4.074   2.343  0.00  0.00    -0.216 NA
ATOM      8  C2    A A  1        3.270  -4.385   3.075  0.00  0.00    +0.225 A 
ATOM      9  N1    A A  1        2.046  -3.820   3.036  0.00  0.00    -0.219 NA
ENDROOT
BRANCH   5  10
ATOM     10  C1*   A A  1        6.311  -2.851   0.248  0.00  0.00    +0.253 C 
ATOM     11  C2*   A A  1        7.333  -2.104   1.100  0.00  0.00    +0.195 C 
ATOM     12  C3*   A A  1        8.508  -3.069   1.066  0.00  0.00    +0.178 C 
ATOM     13  C4*   A A  1        7.846  -4.445   1.041  0.00  0.00    +0.177 C 
ATOM     14  O4*   A A  1        6.551  -4.266   0.417  0.00  0.00    -0.346 OA
BRANCH  11  15
ATOM     15  O2*   A A  1        7.683  -0.836   0.539  0.00  0.00    -0.385 OA
ATOM     16  H2*   A A  1        8.533  -0.978   0.069  0.00  0.00    +0.210 HD
ENDBRANCH  11  15
BRANCH  12  17
ATOM     17  O3*   A A  1        9.246  -2.811  -0.148  0.00  0.00    -0.386 OA
ATOM     18  H3*   A A  1        9.015  -3.484  -0.815  0.00  0.00    +0.210 HD
ENDBRANCH  12  17
BRANCH  13  19
ATOM     19  C5*   A A  1        7.683  -5.063   2.432  0.00  0.00    +0.190 C 
BRANCH  19  20
ATOM     20  O5*   A A  1        6.949  -4.210   3.297  0.00  0.00    -0.392 OA
ATOM     21  H5*   A A  1        6.024  -4.211   2.961  0.00  0.00    +0.209 HD
ENDBRANCH  19  20
ENDBRANCH  13  19
ENDBRANCH   5  10
BRANCH   1  22
ATOM     22  N6    A A  1        0.568  -2.238   2.125  0.00  0.00    -0.341 N 
ATOM     23  H61   A A  1        0.571  -1.303   1.734  0.00  0.00    +0.144 HD
ATOM     24  H62   A A  1        0.073  -2.378   2.996  0.00  0.00    +0.144 HD
ENDBRANCH   1  22
TORSDOF 6
