REMARK  Name = *****
REMARK                            x       y       z     vdW  Elec       q    Type
REMARK                         _______ _______ _______ _____ _____    ______ ____
ROOT
ATOM      1  C   LIG    1        7.386  -1.338  -0.806  0.00  0.00    +0.090 C 
ATOM      2  N   LIG    1        6.699  -2.539  -0.972  0.00  0.00    -0.344 NA
ATOM      3  C   LIG    1        5.274  -2.682  -1.219  0.00  0.00    +0.149 C 
ATOM      4  C   LIG    1        7.585  -3.609  -0.910  0.00  0.00    +0.030 C 
ATOM      5  C   LIG    1        8.849  -3.083  -0.728  0.00  0.00    +0.024 C 
ATOM      6  C   LIG    1        8.722  -1.682  -0.631  0.00  0.00    +0.031 C 
ENDROOT
BRANCH   1   7
ATOM      7  C   LIG    1        6.811   0.013  -0.778  0.00  0.00    +0.209 C 
ATOM      8  O   LIG    1        5.674   0.247  -0.356  0.00  0.00    -0.285 OA
BRANCH   7  13
ATOM      9  C   LIG    1        9.761   4.579  -2.893  0.00  0.00    +0.044 C 
ATOM     10  C   LIG    1        9.022   3.406  -2.314  0.00  0.00    -0.050 A 
ATOM     11  C   LIG    1        9.202   2.130  -2.859  0.00  0.00    +0.004 A 
ATOM     12  C   LIG    1        8.516   1.027  -2.339  0.00  0.00    +0.012 A 
ATOM     13  C   LIG    1        7.612   1.181  -1.280  0.00  0.00    +0.024 A 
ATOM     14  C   LIG    1        7.412   2.465  -0.748  0.00  0.00    +0.012 A 
ATOM     15  C   LIG    1        8.136   3.561  -1.242  0.00  0.00    +0.004 A 
ENDBRANCH   7  13
ENDBRANCH   1   7
BRANCH   4  16
ATOM     16  C   LIG    1        7.200  -5.064  -1.036  0.00  0.00    +0.173 C 
BRANCH  16  17
ATOM     17  C   LIG    1        6.846  -5.722   0.288  0.00  0.00    +0.310 C 
ATOM     18  O   LIG    1        6.080  -6.673   0.368  0.00  0.00    -0.251 OA
BRANCH  17  19
ATOM     19  O   LIG    1        7.501  -5.255   1.375  0.00  0.00    -0.480 OA
ATOM     20  H   LIG    1        8.090  -4.502   1.182  0.00  0.00    +0.295 HD
ENDBRANCH  17  19
ENDBRANCH  16  17
ENDBRANCH   4  16
TORSDOF 5
