REMARK  Name = *****
REMARK                            x       y       z     vdW  Elec       q    Type
REMARK                         _______ _______ _______ _____ _____    ______ ____
ROOT
ATOM      1  N   LIG    1        4.257   0.114   0.216  0.00  0.00    -0.290 NA
ATOM      2  C   LIG    1        4.811  -1.213  -0.175  0.00  0.00    +0.100 C 
ATOM      3  C   LIG    1        5.738  -1.821   0.907  0.00  0.00    +0.100 C 
ATOM      4  N   LIG    1        6.802  -2.702   0.333  0.00  0.00    -0.290 NA
ATOM      5  C   LIG    1        8.095  -2.380   1.022  0.00  0.00    +0.100 C 
ATOM      6  C   LIG    1        8.779  -1.090   0.476  0.00  0.00    +0.100 C 
ATOM      7  N   LIG    1        8.627   0.146   1.290  0.00  0.00    -0.290 NA
ATOM      8  C   LIG    1        8.894   1.323   0.437  0.00  0.00    +0.100 C 
ATOM      9  C   LIG    1        8.216   2.648   0.875  0.00  0.00    +0.100 C 
ATOM     10  N   LIG    1        6.881   2.894   0.273  0.00  0.00    -0.290 NA
ATOM     11  C   LIG    1        5.883   1.929   0.837  0.00  0.00    +0.100 C 
ATOM     12  C   LIG    1        5.153   1.188  -0.304  0.00  0.00    +0.100 C 
ENDROOT
BRANCH   1  13
ATOM     13  C   LIG    1        2.866   0.221  -0.297  0.00  0.00    +0.205 C 
BRANCH  13  15
ATOM     14  O   LIG    1        2.168   2.512  -0.726  0.00  0.00    -0.250 OA
ATOM     15  C   LIG    1        2.173   1.540   0.031  0.00  0.00    +0.319 C 
BRANCH  15  16
ATOM     16  O   LIG    1        1.542   1.578   1.224  0.00  0.00    -0.480 OA
ATOM     17  H   LIG    1        1.710   0.795   1.785  0.00  0.00    +0.295 HD
ENDBRANCH  15  16
ENDBRANCH  13  15
ENDBRANCH   1  13
BRANCH   4  18
ATOM     18  C   LIG    1        6.513  -4.151   0.582  0.00  0.00    +0.205 C 
BRANCH  18  19
ATOM     19  C   LIG    1        5.254  -4.639  -0.130  0.00  0.00    +0.319 C 
ATOM     20  O   LIG    1        4.530  -5.528   0.284  0.00  0.00    -0.250 OA
BRANCH  19  21
ATOM     21  O   LIG    1        5.061  -4.028  -1.325  0.00  0.00    -0.480 OA
ATOM     22  H   LIG    1        5.768  -3.357  -1.444  0.00  0.00    +0.295 HD
ENDBRANCH  19  21
ENDBRANCH  18  19
ENDBRANCH   4  18
BRANCH   7  23
ATOM     23  C   LIG    1        9.478   0.113   2.513  0.00  0.00    +0.205 C 
BRANCH  23  24
ATOM     24  C   LIG    1        9.233   1.269   3.483  0.00  0.00    +0.319 C 
ATOM     25  O   LIG    1        8.352   1.286   4.339  0.00  0.00    -0.250 OA
BRANCH  24  26
ATOM     26  O   LIG    1       10.060   2.331   3.302  0.00  0.00    -0.480 OA
ATOM     27  H   LIG    1       10.696   2.242   2.568  0.00  0.00    +0.295 HD
ENDBRANCH  24  26
ENDBRANCH  23  24
ENDBRANCH   7  23
BRANCH  10  28
ATOM     28  C   LIG    1        6.436   4.284   0.611  0.00  0.00    +0.205 C 
BRANCH  28  29
ATOM     29  C   LIG    1        7.393   5.359   0.068  0.00  0.00    +0.319 C 
ATOM     30  O   LIG    1        7.565   6.437   0.584  0.00  0.00    -0.250 OA
BRANCH  29  31
ATOM     31  O   LIG    1        8.040   4.984  -1.071  0.00  0.00    -0.480 OA
ATOM     32  H   LIG    1        7.775   4.072  -1.310  0.00  0.00    +0.295 HD
ENDBRANCH  29  31
ENDBRANCH  28  29
ENDBRANCH  10  28
TORSDOF 12
