REMARK  Name = *****
REMARK                            x       y       z     vdW  Elec       q    Type
REMARK                         _______ _______ _______ _____ _____    ______ ____
ROOT
ATOM      1  N   LIG    1        4.022   1.359  -0.366  0.00  0.00    -0.272 N 
ATOM      2  H   LIG    1        4.557   0.507  -0.281  0.00  0.00    +0.258 HD
ENDROOT
BRANCH   1   5
ATOM      3  C   LIG    1        0.509   1.737  -1.223  0.00  0.00    +0.291 C 
ATOM      4  N   LIG    1        1.943   1.956  -1.162  0.00  0.00    -0.117 NA
ATOM      5  C   LIG    1        2.678   1.161  -0.466  0.00  0.00    +0.381 C 
BRANCH   5   6
ATOM      6  N   LIG    1        2.244   0.084   0.254  0.00  0.00    -0.279 N 
ATOM      7  H   LIG    1        1.240  -0.039   0.260  0.00  0.00    +0.258 HD
ATOM      8  C   LIG    1        2.887  -0.445   1.437  0.00  0.00    +0.239 C 
ENDBRANCH   5   6
ENDBRANCH   1   5
BRANCH   1   9
ATOM      9  C   LIG    1        4.704   2.407  -1.102  0.00  0.00    +0.231 C 
BRANCH   9  10
ATOM     10  C   LIG    1        6.178   2.336  -0.781  0.00  0.00    -0.014 A 
ATOM     11  C   LIG    1        7.024   1.486  -1.510  0.00  0.00    +0.007 A 
ATOM     12  C   LIG    1        8.369   1.356  -1.160  0.00  0.00    +0.000 A 
ATOM     13  C   LIG    1        8.882   2.071  -0.079  0.00  0.00    +0.000 A 
ATOM     14  C   LIG    1        8.053   2.925   0.647  0.00  0.00    +0.000 A 
ATOM     15  C   LIG    1        6.708   3.056   0.300  0.00  0.00    +0.007 A 
ENDBRANCH   9  10
ENDBRANCH   1   9
TORSDOF 4
