REMARK  Name = *****
REMARK                            x       y       z     vdW  Elec       q    Type
REMARK                         _______ _______ _______ _____ _____    ______ ____
ROOT
ATOM      1  N   LIG    1        3.197   6.798   1.928  0.00  0.00    -0.297 N 
ATOM      2  C   LIG    1        2.379   7.522   2.918  0.00  0.00    +0.127 C 
ATOM      3  C   LIG    1        2.677   9.032   2.917  0.00  0.00    +0.127 C 
ATOM      4  N   LIG    1        2.622   9.607   1.569  0.00  0.00    -0.295 N 
ATOM      5  C   LIG    1        2.368  10.961   1.323  0.00  0.00    +0.260 C 
ATOM      6  O   LIG    1        2.763  11.488   0.275  0.00  0.00    -0.271 OA
ATOM      7  C   LIG    1        3.400   8.863   0.563  0.00  0.00    +0.127 C 
ATOM      8  C   LIG    1        3.114   7.346   0.564  0.00  0.00    +0.127 C 
ENDROOT
BRANCH   1  15
ATOM      9  C   LIG    1        3.196   1.068   0.029  0.00  0.00    +0.164 A 
ATOM     10  C   LIG    1        2.601   0.498   1.160  0.00  0.00    +0.162 A 
ATOM     11  C   LIG    1        2.286   1.333   2.232  0.00  0.00    +0.062 A 
ATOM     12  C   LIG    1        2.542   2.723   2.180  0.00  0.00    +0.044 A 
ATOM     13  C   LIG    1        3.103   3.304   1.047  0.00  0.00    +0.082 A 
ATOM     14  N   LIG    1        3.327   4.628   0.955  0.00  0.00    -0.214 NA
ATOM     15  C   LIG    1        2.997   5.410   1.995  0.00  0.00    +0.220 A 
ATOM     16  N   LIG    1        2.486   4.915   3.131  0.00  0.00    -0.199 NA
ATOM     17  C   LIG    1        2.268   3.603   3.217  0.00  0.00    +0.129 A 
ATOM     18  C   LIG    1        3.434   2.456  -0.005  0.00  0.00    +0.078 A 
BRANCH  17  19
ATOM     19  N   LIG    1        1.724   3.181   4.437  0.00  0.00    -0.343 N 
ATOM     20  H   LIG    1        2.323   2.491   4.876  0.00  0.00    +0.144 HD
ATOM     21  H   LIG    1        1.651   4.014   5.018  0.00  0.00    +0.144 HD
ENDBRANCH  17  19
BRANCH   9  23
ATOM     22  C   LIG    1        2.949  -0.748  -1.501  0.00  0.00    +0.277 C 
ATOM     23  O   LIG    1        3.651   0.417  -1.089  0.00  0.00    -0.491 OA
ENDBRANCH   9  23
BRANCH  10  24
ATOM     24  O   LIG    1        2.435  -0.858   1.230  0.00  0.00    -0.491 OA
ATOM     25  C   LIG    1        1.327  -1.316   2.002  0.00  0.00    +0.277 C 
ENDBRANCH  10  24
ENDBRANCH   1  15
BRANCH   5  26
ATOM     26  C   LIG    1        1.516  11.770   2.329  0.00  0.00    +0.296 C 
ATOM     27  O   LIG    1        2.332  12.254   3.403  0.00  0.00    -0.472 OA
ATOM     28  C   LIG    1        1.747  13.294   4.084  0.00  0.00    +0.163 A 
ATOM     29  C   LIG    1        0.644  14.009   3.609  0.00  0.00    +0.162 A 
ATOM     30  C   LIG    1        0.106  15.060   4.358  0.00  0.00    +0.049 A 
ATOM     31  C   LIG    1        0.665  15.396   5.591  0.00  0.00    +0.004 A 
ATOM     32  C   LIG    1        1.763  14.682   6.072  0.00  0.00    +0.004 A 
ATOM     33  O   LIG    1        0.019  13.721   2.427  0.00  0.00    -0.484 OA
ATOM     34  C   LIG    1        2.309  13.640   5.314  0.00  0.00    +0.049 A 
ATOM     35  C   LIG    1        0.853  12.927   1.575  0.00  0.00    +0.283 C 
ENDBRANCH   5  26
TORSDOF 5
