REMARK  Name = *****
REMARK                            x       y       z     vdW  Elec       q    Type
REMARK                         _______ _______ _______ _____ _____    ______ ____
ROOT
ATOM      1  C   LIG    1        6.332   2.099  -1.813  0.00  0.00    +0.298 C 
ATOM      2  N   LIG    1        6.961   3.189  -2.052  0.00  0.00    -0.076 NA
ENDROOT
BRANCH   2   3
ATOM      3  S   LIG    1        8.540   3.150  -2.409  0.00  0.00    +0.103 S 
ATOM      4  O   LIG    1        8.817   2.171  -3.448  0.00  0.00    -0.146 OA
ATOM      5  O   LIG    1        9.326   3.179  -1.192  0.00  0.00    -0.146 OA
BRANCH   3   6
ATOM      6  C   LIG    1        8.771   4.741  -3.201  0.00  0.00    +0.113 A 
ATOM      7  C   LIG    1        8.591   4.844  -4.584  0.00  0.00    +0.029 A 
ATOM      8  C   LIG    1        8.766   6.077  -5.213  0.00  0.00    +0.005 A 
ATOM      9  C   LIG    1        9.125   7.209  -4.469  0.00  0.00    -0.050 A 
ATOM     10  C   LIG    1        9.275   8.533  -5.160  0.00  0.00    +0.044 C 
ATOM     11  C   LIG    1        9.327   7.086  -3.087  0.00  0.00    +0.005 A 
ATOM     12  C   LIG    1        9.156   5.853  -2.449  0.00  0.00    +0.029 A 
ENDBRANCH   3   6
ENDBRANCH   2   3
BRANCH   1  13
ATOM     13  N   LIG    1        5.005   1.977  -1.535  0.00  0.00    -0.298 N 
ATOM     14  H   LIG    1        4.559   1.169  -1.951  0.00  0.00    +0.150 HD
BRANCH  13  15
ATOM     15  C   LIG    1        4.135   3.142  -1.469  0.00  0.00    +0.106 C 
BRANCH  15  16
ATOM     16  C   LIG    1        2.704   2.717  -1.131  0.00  0.00    +0.018 C 
BRANCH  16  18
ATOM     17  C   LIG    1        1.182   1.580   0.532  0.00  0.00    +0.004 C 
ATOM     18  C   LIG    1        2.608   2.001   0.219  0.00  0.00    -0.002 C 
ENDBRANCH  16  18
ENDBRANCH  15  16
ENDBRANCH  13  15
ENDBRANCH   1  13
BRANCH   1  19
ATOM     19  O   LIG    1        6.921   0.897  -1.810  0.00  0.00    -0.481 OA
ATOM     20  H   LIG    1        6.322   0.213  -1.482  0.00  0.00    +0.295 HD
ENDBRANCH   1  19
TORSDOF 7
