REMARK  Name = *****
REMARK                            x       y       z     vdW  Elec       q    Type
REMARK                         _______ _______ _______ _____ _____    ______ ____
ROOT
ATOM      1  C   LIG    1        3.384  -2.780  -2.616  0.00  0.00    +0.046 A 
ATOM      2  C   LIG    1        3.872  -3.604  -1.524  0.00  0.00    +0.025 A 
ATOM      3  C   LIG    1        2.860  -4.065  -0.705  0.00  0.00    +0.074 A 
ATOM      4  C   LIG    1        3.208  -5.067   0.228  0.00  0.00    +0.032 A 
ATOM      5  C   LIG    1        4.539  -5.462   0.415  0.00  0.00    +0.048 A 
ATOM      6  C   LIG    1        5.643  -4.866  -0.201  0.00  0.00    +0.121 A 
ATOM      7  N   LIG    1        1.589  -3.833  -0.663  0.00  0.00    -0.246 NA
ATOM      8  C   LIG    1        1.115  -3.055  -1.680  0.00  0.00    +0.075 A 
ATOM      9  C   LIG    1       -0.236  -2.882  -1.556  0.00  0.00    +0.048 A 
ATOM     10  C   LIG    1       -0.853  -2.067  -2.495  0.00  0.00    +0.043 A 
ATOM     11 CL   LIG    1       -2.507  -1.643  -2.278  0.00  0.00    -0.084 Cl
ATOM     12  C   LIG    1       -0.115  -1.559  -3.550  0.00  0.00    +0.021 A 
ATOM     13  C   LIG    1        1.263  -1.810  -3.674  0.00  0.00    +0.013 A 
ATOM     14  C   LIG    1        5.255  -3.906  -1.192  0.00  0.00    +0.057 A 
ATOM     15  C   LIG    1        1.942  -2.562  -2.655  0.00  0.00    +0.022 A 
ENDROOT
BRANCH   1  16
ATOM     16  N   LIG    1        4.145  -2.500  -3.749  0.00  0.00    -0.340 N 
ATOM     17  H   LIG    1        3.942  -3.287  -4.375  0.00  0.00    +0.146 HD
BRANCH  16  18
ATOM     18  C   LIG    1        5.552  -2.088  -4.004  0.00  0.00    +0.067 C 
ATOM     19  C   LIG    1        6.621  -3.185  -4.072  0.00  0.00    +0.027 C 
BRANCH  18  20
ATOM     20  C   LIG    1        6.059  -0.806  -3.315  0.00  0.00    +0.023 C 
BRANCH  20  21
ATOM     21  C   LIG    1        6.633  -0.865  -1.878  0.00  0.00    +0.017 C 
BRANCH  21  22
ATOM     22  C   LIG    1        5.633  -1.072  -0.661  0.00  0.00    +0.084 C 
BRANCH  22  23
ATOM     23  N   LIG    1        6.363  -1.580   0.562  0.00  0.00    -0.303 NA
BRANCH  23  25
ATOM     24  C   LIG    1        7.808  -0.431   2.272  0.00  0.00    +0.020 C 
ATOM     25  C   LIG    1        6.902  -0.309   1.076  0.00  0.00    +0.081 C 
ENDBRANCH  23  25
BRANCH  23  26
ATOM     26  C   LIG    1        5.780  -2.210   1.805  0.00  0.00    +0.081 C 
ATOM     27  C   LIG    1        5.078  -3.490   2.072  0.00  0.00    +0.020 C 
ENDBRANCH  23  26
ENDBRANCH  22  23
ENDBRANCH  21  22
ENDBRANCH  20  21
ENDBRANCH  18  20
ENDBRANCH  16  18
ENDBRANCH   1  16
BRANCH   6  28
ATOM     28  O   LIG    1        6.988  -4.745   0.249  0.00  0.00    -0.495 OA
ATOM     29  C   LIG    1        7.549  -5.263   1.525  0.00  0.00    +0.277 C 
ENDBRANCH   6  28
TORSDOF 9
