REMARK  Name = *****
REMARK                            x       y       z     vdW  Elec       q    Type
REMARK                         _______ _______ _______ _____ _____    ______ ____
ROOT
ATOM      1  C   LIG    1       -1.051  -0.540   1.074  0.00  0.00    +0.042 C 
ATOM      2  C   LIG    1       -2.170  -0.051   0.165  0.00  0.00    +0.069 C 
ATOM      3  C   LIG    1       -2.729   1.379   0.458  0.00  0.00    -0.000 C 
ATOM      4  C   LIG    1       -3.024   1.618   1.961  0.00  0.00    +0.014 C 
ATOM      5  C   LIG    1       -4.126   1.338  -0.260  0.00  0.00    +0.001 C 
ATOM      6  C   LIG    1       -4.242   2.196  -1.517  0.00  0.00    -0.004 C 
ATOM      7  C   LIG    1       -3.576   3.578  -1.290  0.00  0.00    -0.001 C 
ATOM      8  C   LIG    1       -2.081   3.233  -1.228  0.00  0.00    +0.005 C 
ATOM      9  C   LIG    1       -4.296   4.805  -0.488  0.00  0.00    -0.022 C 
ATOM     10  C   LIG    1       -3.199   5.919  -0.853  0.00  0.00    +0.012 C 
ATOM     11  C   LIG    1       -5.764   4.523  -1.022  0.00  0.00    +0.001 C 
ATOM     12  C   LIG    1       -6.066   5.576  -2.057  0.00  0.00    +0.059 C 
ATOM     13  C   LIG    1       -6.460   6.679  -1.145  0.00  0.00    +0.040 A 
ATOM     14  C   LIG    1       -5.948   6.782   0.165  0.00  0.00    -0.006 A 
ATOM     15  C   LIG    1       -6.944   7.663   0.742  0.00  0.00    +0.138 A 
ATOM     16  N   LIG    1       -7.908   8.002  -0.100  0.00  0.00    -0.182 NA
ATOM     17  N   LIG    1       -7.628   7.328  -1.230  0.00  0.00    -0.281 N 
ATOM     18  H   LIG    1       -8.353   7.228  -1.944  0.00  0.00    +0.189 HD
ATOM     19  C   LIG    1       -6.426   3.166  -1.191  0.00  0.00    +0.005 C 
ATOM     20  C   LIG    1       -4.851   5.704   0.799  0.00  0.00    +0.045 C 
ATOM     21  C   LIG    1       -5.646   2.282  -2.084  0.00  0.00    +0.004 C 
ATOM     22  C   LIG    1       -4.424  -0.145  -0.585  0.00  0.00    +0.007 C 
ATOM     23  C   LIG    1       -1.744   2.511   0.048  0.00  0.00    +0.010 C 
ATOM     24  C   LIG    1       -3.417  -0.939   0.227  0.00  0.00    +0.035 C 
ENDROOT
BRANCH   2  25
ATOM     25  O   LIG    1       -1.671  -0.094  -1.183  0.00  0.00    -0.388 OA
ATOM     26  H   LIG    1       -1.568  -1.028  -1.435  0.00  0.00    +0.210 HD
ENDBRANCH   2  25
TORSDOF 1
