REMARK  Name = *****
REMARK                            x       y       z     vdW  Elec       q    Type
REMARK                         _______ _______ _______ _____ _____    ______ ____
ROOT
ATOM      1  C   LIG    1        9.365  -3.550   2.898  0.00  0.00    +0.073 C 
ATOM      2  C   LIG    1        8.266  -2.778   3.635  0.00  0.00    +0.166 C 
ATOM      3  O   LIG    1        7.448  -2.074   2.620  0.00  0.00    -0.332 OA
ATOM      4  C   LIG    1        6.101  -2.410   2.983  0.00  0.00    +0.164 C 
ATOM      5  C   LIG    1        6.358  -3.835   3.447  0.00  0.00    +0.162 C 
ATOM      6  C   LIG    1        4.984  -4.472   3.565  0.00  0.00    +0.039 C 
ATOM      7  C   LIG    1        4.566  -4.131   2.118  0.00  0.00    +0.004 C 
ATOM      8  C   LIG    1        3.249  -4.519   1.460  0.00  0.00    +0.002 C 
ATOM      9  C   LIG    1        3.366  -4.269  -0.096  0.00  0.00    +0.031 C 
ATOM     10  C   LIG    1        4.117  -2.930  -0.479  0.00  0.00    +0.119 C 
ATOM     11  C   LIG    1        5.256  -2.441   0.460  0.00  0.00    +0.042 C 
ATOM     12  C   LIG    1        3.850  -5.504  -0.981  0.00  0.00    -0.002 C 
ATOM     13  C   LIG    1        3.415  -6.856  -0.407  0.00  0.00    -0.027 C 
ATOM     14  C   LIG    1        3.537  -7.976  -1.149  0.00  0.00    +0.049 C 
ATOM     15  C   LIG    1        4.990  -8.169  -1.523  0.00  0.00    +0.156 C 
ATOM     16  C   LIG    1        5.828  -6.937  -1.849  0.00  0.00    +0.080 C 
ATOM     17  O   LIG    1        5.406  -9.310  -1.711  0.00  0.00    -0.293 OA
ATOM     18  C   LIG    1        3.526  -7.022   1.087  0.00  0.00    +0.193 C 
ATOM     19  F   LIG    1        4.830  -6.981   1.472  0.00  0.00    -0.241 F 
ATOM     20  C   LIG    1        3.220  -5.297  -2.395  0.00  0.00    +0.016 C 
ATOM     21  C   LIG    1        5.389  -5.638  -1.147  0.00  0.00    +0.019 C 
ATOM     22  C   LIG    1        2.760  -5.930   1.805  0.00  0.00    +0.045 C 
ATOM     23  C   LIG    1        4.919  -2.608   1.948  0.00  0.00    +0.012 C 
ATOM     24  C   LIG    1        3.702  -1.710   2.321  0.00  0.00    +0.015 C 
ATOM     25  O   LIG    1        7.401  -3.695   4.375  0.00  0.00    -0.343 OA
ATOM     26  C   LIG    1        8.905  -1.804   4.620  0.00  0.00    +0.073 C 
ENDROOT
BRANCH  10  27
ATOM     27  O   LIG    1        3.154  -1.875  -0.581  0.00  0.00    -0.392 OA
ATOM     28  H   LIG    1        2.543  -2.093  -1.306  0.00  0.00    +0.210 HD
ENDBRANCH  10  27
BRANCH   4  29
ATOM     29  C   LIG    1        5.725  -1.424   4.127  0.00  0.00    +0.193 C 
ATOM     30  O   LIG    1        5.180  -1.773   5.179  0.00  0.00    -0.292 OA
BRANCH  29  31
ATOM     31  C   LIG    1        6.036   0.057   3.889  0.00  0.00    +0.233 C 
BRANCH  31  32
ATOM     32  O   LIG    1        5.365   0.882   4.833  0.00  0.00    -0.387 OA
ATOM     33  H   LIG    1        5.237   0.330   5.632  0.00  0.00    +0.210 HD
ENDBRANCH  31  32
ENDBRANCH  29  31
ENDBRANCH   4  29
TORSDOF 4
