REMARK  Name = *****
REMARK                            x       y       z     vdW  Elec       q    Type
REMARK                         _______ _______ _______ _____ _____    ______ ____
ROOT
ATOM      1  C   LIG    1       -4.187 -10.340  -5.528  0.00  0.00    +0.080 C 
ENDROOT
BRANCH   1   3
ATOM      2  C   LIG    1       -2.212 -11.615  -4.733  0.00  0.00    +0.234 C 
ATOM      3  N   LIG    1       -2.935 -11.074  -5.777  0.00  0.00    -0.310 N 
ATOM      4  H   LIG    1       -2.551 -11.063  -6.715  0.00  0.00    +0.149 HD
ATOM      5  O   LIG    1       -2.598 -11.588  -3.564  0.00  0.00    -0.274 OA
BRANCH   2   6
ATOM      6  C   LIG    1       -0.909 -12.329  -5.125  0.00  0.00    +0.163 C 
BRANCH   6   9
ATOM      7  N   LIG    1        1.886 -10.692  -4.522  0.00  0.00    -0.283 N 
ATOM      8  C   LIG    1        1.125 -11.395  -3.617  0.00  0.00    +0.303 C 
ATOM      9  N   LIG    1        0.021 -12.120  -3.941  0.00  0.00    -0.288 N 
ATOM     10  H   LIG    1       -0.504 -12.148  -3.062  0.00  0.00    +0.151 HD
ATOM     11  O   LIG    1        1.385 -11.316  -2.408  0.00  0.00    -0.253 OA
ATOM     12  C   LIG    1        2.421  -9.459  -3.931  0.00  0.00    +0.134 C 
BRANCH   7  13
ATOM     13  C   LIG    1        1.696 -10.681  -5.976  0.00  0.00    +0.165 C 
BRANCH  13  17
ATOM     14  C   LIG    1        3.592  -7.823  -6.996  0.00  0.00    +0.081 A 
ATOM     15  S   LIG    1        5.002  -8.793  -7.130  0.00  0.00    -0.080 S 
ATOM     16  C   LIG    1        4.015 -10.197  -7.051  0.00  0.00    +0.071 A 
ATOM     17  C   LIG    1        2.736  -9.839  -6.663  0.00  0.00    +0.066 A 
ATOM     18  N   LIG    1        2.470  -8.477  -6.785  0.00  0.00    -0.247 NA
BRANCH  14  20
ATOM     19  C   LIG    1        3.476  -6.091  -8.698  0.00  0.00    +0.014 C 
ATOM     20  C   LIG    1        3.693  -6.345  -7.207  0.00  0.00    +0.038 C 
ATOM     21  C   LIG    1        2.717  -5.585  -6.309  0.00  0.00    +0.014 C 
ENDBRANCH  14  20
ENDBRANCH  13  17
ENDBRANCH   7  13
ENDBRANCH   6   9
BRANCH   6  22
ATOM     22  C   LIG    1       -1.223 -13.850  -5.498  0.00  0.00    +0.012 C 
ATOM     23  C   LIG    1       -2.053 -14.187  -6.785  0.00  0.00    +0.009 C 
ATOM     24  C   LIG    1       -1.988 -14.613  -4.404  0.00  0.00    +0.009 C 
ENDBRANCH   6  22
ENDBRANCH   2   6
ENDBRANCH   1   3
BRANCH   1  25
ATOM     25  C   LIG    1       -5.350 -11.331  -5.279  0.00  0.00    +0.056 C 
BRANCH  25  26
ATOM     26  C   LIG    1       -6.745 -10.800  -4.883  0.00  0.00    +0.137 C 
BRANCH  26  27
ATOM     27  O   LIG    1       -6.554  -9.902  -3.782  0.00  0.00    -0.390 OA
ATOM     28  H   LIG    1       -7.398  -9.836  -3.301  0.00  0.00    +0.210 HD
ENDBRANCH  26  27
BRANCH  26  29
ATOM     29  C   LIG    1       -7.729 -10.147  -5.925  0.00  0.00    +0.109 C 
BRANCH  29  30
ATOM     30  N   LIG    1       -7.264  -8.803  -6.321  0.00  0.00    -0.276 N 
ATOM     31  H   LIG    1       -6.393  -8.737  -6.738  0.00  0.00    +0.152 HD
ATOM     32  C   LIG    1       -7.868  -7.677  -6.676  0.00  0.00    +0.401 C 
ATOM     33  O   LIG    1       -9.008  -7.275  -6.277  0.00  0.00    -0.227 OA
BRANCH  32  34
ATOM     34  O   LIG    1       -7.149  -7.031  -7.596  0.00  0.00    -0.445 OA
BRANCH  34  35
ATOM     35  C   LIG    1       -7.781  -6.022  -8.411  0.00  0.00    +0.278 C 
BRANCH  35  36
ATOM     36  C   LIG    1       -8.281  -6.688  -9.663  0.00  0.00    +0.046 A 
ATOM     37  S   LIG    1       -7.341  -6.737 -11.103  0.00  0.00    -0.077 S 
ATOM     38  C   LIG    1       -8.516  -7.759 -11.825  0.00  0.00    +0.156 A 
ATOM     39  N   LIG    1       -9.626  -7.917 -11.144  0.00  0.00    -0.255 NA
ATOM     40  C   LIG    1       -9.502  -7.279  -9.923  0.00  0.00    +0.125 A 
ENDBRANCH  35  36
ENDBRANCH  34  35
ENDBRANCH  32  34
ENDBRANCH  29  30
BRANCH  29  41
ATOM     41  C   LIG    1       -8.089 -11.140  -7.125  0.00  0.00    +0.060 C 
BRANCH  41  42
ATOM     42  C   LIG    1       -9.270 -10.782  -8.033  0.00  0.00    -0.045 A 
ATOM     43  C   LIG    1      -10.156  -9.764  -7.684  0.00  0.00    +0.003 A 
ATOM     44  C   LIG    1      -11.401  -9.589  -8.285  0.00  0.00    +0.000 A 
ATOM     45  C   LIG    1      -11.780 -10.414  -9.323  0.00  0.00    +0.000 A 
ATOM     46  C   LIG    1      -10.883 -11.376  -9.778  0.00  0.00    +0.000 A 
ATOM     47  C   LIG    1       -9.641 -11.571  -9.135  0.00  0.00    +0.003 A 
ENDBRANCH  41  42
ENDBRANCH  29  41
ENDBRANCH  26  29
ENDBRANCH  25  26
ENDBRANCH   1  25
BRANCH   1  48
ATOM     48  C   LIG    1       -4.252  -9.112  -6.470  0.00  0.00    +0.057 C 
BRANCH  48  49
ATOM     49  C   LIG    1       -4.430  -9.151  -7.987  0.00  0.00    -0.046 A 
ATOM     50  C   LIG    1       -5.591  -9.503  -8.688  0.00  0.00    +0.003 A 
ATOM     51  C   LIG    1       -5.718  -9.468 -10.070  0.00  0.00    +0.000 A 
ATOM     52  C   LIG    1       -4.642  -9.069 -10.826  0.00  0.00    +0.000 A 
ATOM     53  C   LIG    1       -3.476  -8.671 -10.180  0.00  0.00    +0.000 A 
ATOM     54  C   LIG    1       -3.387  -8.674  -8.783  0.00  0.00    +0.003 A 
ENDBRANCH  48  49
ENDBRANCH   1  48
TORSDOF 19
