REMARK  Name = *****
REMARK                            x       y       z     vdW  Elec       q    Type
REMARK                         _______ _______ _______ _____ _____    ______ ____
ROOT
ATOM      1  C   LIG    1        2.783  -0.249  -0.419  0.00  0.00    +0.124 A 
ATOM      2  C   LIG    1        2.090  -0.369  -1.620  0.00  0.00    +0.091 A 
ATOM      3  C   LIG    1        2.379   0.501  -2.675  0.00  0.00    +0.131 A 
ATOM      4  C   LIG    1        3.355   1.509  -2.553  0.00  0.00    +0.064 A 
ATOM      5  C   LIG    1        4.050   1.617  -1.345  0.00  0.00    +0.019 A 
ATOM      6  C   LIG    1        3.747   0.754  -0.281  0.00  0.00    +0.046 A 
ENDROOT
BRANCH   1   8
ATOM      7  C   LIG    1        2.154  -2.358   0.448  0.00  0.00    +0.277 C 
ATOM      8  O   LIG    1        2.579  -1.020   0.692  0.00  0.00    -0.495 OA
ENDBRANCH   1   8
BRANCH   3   9
ATOM      9  O   LIG    1        1.650   0.310  -3.822  0.00  0.00    -0.506 OA
ATOM     10  H   LIG    1        2.060   0.859  -4.529  0.00  0.00    +0.292 HD
ENDBRANCH   3   9
BRANCH   4  11
ATOM     11  C   LIG    1        3.659   2.370  -3.729  0.00  0.00    +0.197 C 
ATOM     12  O   LIG    1        3.394   1.911  -4.847  0.00  0.00    -0.286 OA
BRANCH  11  13
ATOM     13  C   LIG    1        4.218   3.744  -3.658  0.00  0.00    +0.022 A 
ATOM     14  C   LIG    1        4.969   4.203  -4.754  0.00  0.00    +0.012 A 
ATOM     15  C   LIG    1        5.456   5.511  -4.786  0.00  0.00    +0.001 A 
ATOM     16  C   LIG    1        5.197   6.372  -3.724  0.00  0.00    +0.000 A 
ATOM     17  C   LIG    1        4.442   5.930  -2.636  0.00  0.00    +0.001 A 
ATOM     18  C   LIG    1        3.942   4.623  -2.606  0.00  0.00    +0.012 A 
ENDBRANCH  11  13
ENDBRANCH   4  11
TORSDOF 4
