REMARK  Name = *****
REMARK                            x       y       z     vdW  Elec       q    Type
REMARK                         _______ _______ _______ _____ _____    ______ ____
ROOT
ATOM      1  C   LIG    1        1.427  -0.937   1.175  0.00  0.00    +0.117 A 
ATOM      2  C   LIG    1        2.133   0.265   1.177  0.00  0.00    +0.050 A 
ATOM      3  C   LIG    1        3.520   0.287   0.943  0.00  0.00    -0.032 A 
ATOM      4  C   LIG    1        4.297   1.620   0.851  0.00  0.00    +0.028 C 
ATOM      5  C   LIG    1        4.052   2.160  -0.583  0.00  0.00    +0.030 C 
ATOM      6  C   LIG    1        4.674   1.248  -1.653  0.00  0.00    +0.086 C 
ATOM      7  N   LIG    1        6.078   0.856  -1.384  0.00  0.00    -0.296 NA
ATOM      8  C   LIG    1        6.290   0.342   0.011  0.00  0.00    +0.093 C 
ATOM      9  C   LIG    1        5.641  -1.008   0.372  0.00  0.00    +0.057 C 
ATOM     10  C   LIG    1        5.839   1.433   1.019  0.00  0.00    +0.091 C 
ATOM     11  C   LIG    1        6.294   1.181   2.477  0.00  0.00    +0.037 C 
ATOM     12  C   LIG    1        5.161   1.134   3.497  0.00  0.00    +0.003 C 
ATOM     13  C   LIG    1        4.168   2.282   3.345  0.00  0.00    +0.001 C 
ATOM     14  C   LIG    1        3.845   2.668   1.897  0.00  0.00    +0.014 C 
ATOM     15  C   LIG    1        4.167  -0.938   0.680  0.00  0.00    -0.042 A 
ATOM     16  C   LIG    1        3.442  -2.143   0.707  0.00  0.00    +0.007 A 
ATOM     17  C   LIG    1        2.071  -2.142   0.950  0.00  0.00    +0.045 A 
ENDROOT
BRANCH   1  18
ATOM     18  O   LIG    1        0.081  -0.882   1.386  0.00  0.00    -0.507 OA
ATOM     19  H   LIG    1       -0.278  -1.782   1.319  0.00  0.00    +0.292 HD
ENDBRANCH   1  18
BRANCH  10  20
ATOM     20  O   LIG    1        6.528   2.655   0.634  0.00  0.00    -0.386 OA
ATOM     21  H   LIG    1        6.662   2.577  -0.335  0.00  0.00    +0.210 HD
ENDBRANCH  10  20
BRANCH   7  22
ATOM     22  C   LIG    1        6.524  -0.070  -2.448  0.00  0.00    +0.088 C 
BRANCH  22  23
ATOM     23  C   LIG    1        8.025  -0.353  -2.443  0.00  0.00    +0.003 C 
ATOM     24  C   LIG    1        8.626  -1.428  -1.486  0.00  0.00    +0.005 C 
ATOM     25  C   LIG    1        9.547  -1.850  -2.646  0.00  0.00    +0.001 C 
ATOM     26  C   LIG    1        8.474  -1.294  -3.600  0.00  0.00    +0.005 C 
ENDBRANCH  22  23
ENDBRANCH   7  22
TORSDOF 4
