REMARK  Name = *****
REMARK                            x       y       z     vdW  Elec       q    Type
REMARK                         _______ _______ _______ _____ _____    ______ ____
ROOT
ATOM      1  C   LIG    1        0.903   0.062   0.365  0.00  0.00    +0.088 C 
ATOM      2  C   LIG    1        2.372   0.035   0.174  0.00  0.00    +0.135 A 
ATOM      3  N   LIG    1        3.186  -1.093   0.161  0.00  0.00    -0.275 N 
ATOM      4  C   LIG    1        2.929  -2.444   0.417  0.00  0.00    +0.097 A 
ATOM      5  C   LIG    1        3.666  -3.525  -0.047  0.00  0.00    +0.033 A 
ATOM      6  C   LIG    1        4.755  -3.456  -1.029  0.00  0.00    +0.077 C 
ATOM      7  N   LIG    1        5.636  -2.520  -1.079  0.00  0.00    -0.275 NA
ATOM      8  C   LIG    1        5.658  -1.432  -0.110  0.00  0.00    +0.218 C 
ATOM      9  C   LIG    1        3.133  -4.749   0.506  0.00  0.00    +0.035 A 
ATOM     10  C   LIG    1        2.044  -4.523   1.309  0.00  0.00    +0.058 A 
ATOM     11 BR   LIG    1        1.095  -5.883   2.176  0.00  0.00    -0.043 Br
ATOM     12  S   LIG    1        1.636  -2.889   1.421  0.00  0.00    -0.063 S 
ATOM     13  C   LIG    1        4.437  -0.593  -0.150  0.00  0.00    +0.160 A 
ATOM     14  N   LIG    1        4.383   0.710  -0.313  0.00  0.00    -0.132 NA
ATOM     15  N   LIG    1        3.092   1.101  -0.112  0.00  0.00    -0.134 NA
ENDROOT
BRANCH   6  16
ATOM     16  C   LIG    1        4.867  -4.562  -2.014  0.00  0.00    +0.019 A 
ATOM     17  C   LIG    1        3.841  -4.886  -2.911  0.00  0.00    +0.050 A 
ATOM     18 CL   LIG    1        2.364  -3.996  -3.008  0.00  0.00    -0.083 Cl
ATOM     19  C   LIG    1        4.014  -5.950  -3.802  0.00  0.00    +0.021 A 
ATOM     20  C   LIG    1        5.207  -6.677  -3.809  0.00  0.00    +0.002 A 
ATOM     21  C   LIG    1        6.237  -6.339  -2.933  0.00  0.00    +0.001 A 
ATOM     22  C   LIG    1        6.072  -5.280  -2.040  0.00  0.00    +0.011 A 
ENDBRANCH   6  16
TORSDOF 1
