REMARK  Name = *****
REMARK                            x       y       z     vdW  Elec       q    Type
REMARK                         _______ _______ _______ _____ _____    ______ ____
ROOT
ATOM      1  C   LIG    1        2.938   1.945   0.354  0.00  0.00    -0.002 C 
ATOM      2  C   LIG    1        3.122   3.069  -0.752  0.00  0.00    -0.026 C 
ATOM      3  C   LIG    1        3.833   4.345  -0.268  0.00  0.00    +0.012 C 
ATOM      4  C   LIG    1        1.647   3.412  -1.160  0.00  0.00    +0.001 C 
ATOM      5  C   LIG    1        1.362   3.875  -2.601  0.00  0.00    +0.025 C 
ATOM      6  C   LIG    1        2.347   2.845  -3.844  0.00  0.00    +0.001 C 
ATOM      7  C   LIG    1        3.288   1.874  -3.083  0.00  0.00    +0.005 C 
ATOM      8  C   LIG    1        3.165   3.855  -5.148  0.00  0.00    -0.026 C 
ATOM      9  C   LIG    1        4.638   3.540  -5.326  0.00  0.00    +0.012 C 
ATOM     10  C   LIG    1        2.848   5.613  -5.667  0.00  0.00    +0.000 C 
ATOM     11  C   LIG    1        2.022   5.588  -6.913  0.00  0.00    +0.035 C 
ATOM     12  C   LIG    1        0.825   4.850  -6.428  0.00  0.00    +0.115 C 
ATOM     13  C   LIG    1        1.005   4.553  -4.903  0.00  0.00    +0.032 C 
ATOM     14  C   LIG    1        1.935   6.641  -4.329  0.00  0.00    +0.035 C 
ATOM     15  C   LIG    1        2.802   4.685  -4.105  0.00  0.00    +0.009 C 
ATOM     16  C   LIG    1        1.384   5.753  -2.771  0.00  0.00    +0.118 C 
ATOM     17  C   LIG    1        0.843   2.150  -0.816  0.00  0.00    +0.005 C 
ATOM     18  C   LIG    1        4.022   2.493  -1.898  0.00  0.00    +0.007 C 
ATOM     19  C   LIG    1        1.426   1.728   0.515  0.00  0.00    +0.004 C 
ENDROOT
BRANCH   1  21
ATOM     20  C   LIG    1        3.541   0.665   2.436  0.00  0.00    +0.008 C 
ATOM     21  C   LIG    1        3.711   2.016   1.709  0.00  0.00    -0.010 C 
BRANCH  21  22
ATOM     22  C   LIG    1        3.316   3.182   2.655  0.00  0.00    +0.015 C 
BRANCH  22  23
ATOM     23  C   LIG    1        4.146   3.258   3.940  0.00  0.00    +0.121 C 
BRANCH  23  24
ATOM     24  C   LIG    1        3.693   4.424   4.801  0.00  0.00    +0.305 C 
ATOM     25  O   LIG    1        2.792   4.361   5.614  0.00  0.00    -0.251 OA
BRANCH  24  26
ATOM     26  O   LIG    1        4.383   5.569   4.558  0.00  0.00    -0.481 OA
ATOM     27  H   LIG    1        5.080   5.483   3.885  0.00  0.00    +0.295 HD
ENDBRANCH  24  26
ENDBRANCH  23  24
ENDBRANCH  22  23
ENDBRANCH  21  22
ENDBRANCH   1  21
BRANCH  12  28
ATOM     28  O   LIG    1        0.678   3.641  -7.162  0.00  0.00    -0.392 OA
ATOM     29  H   LIG    1       -0.195   3.274  -6.939  0.00  0.00    +0.210 HD
ENDBRANCH  12  28
BRANCH  16  30
ATOM     30  O   LIG    1        2.076   6.343  -1.671  0.00  0.00    -0.392 OA
ATOM     31  H   LIG    1        2.951   6.622  -1.983  0.00  0.00    +0.210 HD
ENDBRANCH  16  30
TORSDOF 7
