REMARK  Name = *****
REMARK                            x       y       z     vdW  Elec       q    Type
REMARK                         _______ _______ _______ _____ _____    ______ ____
ROOT
ATOM      1  C   LIG    1       -3.395  -0.535   3.386  0.00  0.00    +0.210 C 
ATOM      2  C   LIG    1       -4.918  -0.707   3.034  0.00  0.00    +0.126 C 
ATOM      3  C   LIG    1       -5.637  -1.815   3.817  0.00  0.00    +0.048 C 
ATOM      4  C   LIG    1       -5.060  -1.006   1.523  0.00  0.00    +0.158 C 
ATOM      5  C   LIG    1       -6.463  -1.490   1.119  0.00  0.00    +0.065 C 
ATOM      6  C   LIG    1       -7.428  -0.329   0.862  0.00  0.00    +0.016 C 
ATOM      7  C   LIG    1       -6.282  -2.422  -0.073  0.00  0.00    +0.066 C 
ATOM      8  N   LIG    1       -6.268  -1.779  -1.203  0.00  0.00    -0.091 NA
ATOM      9  C   LIG    1       -5.976  -3.998   0.138  0.00  0.00    +0.037 C 
ATOM     10  C   LIG    1       -6.563  -4.584   1.425  0.00  0.00    +0.014 C 
ATOM     11  C   LIG    1       -4.440  -4.305   0.161  0.00  0.00    +0.046 C 
ATOM     12  C   LIG    1       -3.690  -5.795  -0.274  0.00  0.00    +0.090 C 
ATOM     13  C   LIG    1       -4.106  -6.860   0.750  0.00  0.00    +0.044 C 
ATOM     14  C   LIG    1       -1.957  -6.046  -0.781  0.00  0.00    +0.158 C 
ATOM     15  C   LIG    1       -0.750  -5.699   0.296  0.00  0.00    +0.047 C 
ATOM     16  C   LIG    1        0.598  -5.618  -0.493  0.00  0.00    +0.013 C 
ATOM     17  C   LIG    1       -0.576  -4.403   1.377  0.00  0.00    +0.140 C 
ATOM     18  C   LIG    1       -1.828  -3.605   1.797  0.00  0.00    +0.124 C 
ATOM     19  C   LIG    1       -2.632  -4.383   2.801  0.00  0.00    +0.022 C 
ATOM     20  C   LIG    1       -1.946  -2.008   1.959  0.00  0.00    +0.313 C 
ATOM     21  O   LIG    1       -1.738  -1.221   1.130  0.00  0.00    -0.250 OA
ATOM     22  O   LIG    1       -2.637  -1.782   3.160  0.00  0.00    -0.458 OA
ENDROOT
BRANCH   1  24
ATOM     23  C   LIG    1       -3.602  -1.048   5.968  0.00  0.00    +0.007 C 
ATOM     24  C   LIG    1       -3.184  -0.089   4.858  0.00  0.00    +0.044 C 
ENDBRANCH   1  24
BRANCH  12  25
ATOM     25  O   LIG    1       -4.416  -6.128  -1.473  0.00  0.00    -0.386 OA
ATOM     26  H   LIG    1       -5.358  -6.100  -1.251  0.00  0.00    +0.210 HD
ENDBRANCH  12  25
BRANCH   4  27
ATOM     27  O   LIG    1       -4.670   0.173   0.801  0.00  0.00    -0.388 OA
ATOM     28  H   LIG    1       -4.580  -0.078  -0.140  0.00  0.00    +0.210 HD
ENDBRANCH   4  27
BRANCH   2  29
ATOM     29  O   LIG    1       -5.591   0.538   3.298  0.00  0.00    -0.383 OA
ATOM     30  H   LIG    1       -5.297   1.143   2.582  0.00  0.00    +0.210 HD
ENDBRANCH   2  29
BRANCH  14  31
ATOM     31  O   LIG    1       -1.801  -7.289  -1.607  0.00  0.00    -0.342 OA
BRANCH  31  32
ATOM     32  C   LIG    1       -0.707  -7.416  -2.659  0.00  0.00    +0.281 C 
ATOM     33  C   LIG    1       -0.911  -8.809  -3.293  0.00  0.00    +0.187 C 
ATOM     34  C   LIG    1       -1.193  -8.828  -4.847  0.00  0.00    +0.092 C 
ATOM     35  C   LIG    1        0.057  -8.265  -5.499  0.00  0.00    +0.053 C 
ATOM     36  C   LIG    1        0.512  -6.991  -4.758  0.00  0.00    +0.120 C 
ATOM     37  C   LIG    1        0.796  -5.960  -5.855  0.00  0.00    +0.038 C 
ATOM     38  O   LIG    1       -0.446  -6.471  -3.749  0.00  0.00    -0.346 OA
BRANCH  34  39
ATOM     39  N   LIG    1       -2.389  -8.286  -5.524  0.00  0.00    -0.303 NA
ATOM     40  C   LIG    1       -2.994  -7.016  -5.156  0.00  0.00    +0.105 C 
ATOM     41  C   LIG    1       -2.621  -8.733  -6.897  0.00  0.00    +0.105 C 
ENDBRANCH  34  39
BRANCH  33  42
ATOM     42  O   LIG    1        0.345  -9.531  -3.074  0.00  0.00    -0.385 OA
ATOM     43  H   LIG    1        0.159 -10.468  -3.245  0.00  0.00    +0.210 HD
ENDBRANCH  33  42
ENDBRANCH  31  32
ENDBRANCH  14  31
BRANCH  17  44
ATOM     44  O   LIG    1        0.056  -5.056   2.531  0.00  0.00    -0.347 OA
BRANCH  44  45
ATOM     45  C   LIG    1        0.845  -4.252   3.410  0.00  0.00    +0.254 C 
ATOM     46  O   LIG    1        1.953  -3.641   2.772  0.00  0.00    -0.346 OA
ATOM     47  C   LIG    1        2.861  -4.597   2.211  0.00  0.00    +0.150 C 
ATOM     48  C   LIG    1        4.160  -3.880   1.896  0.00  0.00    +0.040 C 
ATOM     49  C   LIG    1        3.102  -5.891   3.012  0.00  0.00    +0.175 C 
ATOM     50  C   LIG    1        2.806  -5.654   4.502  0.00  0.00    +0.099 C 
ATOM     51  C   LIG    1        3.945  -4.755   5.044  0.00  0.00    +0.044 C 
ATOM     52  C   LIG    1        1.396  -4.995   4.661  0.00  0.00    +0.098 C 
BRANCH  50  53
ATOM     53  O   LIG    1        2.920  -6.931   5.174  0.00  0.00    -0.374 OA
ATOM     54  C   LIG    1        2.658  -6.936   6.572  0.00  0.00    +0.195 C 
ENDBRANCH  50  53
BRANCH  49  55
ATOM     55  O   LIG    1        2.284  -6.949   2.481  0.00  0.00    -0.386 OA
ATOM     56  H   LIG    1        2.861  -7.728   2.386  0.00  0.00    +0.210 HD
ENDBRANCH  49  55
ENDBRANCH  44  45
ENDBRANCH  17  44
BRANCH   8  57
ATOM     57  O   LIG    1       -6.111  -2.605  -2.299  0.00  0.00    -0.365 OA
BRANCH  57  58
ATOM     58  C   LIG    1       -5.949  -1.806  -3.484  0.00  0.00    +0.426 C 
BRANCH  58  59
ATOM     59  O   LIG    1       -5.261  -2.530  -4.508  0.00  0.00    -0.340 OA
BRANCH  59  60
ATOM     60  C   LIG    1       -3.877  -2.689  -4.251  0.00  0.00    +0.192 C 
BRANCH  60  61
ATOM     61  C   LIG    1       -3.601  -3.321  -2.946  0.00  0.00    +0.187 C 
BRANCH  61  62
ATOM     62  O   LIG    1       -2.189  -3.280  -2.790  0.00  0.00    -0.381 OA
ATOM     63  C   LIG    1       -1.982  -3.396  -1.427  0.00  0.00    +0.194 C 
ENDBRANCH  61  62
ENDBRANCH  60  61
ENDBRANCH  59  60
ENDBRANCH  58  59
ENDBRANCH  57  58
ENDBRANCH   8  57
TORSDOF 18
