REMARK  Name = *****
REMARK                            x       y       z     vdW  Elec       q    Type
REMARK                         _______ _______ _______ _____ _____    ______ ____
ROOT
ATOM      1  C   LIG    1        5.839  -3.152   1.089  0.00  0.00    +0.022 C 
ENDROOT
BRANCH   1   2
ATOM      2  C   LIG    1        5.565  -3.459   2.582  0.00  0.00    -0.010 C 
ATOM      3  C   LIG    1        5.077  -4.912   2.753  0.00  0.00    +0.003 C 
ATOM      4  C   LIG    1        6.185  -5.945   2.551  0.00  0.00    +0.000 C 
ATOM      5  C   LIG    1        7.393  -5.662   3.439  0.00  0.00    +0.000 C 
ATOM      6  C   LIG    1        7.898  -4.230   3.287  0.00  0.00    +0.000 C 
ATOM      7  C   LIG    1        6.777  -3.213   3.497  0.00  0.00    +0.003 C 
ENDBRANCH   1   2
BRANCH   1   8
ATOM      8  C   LIG    1        6.256  -1.700   0.765  0.00  0.00    +0.051 C 
ATOM      9  C   LIG    1        5.185  -0.691   1.196  0.00  0.00    +0.024 C 
BRANCH   8  11
ATOM     10  C   LIG    1        7.545  -2.321  -1.227  0.00  0.00    +0.101 C 
ATOM     11  N   LIG    1        6.484  -1.490  -0.675  0.00  0.00    -0.317 NA
ATOM     12  H   LIG    1        5.624  -1.646  -1.194  0.00  0.00    +0.122 HD
ENDBRANCH   8  11
ENDBRANCH   1   8
TORSDOF 3
