REMARK  Name = *****
REMARK                            x       y       z     vdW  Elec       q    Type
REMARK                         _______ _______ _______ _____ _____    ______ ____
ROOT
ATOM      1  C   LIG    1       -6.324  -1.641   4.100  0.00  0.00    +0.064 C 
ATOM      2  C   LIG    1       -4.956  -1.086   4.522  0.00  0.00    +0.118 C 
ATOM      3  C   LIG    1       -4.439  -1.508   5.891  0.00  0.00    +0.074 C 
ATOM      4  C   LIG    1       -4.696  -0.285   6.742  0.00  0.00    +0.239 C 
ATOM      5  O   LIG    1       -4.589   0.825   5.843  0.00  0.00    -0.464 OA
ATOM      6  C   LIG    1       -4.941  -2.851   6.432  0.00  0.00    +0.152 C 
ATOM      7  C   LIG    1       -5.573  -3.732   5.372  0.00  0.00    -0.011 A 
ATOM      8  C   LIG    1       -5.532  -5.128   5.524  0.00  0.00    +0.056 A 
ATOM      9  C   LIG    1       -6.049  -5.908   4.514  0.00  0.00    +0.167 A 
ATOM     10  O   LIG    1       -6.053  -7.268   4.490  0.00  0.00    -0.453 OA
ATOM     11  C   LIG    1       -6.622  -7.513   3.188  0.00  0.00    +0.466 C 
ATOM     12  O   LIG    1       -7.020  -6.308   2.500  0.00  0.00    -0.453 OA
ATOM     13  C   LIG    1       -6.612  -5.360   3.386  0.00  0.00    +0.167 A 
ATOM     14  C   LIG    1       -6.724  -3.997   3.219  0.00  0.00    +0.054 A 
ATOM     15  C   LIG    1       -4.867   0.406   4.579  0.00  0.00    +0.312 C 
ATOM     16  O   LIG    1       -4.984   1.153   3.613  0.00  0.00    -0.251 OA
ATOM     17  C   LIG    1       -6.211  -3.163   4.228  0.00  0.00    -0.030 A 
ENDROOT
BRANCH   1  22
ATOM     18  C   LIG    1       -9.320  -1.065   6.497  0.00  0.00    +0.165 A 
ATOM     19  C   LIG    1       -9.875   0.121   5.997  0.00  0.00    +0.203 A 
ATOM     20  C   LIG    1       -9.266   0.736   4.881  0.00  0.00    +0.165 A 
ATOM     21  C   LIG    1       -8.126   0.158   4.285  0.00  0.00    +0.053 A 
ATOM     22  C   LIG    1       -7.570  -1.040   4.762  0.00  0.00    -0.032 A 
ATOM     23  C   LIG    1       -8.211  -1.636   5.853  0.00  0.00    +0.053 A 
BRANCH  18  25
ATOM     24  C   LIG    1      -10.793  -1.360   8.378  0.00  0.00    +0.277 C 
ATOM     25  O   LIG    1       -9.708  -1.811   7.583  0.00  0.00    -0.491 OA
ENDBRANCH  18  25
BRANCH  19  26
ATOM     26  O   LIG    1      -10.951   0.635   6.671  0.00  0.00    -0.488 OA
ATOM     27  C   LIG    1      -11.939   1.348   5.943  0.00  0.00    +0.277 C 
ENDBRANCH  19  26
BRANCH  20  28
ATOM     28  O   LIG    1       -9.767   1.950   4.477  0.00  0.00    -0.491 OA
ATOM     29  C   LIG    1       -9.588   2.300   3.111  0.00  0.00    +0.277 C 
ENDBRANCH  20  28
ENDBRANCH   1  22
BRANCH   6  30
ATOM     30  O   LIG    1       -5.815  -2.675   7.536  0.00  0.00    -0.387 OA
ATOM     31  H   LIG    1       -6.386  -3.460   7.610  0.00  0.00    +0.210 HD
ENDBRANCH   6  30
TORSDOF 5
