REMARK  Name = *****
REMARK                            x       y       z     vdW  Elec       q    Type
REMARK                         _______ _______ _______ _____ _____    ______ ____
ROOT
ATOM      1  C   LIG    1        4.056   4.204  -1.764  0.00  0.00    +0.059 A 
ATOM      2  C   LIG    1        3.462   5.489  -2.121  0.00  0.00    +0.006 A 
ATOM      3  C   LIG    1        3.690   6.748  -1.466  0.00  0.00    -0.013 A 
ATOM      4  C   LIG    1        2.978   7.941  -1.927  0.00  0.00    +0.009 A 
ATOM      5  C   LIG    1        2.083   7.989  -2.933  0.00  0.00    +0.001 A 
ATOM      6  C   LIG    1        2.002   6.829  -3.639  0.00  0.00    +0.001 A 
ATOM      7  C   LIG    1        4.579   6.717  -0.449  0.00  0.00    -0.036 A 
ATOM      8  C   LIG    1        5.258   5.493  -0.161  0.00  0.00    +0.006 A 
ATOM      9  C   LIG    1        2.692   5.669  -3.167  0.00  0.00    +0.010 A 
ATOM     10  C   LIG    1        5.024   4.274  -0.818  0.00  0.00    +0.027 A 
ENDROOT
BRANCH   1  12
ATOM     11  C   LIG    1        2.591   2.385  -3.064  0.00  0.00    +0.197 A 
ATOM     12  N   LIG    1        3.754   2.898  -2.449  0.00  0.00    -0.264 N 
ATOM     13  C   LIG    1        4.640   1.834  -2.705  0.00  0.00    +0.205 A 
ATOM     14 BR   LIG    1        6.110   1.180  -1.748  0.00  0.00    -0.006 Br
ATOM     15  N   LIG    1        4.224   1.153  -3.758  0.00  0.00    -0.121 NA
ATOM     16  N   LIG    1        2.921   1.475  -3.961  0.00  0.00    -0.121 NA
BRANCH  11  17
ATOM     17  S   LIG    1        0.958   2.346  -2.409  0.00  0.00    -0.074 S 
BRANCH  17  18
ATOM     18  C   LIG    1        0.492   4.058  -2.246  0.00  0.00    +0.197 C 
BRANCH  18  20
ATOM     19  O   LIG    1        0.740   4.443  -4.702  0.00  0.00    -0.250 OA
ATOM     20  C   LIG    1        0.209   4.703  -3.607  0.00  0.00    +0.315 C 
BRANCH  20  21
ATOM     21  O   LIG    1       -0.507   5.846  -3.459  0.00  0.00    -0.480 OA
ATOM     22  H   LIG    1       -0.167   6.346  -2.684  0.00  0.00    +0.295 HD
ENDBRANCH  20  21
ENDBRANCH  18  20
ENDBRANCH  17  18
ENDBRANCH  11  17
ENDBRANCH   1  12
BRANCH   7  23
ATOM     23  C   LIG    1        4.807   7.975   0.382  0.00  0.00    +0.020 C 
ATOM     24  C   LIG    1        4.818   7.914   1.861  0.00  0.00    +0.009 C 
ATOM     25  C   LIG    1        6.065   8.247   1.085  0.00  0.00    +0.009 C 
ENDBRANCH   7  23
TORSDOF 6
