REMARK  Name = *****
REMARK                            x       y       z     vdW  Elec       q    Type
REMARK                         _______ _______ _______ _____ _____    ______ ____
ROOT
ATOM      1  C   LIG    1        1.433  -0.155  -0.144  0.00  0.00    +0.157 A 
ATOM      2  S   LIG    1        2.192   1.362  -0.393  0.00  0.00    -0.052 S 
ATOM      3  C   LIG    1        3.738   0.618  -0.231  0.00  0.00    +0.044 A 
ATOM      4  C   LIG    1        3.551  -0.746  -0.005  0.00  0.00    +0.081 A 
ATOM      5  C   LIG    1        4.683  -1.567   0.148  0.00  0.00    +0.032 A 
ATOM      6  C   LIG    1        5.960  -1.000   0.091  0.00  0.00    +0.048 A 
ATOM      7  C   LIG    1        6.130   0.371  -0.099  0.00  0.00    +0.131 A 
ATOM      8  C   LIG    1        5.021   1.201  -0.295  0.00  0.00    +0.063 A 
ATOM      9  N   LIG    1        2.234  -1.166   0.049  0.00  0.00    -0.225 NA
ENDROOT
BRANCH   1  10
ATOM     10  N   LIG    1        0.093  -0.277  -0.136  0.00  0.00    -0.338 N 
ATOM     11  H   LIG    1       -0.465   0.544   0.052  0.00  0.00    +0.144 HD
ATOM     12  H   LIG    1       -0.266  -1.133   0.271  0.00  0.00    +0.144 HD
ENDBRANCH   1  10
BRANCH   7  13
ATOM     13  O   LIG    1        7.435   0.778  -0.093  0.00  0.00    -0.406 OA
BRANCH  13  14
ATOM     14  C   LIG    1        7.695   2.116   0.299  0.00  0.00    +0.575 C 
ATOM     15  F   LIG    1        7.523   2.955  -0.744  0.00  0.00    -0.133 F 
ATOM     16  F   LIG    1        8.982   2.201   0.705  0.00  0.00    -0.133 F 
ATOM     17  F   LIG    1        6.909   2.507   1.325  0.00  0.00    -0.133 F 
ENDBRANCH  13  14
ENDBRANCH   7  13
TORSDOF 3
