REMARK  Name = *****
REMARK                            x       y       z     vdW  Elec       q    Type
REMARK                         _______ _______ _______ _____ _____    ______ ____
ROOT
ATOM      1  C   LIG    1        1.024   0.698   0.515  0.00  0.00    +0.439 C 
ATOM      2  N   LIG    1        2.427   0.403   0.161  0.00  0.00    -0.199 N 
ATOM      3  C   LIG    1        2.912  -0.865   0.123  0.00  0.00    +0.229 A 
ATOM      4  C   LIG    1        4.263  -1.110  -0.121  0.00  0.00    +0.080 A 
ATOM      5  C   LIG    1        5.111  -0.043  -0.380  0.00  0.00    +0.012 A 
ATOM      6  C   LIG    1        4.596   1.246  -0.385  0.00  0.00    +0.070 A 
ATOM      7  C   LIG    1        3.247   1.446  -0.113  0.00  0.00    +0.309 A 
ENDROOT
BRANCH   3   8
ATOM      8  C   LIG    1        2.032  -2.016   0.372  0.00  0.00    +0.230 C 
ATOM      9  N   LIG    1        0.964  -2.332  -0.293  0.00  0.00    -0.089 NA
BRANCH   9  10
ATOM     10  O   LIG    1        0.758  -1.497  -1.395  0.00  0.00    -0.409 OA
ATOM     11  H   LIG    1        0.049  -1.968  -1.885  0.00  0.00    +0.328 HD
ENDBRANCH   9  10
ENDBRANCH   3   8
TORSDOF 2
