REMARK  Name = *****
REMARK                            x       y       z     vdW  Elec       q    Type
REMARK                         _______ _______ _______ _____ _____    ______ ____
ROOT
ATOM      1 CL   LIG    1        1.548   1.143   2.179  0.00  0.00    -0.080 Cl
ATOM      2  C   LIG    1        2.332   0.895   0.655  0.00  0.00    +0.084 A 
ATOM      3  C   LIG    1        2.594  -0.399   0.166  0.00  0.00    +0.178 A 
ATOM      4  C   LIG    1        3.239  -0.509  -1.080  0.00  0.00    +0.084 A 
ATOM      5 CL   LIG    1        3.627  -2.053  -1.762  0.00  0.00    -0.080 Cl
ATOM      6  C   LIG    1        3.590   0.629  -1.817  0.00  0.00    +0.023 A 
ATOM      7  C   LIG    1        3.311   1.900  -1.319  0.00  0.00    +0.003 A 
ATOM      8  C   LIG    1        2.683   2.033  -0.082  0.00  0.00    +0.023 A 
ENDROOT
BRANCH   3   9
ATOM      9  N   LIG    1        2.265  -1.549   0.915  0.00  0.00    -0.074 NA
ATOM     10  C   LIG    1        1.087  -2.047   0.776  0.00  0.00    +0.370 C 
ATOM     11  N   LIG    1        0.023  -1.634   0.011  0.00  0.00    -0.235 N 
ATOM     12  H   LIG    1       -0.064  -0.643  -0.166  0.00  0.00    +0.244 HD
ATOM     13  C   LIG    1       -1.177  -2.407   0.293  0.00  0.00    +0.219 C 
ATOM     14  C   LIG    1       -0.590  -3.674   0.932  0.00  0.00    +0.219 C 
ATOM     15  N   LIG    1        0.678  -3.180   1.426  0.00  0.00    -0.235 N 
ATOM     16  H   LIG    1        1.408  -3.811   1.726  0.00  0.00    +0.244 HD
ENDBRANCH   3   9
TORSDOF 1
