REMARK  Name = *****
REMARK                            x       y       z     vdW  Elec       q    Type
REMARK                         _______ _______ _______ _____ _____    ______ ____
ROOT
ATOM      1  C   LIG    1        4.547  -0.141  -1.209  0.00  0.00    +0.064 A 
ATOM      2  N   LIG    1        5.405  -1.046  -0.719  0.00  0.00    -0.179 NA
ATOM      3  N   LIG    1        6.607  -0.466  -0.863  0.00  0.00    -0.284 N 
ATOM      4  H   LIG    1        7.429  -0.982  -0.564  0.00  0.00    +0.188 HD
ATOM      5  C   LIG    1        6.548   0.781  -1.411  0.00  0.00    +0.105 A 
ATOM      6  C   LIG    1        5.217   1.025  -1.650  0.00  0.00    +0.044 A 
ENDROOT
BRANCH   1   7
ATOM      7  C   LIG    1        3.082  -0.425  -1.245  0.00  0.00    +0.072 C 
BRANCH   7   8
ATOM      8  C   LIG    1        2.381   0.012   0.044  0.00  0.00    +0.084 C 
BRANCH   8   9
ATOM      9  N   LIG    1        0.942  -0.270  -0.001  0.00  0.00    -0.330 NA
ATOM     10  H   LIG    1        0.803  -1.278  -0.070  0.00  0.00    +0.118 HD
ATOM     11  H   LIG    1        0.523   0.009   0.886  0.00  0.00    +0.118 HD
ENDBRANCH   8   9
ENDBRANCH   7   8
ENDBRANCH   1   7
TORSDOF 3
