REMARK  Name = *****
REMARK                            x       y       z     vdW  Elec       q    Type
REMARK                         _______ _______ _______ _____ _____    ______ ____
ROOT
ATOM      1  C   LIG    1        5.006  -2.976   1.101  0.00  0.00    +0.126 C 
ATOM      2  C   LIG    1        4.173  -4.027   0.363  0.00  0.00    +0.236 C 
ATOM      3  O   LIG    1        3.245  -4.654   0.870  0.00  0.00    -0.274 OA
ATOM      4  N   LIG    1        4.470  -4.205  -0.959  0.00  0.00    -0.239 N 
ATOM      5  H   LIG    1        3.903  -4.891  -1.441  0.00  0.00    +0.159 HD
ATOM      6  C   LIG    1        5.716  -4.042  -1.476  0.00  0.00    +0.312 C 
ATOM      7  O   LIG    1        6.064  -4.620  -2.501  0.00  0.00    -0.252 OA
ATOM      8  N   LIG    1        6.592  -3.300  -0.749  0.00  0.00    -0.239 N 
ATOM      9  H   LIG    1        7.548  -3.331  -1.080  0.00  0.00    +0.159 HD
ATOM     10  C   LIG    1        6.446  -3.044   0.587  0.00  0.00    +0.236 C 
ATOM     11  O   LIG    1        7.436  -2.829   1.282  0.00  0.00    -0.274 OA
ENDROOT
BRANCH   1  12
ATOM     12  C   LIG    1        4.423  -1.547   0.720  0.00  0.00    +0.010 C 
ATOM     13  C   LIG    1        2.951  -1.382   1.145  0.00  0.00    +0.009 C 
BRANCH  12  14
ATOM     14  C   LIG    1        5.279  -0.375   1.278  0.00  0.00    +0.004 C 
BRANCH  14  16
ATOM     15  C   LIG    1        5.688   2.110   1.431  0.00  0.00    +0.004 C 
ATOM     16  C   LIG    1        4.764   1.021   0.906  0.00  0.00    -0.003 C 
ENDBRANCH  14  16
ENDBRANCH  12  14
ENDBRANCH   1  12
BRANCH   1  17
ATOM     17  C   LIG    1        4.963  -3.230   2.632  0.00  0.00    +0.022 C 
ATOM     18  C   LIG    1        5.502  -4.590   3.080  0.00  0.00    +0.005 C 
ENDBRANCH   1  17
TORSDOF 4
