REMARK  Name = *****
REMARK                            x       y       z     vdW  Elec       q    Type
REMARK                         _______ _______ _______ _____ _____    ______ ____
ROOT
ATOM      1  P   LIG    1        2.616  -1.460   0.376  0.00  0.00    +0.434 P 
ATOM      2  O   LIG    1        2.076  -2.350   1.452  0.00  0.00    -0.247 OA
ENDROOT
BRANCH   1   4
ATOM      3  O   LIG    1        2.270   1.014   1.276  0.00  0.00    -0.237 OA
ATOM      4  C   LIG    1        2.122   0.295   0.297  0.00  0.00    +0.418 C 
BRANCH   4   5
ATOM      5  O   LIG    1        1.601   0.756  -0.884  0.00  0.00    -0.472 OA
ATOM      6  H   LIG    1        1.587   0.014  -1.531  0.00  0.00    +0.296 HD
ENDBRANCH   4   5
ENDBRANCH   1   4
BRANCH   1   7
ATOM      7  O   LIG    1        4.211  -1.631   0.249  0.00  0.00    -0.317 OA
ATOM      8  H   LIG    1        4.515  -2.509   0.542  0.00  0.00    +0.220 HD
ENDBRANCH   1   7
BRANCH   1   9
ATOM      9  O   LIG    1        2.197  -2.090  -1.060  0.00  0.00    -0.317 OA
ATOM     10  H   LIG    1        2.205  -3.067  -1.025  0.00  0.00    +0.220 HD
ENDBRANCH   1   9
TORSDOF 4
