REMARK  Name = *****
REMARK                            x       y       z     vdW  Elec       q    Type
REMARK                         _______ _______ _______ _____ _____    ______ ____
ROOT
ATOM      1  C   LIG    1       24.024  -6.266  10.126  0.00  0.00    -0.027 C 
ATOM      2  C   LIG    1       22.733  -6.386  10.486  0.00  0.00    -0.076 C 
ATOM      3  C   LIG    1       21.726  -7.323   9.863  0.00  0.00    +0.038 C 
ENDROOT
BRANCH   2   4
ATOM      4  C   LIG    1       22.135  -5.369  11.392  0.00  0.00    +0.034 C 
BRANCH   4   5
ATOM      5  C   LIG    1       22.000  -5.871  12.819  0.00  0.00    +0.031 C 
BRANCH   5   6
ATOM      6  C   LIG    1       21.622  -4.740  13.727  0.00  0.00    -0.027 C 
ATOM      7  C   LIG    1       20.678  -3.844  13.409  0.00  0.00    -0.076 C 
ATOM      8  C   LIG    1       19.704  -4.248  12.360  0.00  0.00    +0.038 C 
BRANCH   7   9
ATOM      9  C   LIG    1       20.474  -2.562  14.184  0.00  0.00    +0.034 C 
BRANCH   9  10
ATOM     10  C   LIG    1       19.172  -2.291  14.969  0.00  0.00    +0.031 C 
BRANCH  10  11
ATOM     11  C   LIG    1       18.670  -3.149  16.138  0.00  0.00    -0.027 C 
ATOM     12  C   LIG    1       18.713  -4.477  16.416  0.00  0.00    -0.076 C 
ATOM     13  C   LIG    1       19.245  -5.504  15.476  0.00  0.00    +0.038 C 
BRANCH  12  14
ATOM     14  C   LIG    1       18.309  -5.124  17.737  0.00  0.00    +0.034 C 
BRANCH  14  15
ATOM     15  C   LIG    1       16.884  -5.027  18.303  0.00  0.00    +0.031 C 
BRANCH  15  16
ATOM     16  C   LIG    1       15.802  -5.732  17.524  0.00  0.00    -0.027 C 
ATOM     17  C   LIG    1       15.214  -5.537  16.299  0.00  0.00    -0.076 C 
ATOM     18  C   LIG    1       14.131  -6.666  16.082  0.00  0.00    +0.038 C 
BRANCH  17  19
ATOM     19  C   LIG    1       15.448  -4.120  15.359  0.00  0.00    +0.034 C 
BRANCH  19  20
ATOM     20  C   LIG    1       16.115  -3.647  13.780  0.00  0.00    +0.031 C 
BRANCH  20  21
ATOM     21  C   LIG    1       16.303  -2.000  13.158  0.00  0.00    -0.027 C 
ATOM     22  C   LIG    1       17.111  -1.463  12.149  0.00  0.00    -0.076 C 
ATOM     23  C   LIG    1       18.004  -2.358  11.433  0.00  0.00    +0.038 C 
BRANCH  22  24
ATOM     24  C   LIG    1       17.567  -0.024  11.590  0.00  0.00    +0.034 C 
BRANCH  24  25
ATOM     25  C   LIG    1       17.479   0.295   9.997  0.00  0.00    +0.031 C 
BRANCH  25  26
ATOM     26  C   LIG    1       17.970  -0.594   8.843  0.00  0.00    -0.027 C 
ATOM     27  C   LIG    1       19.087  -1.328   8.796  0.00  0.00    -0.076 C 
ATOM     28  C   LIG    1       20.089  -1.138   9.832  0.00  0.00    +0.038 C 
BRANCH  27  29
ATOM     29  C   LIG    1       19.413  -2.381   7.768  0.00  0.00    +0.034 C 
BRANCH  29  30
ATOM     30  C   LIG    1       20.880  -2.519   7.323  0.00  0.00    +0.031 C 
BRANCH  30  31
ATOM     31  C   LIG    1       21.979  -2.834   8.304  0.00  0.00    -0.028 C 
ATOM     32  C   LIG    1       22.793  -2.293   9.234  0.00  0.00    -0.080 C 
ATOM     33  C   LIG    1       23.902  -3.064   9.868  0.00  0.00    +0.038 C 
ATOM     34  C   LIG    1       22.790  -0.936   9.699  0.00  0.00    +0.038 C 
ENDBRANCH  30  31
ENDBRANCH  29  30
ENDBRANCH  27  29
ENDBRANCH  25  26
ENDBRANCH  24  25
ENDBRANCH  22  24
ENDBRANCH  20  21
ENDBRANCH  19  20
ENDBRANCH  17  19
ENDBRANCH  15  16
ENDBRANCH  14  15
ENDBRANCH  12  14
ENDBRANCH  10  11
ENDBRANCH   9  10
ENDBRANCH   7   9
ENDBRANCH   5   6
ENDBRANCH   4   5
ENDBRANCH   2   4
BRANCH   1  35
ATOM     35  C   LIG    1       24.693  -6.996   9.003  0.00  0.00    +0.031 C 
BRANCH  35  36
ATOM     36  C   LIG    1       24.641  -6.372   7.593  0.00  0.00    +0.034 C 
BRANCH  36  38
ATOM     37  C   LIG    1       23.025  -7.092   5.796  0.00  0.00    -0.027 C 
ATOM     38  C   LIG    1       23.281  -6.440   6.939  0.00  0.00    -0.076 C 
ATOM     39  C   LIG    1       22.227  -5.592   7.489  0.00  0.00    +0.038 C 
BRANCH  37  40
ATOM     40  C   LIG    1       21.727  -6.976   5.045  0.00  0.00    +0.031 C 
BRANCH  40  41
ATOM     41  C   LIG    1       21.402  -5.553   4.520  0.00  0.00    +0.034 C 
BRANCH  41  43
ATOM     42  C   LIG    1       23.260  -5.011   2.699  0.00  0.00    -0.027 C 
ATOM     43  C   LIG    1       22.393  -4.663   3.695  0.00  0.00    -0.076 C 
ATOM     44  C   LIG    1       22.255  -3.240   4.188  0.00  0.00    +0.038 C 
BRANCH  42  45
ATOM     45  C   LIG    1       24.414  -4.203   2.007  0.00  0.00    +0.031 C 
BRANCH  45  46
ATOM     46  C   LIG    1       24.436  -3.922   0.437  0.00  0.00    +0.034 C 
BRANCH  46  48
ATOM     47  C   LIG    1       23.655  -2.462  -1.515  0.00  0.00    -0.023 C 
ATOM     48  C   LIG    1       23.398  -3.026  -0.301  0.00  0.00    -0.076 C 
ATOM     49  C   LIG    1       22.067  -2.883   0.359  0.00  0.00    +0.038 C 
BRANCH  47  50
ATOM     50  C   LIG    1       22.752  -1.675  -2.509  0.00  0.00    +0.066 C 
BRANCH  50  56
ATOM     51  C   LIG    1       25.116   1.266  -4.769  0.00  0.00    +0.213 C 
ATOM     52  C   LIG    1       23.654   1.463  -4.611  0.00  0.00    +0.227 C 
ATOM     53  O   LIG    1       23.114   2.632  -4.781  0.00  0.00    -0.284 OA
ATOM     54  C   LIG    1       22.800   0.324  -4.184  0.00  0.00    +0.007 C 
ATOM     55  C   LIG    1       21.386   0.231  -4.712  0.00  0.00    +0.048 C 
ATOM     56  C   LIG    1       23.370  -0.483  -3.240  0.00  0.00    +0.013 C 
ATOM     57  C   LIG    1       24.731  -0.092  -2.875  0.00  0.00    +0.228 C 
ATOM     58  O   LIG    1       25.108  -0.190  -1.614  0.00  0.00    -0.284 OA
ATOM     59  C   LIG    1       25.674   0.401  -3.860  0.00  0.00    +0.213 C 
BRANCH  59  60
ATOM     60  O   LIG    1       27.037   0.125  -3.841  0.00  0.00    -0.488 OA
ATOM     61  C   LIG    1       27.562  -0.256  -2.563  0.00  0.00    +0.277 C 
ENDBRANCH  59  60
BRANCH  51  63
ATOM     62  C   LIG    1       25.481   3.199  -6.143  0.00  0.00    +0.277 C 
ATOM     63  O   LIG    1       25.923   1.921  -5.686  0.00  0.00    -0.488 OA
ENDBRANCH  51  63
ENDBRANCH  50  56
ENDBRANCH  47  50
ENDBRANCH  46  48
ENDBRANCH  45  46
ENDBRANCH  42  45
ENDBRANCH  41  43
ENDBRANCH  40  41
ENDBRANCH  37  40
ENDBRANCH  36  38
ENDBRANCH  35  36
ENDBRANCH   1  35
TORSDOF 31
