REMARK  Name = *****
REMARK                            x       y       z     vdW  Elec       q    Type
REMARK                         _______ _______ _______ _____ _____    ______ ____
ROOT
ATOM      1  C   LIG    1        3.399   9.080  -2.721  0.00  0.00    +0.011 C 
ATOM      2  C   LIG    1        2.742   8.550  -1.452  0.00  0.00    +0.026 C 
ATOM      3  C   LIG    1        1.859   7.262  -1.553  0.00  0.00    +0.133 C 
ATOM      4  C   LIG    1        0.451   7.685  -0.982  0.00  0.00    +0.009 C 
ATOM      5  C   LIG    1        0.787   8.850  -0.018  0.00  0.00    +0.005 C 
ATOM      6  C   LIG    1        1.277   8.439   1.401  0.00  0.00    +0.034 C 
ATOM      7  C   LIG    1        0.392   7.351   2.065  0.00  0.00    +0.153 C 
ATOM      8  C   LIG    1        0.158   6.158   1.111  0.00  0.00    +0.154 C 
ATOM      9  F   LIG    1       -0.851   7.939   2.227  0.00  0.00    -0.238 F 
ATOM     10  C   LIG    1        0.929   6.944   3.518  0.00  0.00    +0.044 C 
ATOM     11  C   LIG    1        1.688   8.134   4.130  0.00  0.00    -0.053 C 
ATOM     12  C   LIG    1        2.842   8.029   4.812  0.00  0.00    +0.051 C 
ATOM     13  C   LIG    1        3.529   6.731   4.963  0.00  0.00    +0.179 C 
ATOM     14  C   LIG    1        2.974   5.590   4.208  0.00  0.00    +0.047 C 
ATOM     15  O   LIG    1        4.545   6.621   5.635  0.00  0.00    -0.288 OA
ATOM     16  C   LIG    1        1.132   9.480   3.782  0.00  0.00    +0.032 C 
ATOM     17  C   LIG    1       -0.262   6.620   4.455  0.00  0.00    +0.023 C 
ATOM     18  C   LIG    1        1.815   5.698   3.545  0.00  0.00    -0.009 C 
ATOM     19  C   LIG    1        1.351   9.720   2.289  0.00  0.00    +0.011 C 
ATOM     20  C   LIG    1       -0.470   8.229  -2.114  0.00  0.00    +0.015 C 
ATOM     21  C   LIG    1       -0.357   6.590  -0.261  0.00  0.00    +0.044 C 
ATOM     22  C   LIG    1        1.861   9.625  -0.796  0.00  0.00    +0.011 C 
ENDROOT
BRANCH   3  23
ATOM     23  O   LIG    1        2.466   6.324  -0.654  0.00  0.00    -0.380 OA
ATOM     24  H   LIG    1        3.384   6.165  -0.951  0.00  0.00    +0.211 HD
ENDBRANCH   3  23
BRANCH   3  25
ATOM     25  C   LIG    1        1.738   6.593  -2.954  0.00  0.00    +0.180 C 
ATOM     26  O   LIG    1        1.652   7.247  -3.997  0.00  0.00    -0.293 OA
BRANCH  25  27
ATOM     27  C   LIG    1        1.677   5.083  -3.008  0.00  0.00    +0.186 C 
ATOM     28 CL   LIG    1        3.333   4.459  -3.128  0.00  0.00    -0.117 Cl
ENDBRANCH  25  27
ENDBRANCH   3  25
BRANCH   8  29
ATOM     29  O   LIG    1       -0.813   5.252   1.653  0.00  0.00    -0.389 OA
ATOM     30  H   LIG    1       -1.607   5.782   1.860  0.00  0.00    +0.210 HD
ENDBRANCH   8  29
TORSDOF 4
