REMARK  Name = *****
REMARK                            x       y       z     vdW  Elec       q    Type
REMARK                         _______ _______ _______ _____ _____    ______ ____
ROOT
ATOM      1  C   LIG    1       -5.176   0.061  -2.341  0.00  0.00    +0.015 C 
ATOM      2  C   LIG    1       -3.844  -0.229  -3.083  0.00  0.00    +0.018 C 
ATOM      3  C   LIG    1       -5.006   0.751  -0.893  0.00  0.00    +0.128 C 
ATOM      4  C   LIG    1       -4.455   0.166   0.496  0.00  0.00    +0.022 C 
ATOM      5  C   LIG    1       -2.914   0.124   0.558  0.00  0.00    +0.010 C 
ATOM      6  C   LIG    1       -5.264  -0.960   1.335  0.00  0.00    -0.014 C 
ATOM      7  C   LIG    1       -6.247  -1.731   0.498  0.00  0.00    +0.071 C 
ATOM      8  C   LIG    1       -7.503  -0.874   0.436  0.00  0.00    +0.138 C 
ATOM      9  O   LIG    1       -8.463  -1.084  -0.310  0.00  0.00    -0.297 OA
ATOM     10  C   LIG    1       -7.543   0.078   1.600  0.00  0.00    +0.075 C 
ATOM     11  C   LIG    1       -5.547  -2.688  -0.496  0.00  0.00    +0.018 C 
ATOM     12  C   LIG    1       -4.035  -2.576  -0.832  0.00  0.00    +0.016 C 
ATOM     13  C   LIG    1       -5.456  -4.005   0.360  0.00  0.00    -0.004 C 
ATOM     14  C   LIG    1       -6.738  -4.841   0.414  0.00  0.00    +0.008 C 
ATOM     15  C   LIG    1       -4.928  -3.601   1.832  0.00  0.00    +0.004 C 
ATOM     16  C   LIG    1       -6.273  -2.551  -1.841  0.00  0.00    +0.184 C 
ATOM     17  C   LIG    1       -4.437  -2.090   2.077  0.00  0.00    +0.008 C 
ATOM     18  C   LIG    1       -6.246  -0.267   2.347  0.00  0.00    +0.015 C 
ATOM     19  C   LIG    1       -6.250  -1.100  -2.477  0.00  0.00    +0.058 C 
ENDROOT
BRANCH   1  21
ATOM     20  C   LIG    1       -5.618   2.482  -3.352  0.00  0.00    +0.004 C 
ATOM     21  C   LIG    1       -5.771   1.148  -3.342  0.00  0.00    -0.025 C 
ENDBRANCH   1  21
BRANCH   3  22
ATOM     22  O   LIG    1       -6.260   1.345  -0.527  0.00  0.00    -0.391 OA
ATOM     23  H   LIG    1       -6.513   2.001  -1.198  0.00  0.00    +0.210 HD
ENDBRANCH   3  22
BRANCH  16  24
ATOM     24  O   LIG    1       -5.813  -3.542  -2.788  0.00  0.00    -0.460 OA
BRANCH  24  25
ATOM     25  C   LIG    1       -6.659  -3.823  -3.819  0.00  0.00    +0.317 C 
ATOM     26  O   LIG    1       -7.678  -3.196  -4.097  0.00  0.00    -0.250 OA
BRANCH  25  27
ATOM     27  C   LIG    1       -6.280  -5.090  -4.512  0.00  0.00    +0.189 C 
BRANCH  27  28
ATOM     28  S   LIG    1       -7.014  -6.510  -3.634  0.00  0.00    -0.146 S 
BRANCH  28  29
ATOM     29  C   LIG    1       -8.825  -6.137  -3.778  0.00  0.00    +0.050 C 
ATOM     30  C   LIG    1       -9.270  -5.875  -5.231  0.00  0.00    +0.033 C 
ATOM     31  C   LIG    1      -10.761  -6.172  -5.471  0.00  0.00    +0.058 C 
ATOM     32  N   LIG    1      -11.124  -7.527  -5.046  0.00  0.00    -0.299 NA
ATOM     33  C   LIG    1      -10.374  -8.602  -5.676  0.00  0.00    +0.105 C 
ATOM     34  C   LIG    1      -11.027  -7.460  -3.584  0.00  0.00    +0.058 C 
ATOM     35  C   LIG    1      -11.850  -6.199  -3.304  0.00  0.00    +0.020 C 
ATOM     36  C   LIG    1      -11.662  -5.335  -4.554  0.00  0.00    +0.020 C 
ATOM     37  C   LIG    1       -9.575  -7.304  -3.102  0.00  0.00    +0.033 C 
ENDBRANCH  28  29
ENDBRANCH  27  28
ENDBRANCH  25  27
ENDBRANCH  24  25
ENDBRANCH  16  24
TORSDOF 7
