REMARK  Name = *****
REMARK                            x       y       z     vdW  Elec       q    Type
REMARK                         _______ _______ _______ _____ _____    ______ ____
ROOT
ATOM      1  C   LIG    1        5.122   2.778   0.997  0.00  0.00    +0.136 A 
ATOM      2  N   LIG    1        4.057   3.602   1.292  0.00  0.00    -0.297 N 
ATOM      3  C   LIG    1        3.845   4.416   0.203  0.00  0.00    +0.114 A 
ATOM      4  C   LIG    1        2.667   5.252   0.194  0.00  0.00    +0.142 A 
ATOM      5  N   LIG    1        1.923   5.350   1.271  0.00  0.00    -0.237 NA
ATOM      6  C   LIG    1        2.261   4.616   2.387  0.00  0.00    +0.131 A 
ATOM      7  C   LIG    1        4.947   4.220  -0.605  0.00  0.00    +0.100 A 
ATOM      8  C   LIG    1        3.261   3.723   2.415  0.00  0.00    +0.113 A 
ATOM      9  N   LIG    1        5.707   3.169  -0.124  0.00  0.00    -0.229 NA
ENDROOT
BRANCH   1  12
ATOM     10  C   LIG    1        5.493  -0.226   0.102  0.00  0.00    +0.292 C 
ATOM     11  N   LIG    1        6.096   0.514   1.098  0.00  0.00    -0.281 N 
ATOM     12  C   LIG    1        5.473   1.599   1.853  0.00  0.00    +0.143 C 
ATOM     13  C   LIG    1        6.511   1.969   2.917  0.00  0.00    +0.032 C 
ATOM     14  C   LIG    1        7.322   0.690   3.084  0.00  0.00    +0.021 C 
ATOM     15  C   LIG    1        7.373   0.136   1.668  0.00  0.00    +0.109 C 
ATOM     16  O   LIG    1        5.977  -1.243  -0.381  0.00  0.00    -0.261 OA
BRANCH  10  19
ATOM     17  C   LIG    1        2.010   1.420  -1.317  0.00  0.00    +0.107 C 
ATOM     18  C   LIG    1        3.192   0.720  -0.808  0.00  0.00    -0.096 C 
ATOM     19  C   LIG    1        4.206   0.233  -0.396  0.00  0.00    -0.008 C 
ENDBRANCH  10  19
ENDBRANCH   1  12
BRANCH   7  20
ATOM     20  C   LIG    1        5.341   4.977  -1.781  0.00  0.00    +0.003 A 
ATOM     21  C   LIG    1        6.065   4.349  -2.800  0.00  0.00    +0.011 A 
ATOM     22  C   LIG    1        6.505   5.075  -3.912  0.00  0.00    +0.013 A 
ATOM     23  C   LIG    1        6.231   6.447  -4.022  0.00  0.00    +0.037 A 
ATOM     24  C   LIG    1        5.485   7.074  -3.021  0.00  0.00    +0.013 A 
ATOM     25  C   LIG    1        5.074   6.349  -1.898  0.00  0.00    +0.011 A 
BRANCH  23  26
ATOM     26  C   LIG    1        6.738   7.268  -5.167  0.00  0.00    +0.249 C 
ATOM     27  N   LIG    1        7.922   6.806  -5.702  0.00  0.00    -0.266 N 
ATOM     28  H   LIG    1        8.356   6.006  -5.275  0.00  0.00    +0.157 HD
ATOM     29  O   LIG    1        6.099   8.258  -5.497  0.00  0.00    -0.270 OA
BRANCH  27  30
ATOM     30  C   LIG    1        8.632   7.363  -6.771  0.00  0.00    +0.125 A 
ATOM     31  N   LIG    1        8.196   8.458  -7.412  0.00  0.00    -0.240 NA
ATOM     32  C   LIG    1        8.934   8.916  -8.447  0.00  0.00    +0.113 A 
ATOM     33  C   LIG    1       10.101   8.317  -8.887  0.00  0.00    +0.020 A 
ATOM     34  C   LIG    1       10.546   7.188  -8.216  0.00  0.00    +0.005 A 
ATOM     35  C   LIG    1        9.807   6.707  -7.140  0.00  0.00    +0.044 A 
ENDBRANCH  27  30
ENDBRANCH  23  26
ENDBRANCH   7  20
BRANCH   4  36
ATOM     36  N   LIG    1        2.216   5.934  -0.899  0.00  0.00    -0.341 N 
ATOM     37  H   LIG    1        1.258   6.245  -0.788  0.00  0.00    +0.144 HD
ATOM     38  H   LIG    1        2.403   5.506  -1.799  0.00  0.00    +0.144 HD
ENDBRANCH   4  36
TORSDOF 6
