REMARK  Name = *****
REMARK                            x       y       z     vdW  Elec       q    Type
REMARK                         _______ _______ _______ _____ _____    ______ ____
ROOT
ATOM      1  C   LIG    1        6.668   1.806   1.181  0.00  0.00    +0.136 C 
ENDROOT
BRANCH   1   2
ATOM      2  N   LIG    1        5.770   2.974   1.274  0.00  0.00    -0.225 N 
ATOM      3  C   LIG    1        5.424   3.613   2.430  0.00  0.00    +0.256 C 
ATOM      4  O   LIG    1        5.767   3.404   3.565  0.00  0.00    -0.269 OA
ATOM      5  C   LIG    1        4.500   4.699   2.065  0.00  0.00    +0.071 A 
ATOM      6  C   LIG    1        4.360   4.657   0.689  0.00  0.00    +0.051 A 
ATOM      7  C   LIG    1        3.580   5.553  -0.009  0.00  0.00    +0.014 A 
ATOM      8  C   LIG    1        2.942   6.534   0.741  0.00  0.00    +0.003 A 
ATOM      9  C   LIG    1        3.074   6.580   2.150  0.00  0.00    +0.024 A 
ATOM     10  C   LIG    1        3.850   5.641   2.850  0.00  0.00    +0.046 A 
ATOM     11  C   LIG    1        5.146   3.548   0.192  0.00  0.00    +0.255 C 
ATOM     12  O   LIG    1        5.178   3.218  -0.990  0.00  0.00    -0.270 OA
BRANCH  10  13
ATOM     13  N   LIG    1        3.983   5.609   4.262  0.00  0.00    -0.285 N 
ATOM     14  H   LIG    1        4.572   4.860   4.631  0.00  0.00    +0.155 HD
ATOM     15  C   LIG    1        3.399   6.474   5.172  0.00  0.00    +0.214 C 
ATOM     16  O   LIG    1        2.673   7.427   4.901  0.00  0.00    -0.276 OA
ATOM     17  C   LIG    1        3.723   6.154   6.612  0.00  0.00    +0.109 C 
ENDBRANCH  10  13
ENDBRANCH   1   2
BRANCH   1  22
ATOM     18  C   LIG    1        4.040  -0.938   0.414  0.00  0.00    +0.162 A 
ATOM     19  C   LIG    1        4.555  -2.046   1.110  0.00  0.00    +0.162 A 
ATOM     20  C   LIG    1        5.738  -1.881   1.844  0.00  0.00    +0.050 A 
ATOM     21  C   LIG    1        6.388  -0.639   1.921  0.00  0.00    +0.009 A 
ATOM     22  C   LIG    1        5.889   0.474   1.244  0.00  0.00    -0.021 A 
ATOM     23  C   LIG    1        4.692   0.301   0.537  0.00  0.00    +0.055 A 
BRANCH  19  24
ATOM     24  O   LIG    1        3.900  -3.253   1.023  0.00  0.00    -0.491 OA
ATOM     25  C   LIG    1        4.066  -4.130   2.143  0.00  0.00    +0.277 C 
ENDBRANCH  19  24
BRANCH  18  26
ATOM     26  O   LIG    1        2.931  -1.113  -0.382  0.00  0.00    -0.489 OA
BRANCH  26  28
ATOM     27  C   LIG    1        3.076   0.258  -2.427  0.00  0.00    +0.048 C 
ATOM     28  C   LIG    1        2.409   0.032  -1.075  0.00  0.00    +0.226 C 
ENDBRANCH  26  28
ENDBRANCH  18  26
ENDBRANCH   1  22
BRANCH   1  29
ATOM     29  C   LIG    1        7.579   1.808  -0.075  0.00  0.00    +0.193 C 
BRANCH  29  30
ATOM     30  S   LIG    1        8.608   3.278  -0.138  0.00  0.00    -0.032 S 
ATOM     31  O   LIG    1        9.514   3.227   0.984  0.00  0.00    -0.174 OA
ATOM     32  O   LIG    1        7.779   4.451  -0.356  0.00  0.00    -0.174 OA
ATOM     33  C   LIG    1        9.582   3.081  -1.618  0.00  0.00    +0.194 C 
ENDBRANCH  29  30
ENDBRANCH   1  29
TORSDOF 8
