REMARK  Name = *****
REMARK                            x       y       z     vdW  Elec       q    Type
REMARK                         _______ _______ _______ _____ _____    ______ ____
ROOT
ATOM      1  C   LIG    1        4.829   0.429  -1.281  0.00  0.00    +0.095 C 
ATOM      2  C   LIG    1        4.221  -0.827  -1.978  0.00  0.00    +0.038 C 
ATOM      3  C   LIG    1        3.017  -0.529  -2.873  0.00  0.00    +0.086 C 
ATOM      4  N   LIG    1        3.284   0.500  -3.876  0.00  0.00    -0.302 NA
ATOM      5  C   LIG    1        3.635   1.747  -3.184  0.00  0.00    +0.086 C 
ATOM      6  C   LIG    1        4.864   1.622  -2.280  0.00  0.00    +0.038 C 
ENDROOT
BRANCH   1   7
ATOM      7  C   LIG    1        6.276   0.147  -0.761  0.00  0.00    -0.030 A 
ATOM      8  C   LIG    1        6.704  -1.144  -0.397  0.00  0.00    +0.005 A 
ATOM      9  C   LIG    1        7.998  -1.374   0.089  0.00  0.00    +0.000 A 
ATOM     10  C   LIG    1        8.889  -0.318   0.244  0.00  0.00    +0.000 A 
ATOM     11  C   LIG    1        8.499   0.964  -0.119  0.00  0.00    +0.000 A 
ATOM     12  C   LIG    1        7.213   1.192  -0.619  0.00  0.00    +0.005 A 
ENDBRANCH   1   7
BRANCH   1  13
ATOM     13  C   LIG    1        3.909   0.810  -0.076  0.00  0.00    +0.318 C 
ATOM     14  O   LIG    1        3.246   1.848   0.007  0.00  0.00    -0.250 OA
BRANCH  13  15
ATOM     15  O   LIG    1        3.889  -0.195   0.853  0.00  0.00    -0.464 OA
BRANCH  15  17
ATOM     16  C   LIG    1        1.579  -0.422   1.539  0.00  0.00    +0.048 C 
ATOM     17  C   LIG    1        2.989  -0.042   1.958  0.00  0.00    +0.229 C 
ENDBRANCH  15  17
ENDBRANCH  13  15
ENDBRANCH   1  13
BRANCH   4  18
ATOM     18  C   LIG    1        4.297   0.128  -4.886  0.00  0.00    +0.089 C 
BRANCH  18  19
ATOM     19  C   LIG    1        3.994  -1.159  -5.687  0.00  0.00    +0.050 C 
BRANCH  19  20
ATOM     20  C   LIG    1        5.109  -1.424  -6.673  0.00  0.00    -0.046 A 
ATOM     21  C   LIG    1        5.104  -0.814  -7.931  0.00  0.00    +0.005 A 
ATOM     22  C   LIG    1        6.232  -0.885  -8.752  0.00  0.00    +0.023 A 
ATOM     23  C   LIG    1        7.389  -1.534  -8.316  0.00  0.00    +0.025 A 
ATOM     24  C   LIG    1        7.335  -2.273  -7.134  0.00  0.00    +0.023 A 
ATOM     25  C   LIG    1        6.215  -2.199  -6.302  0.00  0.00    +0.005 A 
BRANCH  23  26
ATOM     26  N   LIG    1        8.516  -1.605  -9.145  0.00  0.00    -0.358 N 
ATOM     27  H   LIG    1        8.608  -0.791  -9.746  0.00  0.00    +0.142 HD
ATOM     28  H   LIG    1        9.373  -1.781  -8.627  0.00  0.00    +0.142 HD
ENDBRANCH  23  26
ENDBRANCH  19  20
ENDBRANCH  18  19
ENDBRANCH   4  18
TORSDOF 8
