REMARK  Name = *****
REMARK                            x       y       z     vdW  Elec       q    Type
REMARK                         _______ _______ _______ _____ _____    ______ ____
ROOT
ATOM      1  C   LIG    1        7.065  -1.345   0.558  0.00  0.00    +0.176 C 
ENDROOT
BRANCH   1   2
ATOM      2  O   LIG    1        8.424  -1.494   0.987  0.00  0.00    -0.387 OA
ATOM      3  H   LIG    1        8.700  -2.413   0.820  0.00  0.00    +0.210 HD
ENDBRANCH   1   2
BRANCH   1   4
ATOM      4  C   LIG    1        6.629   0.103   0.864  0.00  0.00    +0.181 C 
BRANCH   4   5
ATOM      5  O   LIG    1        5.194   0.182   0.714  0.00  0.00    -0.386 OA
ATOM      6  H   LIG    1        4.798  -0.200   1.519  0.00  0.00    +0.210 HD
ENDBRANCH   4   5
BRANCH   4   7
ATOM      7  C   LIG    1        7.298   1.241   0.062  0.00  0.00    +0.208 C 
BRANCH   7   9
ATOM      8  O   LIG    1        9.565   1.984   0.553  0.00  0.00    -0.298 OA
ATOM      9  C   LIG    1        8.817   1.151   0.017  0.00  0.00    +0.257 C 
ENDBRANCH   7   9
BRANCH   7  10
ATOM     10  O   LIG    1        6.899   2.497   0.645  0.00  0.00    -0.382 OA
ATOM     11  H   LIG    1        7.456   2.628   1.437  0.00  0.00    +0.210 HD
ENDBRANCH   7  10
ENDBRANCH   4   7
ENDBRANCH   1   4
BRANCH   1  12
ATOM     12  C   LIG    1        6.879  -1.885  -0.884  0.00  0.00    +0.171 C 
BRANCH  12  13
ATOM     13  O   LIG    1        7.707  -1.165  -1.803  0.00  0.00    -0.387 OA
ATOM     14  H   LIG    1        7.107  -0.619  -2.353  0.00  0.00    +0.210 HD
ENDBRANCH  12  13
BRANCH  12  15
ATOM     15  C   LIG    1        5.432  -1.918  -1.399  0.00  0.00    +0.190 C 
BRANCH  15  16
ATOM     16  O   LIG    1        4.978  -0.609  -1.723  0.00  0.00    -0.392 OA
ATOM     17  H   LIG    1        4.809  -0.137  -0.875  0.00  0.00    +0.209 HD
ENDBRANCH  15  16
ENDBRANCH  12  15
ENDBRANCH   1  12
TORSDOF 10
