REMARK  Name = *****
REMARK                            x       y       z     vdW  Elec       q    Type
REMARK                         _______ _______ _______ _____ _____    ______ ____
ROOT
ATOM      1  C   LIG    1      -10.265   7.345  -0.750  0.00  0.00    +0.014 C 
ATOM      2  C   LIG    1       -9.772   6.122  -1.531  0.00  0.00    +0.037 C 
ATOM      3  C   LIG    1      -10.866   5.491  -2.469  0.00  0.00    +0.127 C 
ATOM      4  C   LIG    1      -11.314   4.060  -2.029  0.00  0.00    +0.056 C 
ATOM      5  C   LIG    1      -11.970   4.093  -0.637  0.00  0.00    +0.014 C 
ATOM      6  C   LIG    1      -12.271   3.282  -3.001  0.00  0.00    +0.179 C 
ATOM      7  C   LIG    1      -12.750   4.024  -4.244  0.00  0.00    +0.052 C 
ATOM      8  O   LIG    1      -11.602   2.085  -3.490  0.00  0.00    -0.461 OA
ATOM      9  C   LIG    1      -11.669   0.967  -2.715  0.00  0.00    +0.310 C 
ATOM     10  O   LIG    1      -12.246   0.887  -1.647  0.00  0.00    -0.251 OA
ATOM     11  C   LIG    1      -10.887  -0.183  -3.313  0.00  0.00    +0.152 C 
ATOM     12  C   LIG    1      -11.748  -1.317  -3.870  0.00  0.00    +0.128 C 
ATOM     13  C   LIG    1      -12.425  -1.064  -5.228  0.00  0.00    +0.063 C 
ATOM     14  C   LIG    1      -11.431  -0.897  -6.388  0.00  0.00    +0.119 C 
ATOM     15  C   LIG    1      -11.084   0.572  -6.667  0.00  0.00    +0.062 C 
ATOM     16  C   LIG    1       -9.608   0.753  -7.034  0.00  0.00    +0.117 C 
ATOM     17  C   LIG    1       -9.235   2.201  -7.377  0.00  0.00    +0.034 C 
ATOM     18  C   LIG    1       -9.604   3.313  -6.392  0.00  0.00    +0.036 C 
ATOM     19  C   LIG    1       -8.785   3.453  -5.100  0.00  0.00    +0.143 C 
ATOM     20  C   LIG    1       -7.297   3.846  -5.206  0.00  0.00    +0.150 C 
ATOM     21  C   LIG    1       -7.035   5.023  -6.136  0.00  0.00    +0.108 C 
ATOM     22  C   LIG    1       -5.551   5.221  -6.356  0.00  0.00    +0.138 C 
ATOM     23  O   LIG    1       -4.762   5.165  -5.411  0.00  0.00    -0.297 OA
ATOM     24  C   LIG    1       -5.089   5.595  -7.750  0.00  0.00    +0.106 C 
ATOM     25  C   LIG    1       -5.033   4.525  -8.869  0.00  0.00    +0.138 C 
ATOM     26  C   LIG    1       -5.618   3.103  -8.645  0.00  0.00    +0.155 C 
ATOM     27  C   LIG    1       -4.666   2.053  -8.032  0.00  0.00    +0.134 C 
ATOM     28  C   LIG    1       -5.306   0.658  -7.755  0.00  0.00    +0.068 C 
ATOM     29  C   LIG    1       -4.460  -0.389  -6.950  0.00  0.00    +0.147 C 
ATOM     30  C   LIG    1       -4.943  -0.808  -5.574  0.00  0.00    +0.004 C 
ATOM     31  C   LIG    1       -5.965  -0.345  -4.836  0.00  0.00    -0.002 C 
ATOM     32  C   LIG    1       -5.875  -0.418  -3.378  0.00  0.00    -0.000 C 
ATOM     33  C   LIG    1       -6.195   0.697  -2.697  0.00  0.00    +0.000 C 
ATOM     34  C   LIG    1       -5.327   1.260  -1.672  0.00  0.00    +0.000 C 
ATOM     35  C   LIG    1       -5.408   2.582  -1.442  0.00  0.00    -0.000 C 
ATOM     36  C   LIG    1       -4.354   3.433  -0.937  0.00  0.00    -0.004 C 
ATOM     37  C   LIG    1       -3.645   4.168  -1.816  0.00  0.00    -0.026 C 
ATOM     38  C   LIG    1       -2.821   5.386  -1.476  0.00  0.00    +0.031 C 
ATOM     39  C   LIG    1       -3.497   6.680  -1.992  0.00  0.00    +0.031 C 
ATOM     40  C   LIG    1       -4.904   6.795  -1.460  0.00  0.00    -0.026 C 
ATOM     41  C   LIG    1       -6.013   6.734  -2.217  0.00  0.00    -0.005 C 
ATOM     42  C   LIG    1       -7.307   6.524  -1.613  0.00  0.00    -0.004 C 
ATOM     43  C   LIG    1       -8.483   6.487  -2.262  0.00  0.00    -0.021 C 
ENDROOT
BRANCH   3  44
ATOM     44  O   LIG    1      -11.985   6.361  -2.636  0.00  0.00    -0.391 OA
ATOM     45  H   LIG    1      -12.449   6.443  -1.787  0.00  0.00    +0.210 HD
ENDBRANCH   3  44
BRANCH  12  46
ATOM     46  O   LIG    1      -12.756  -1.719  -2.942  0.00  0.00    -0.391 OA
ATOM     47  H   LIG    1      -12.413  -1.621  -2.036  0.00  0.00    +0.210 HD
ENDBRANCH  12  46
BRANCH  14  48
ATOM     48  O   LIG    1      -12.024  -1.438  -7.574  0.00  0.00    -0.392 OA
ATOM     49  H   LIG    1      -11.360  -1.314  -8.280  0.00  0.00    +0.210 HD
ENDBRANCH  14  48
BRANCH  16  50
ATOM     50  O   LIG    1       -9.326  -0.075  -8.171  0.00  0.00    -0.392 OA
ATOM     51  H   LIG    1       -8.578   0.319  -8.661  0.00  0.00    +0.210 HD
ENDBRANCH  16  50
BRANCH  19  52
ATOM     52  O   LIG    1       -8.868   2.232  -4.371  0.00  0.00    -0.389 OA
ATOM     53  H   LIG    1       -8.113   1.711  -4.706  0.00  0.00    +0.210 HD
ENDBRANCH  19  52
BRANCH  20  54
ATOM     54  O   LIG    1       -6.599   2.679  -5.638  0.00  0.00    -0.389 OA
ATOM     55  H   LIG    1       -5.634   2.852  -5.530  0.00  0.00    +0.210 HD
ENDBRANCH  20  54
BRANCH  25  56
ATOM     56  O   LIG    1       -3.672   4.440  -9.316  0.00  0.00    -0.391 OA
ATOM     57  H   LIG    1       -3.125   4.216  -8.539  0.00  0.00    +0.210 HD
ENDBRANCH  25  56
BRANCH  26  58
ATOM     58  C   LIG    1       -6.220   2.538  -9.912  0.00  0.00    +0.313 C 
ATOM     59  O   LIG    1       -7.267   1.893  -9.956  0.00  0.00    -0.251 OA
BRANCH  58  60
ATOM     60  O   LIG    1       -5.488   2.701 -11.019  0.00  0.00    -0.480 OA
ATOM     61  H   LIG    1       -5.985   2.257 -11.739  0.00  0.00    +0.295 HD
ENDBRANCH  58  60
ENDBRANCH  26  58
BRANCH  27  62
ATOM     62  O   LIG    1       -4.140   2.602  -6.822  0.00  0.00    -0.391 OA
ATOM     63  H   LIG    1       -3.527   1.924  -6.460  0.00  0.00    +0.210 HD
ENDBRANCH  27  62
BRANCH  29  64
ATOM     64  O   LIG    1       -3.121   0.145  -6.856  0.00  0.00    -0.341 OA
BRANCH  64  65
ATOM     65  C   LIG    1       -2.067  -0.665  -6.315  0.00  0.00    +0.281 C 
ATOM     66  C   LIG    1       -1.730  -1.957  -7.092  0.00  0.00    +0.189 C 
ATOM     67  C   LIG    1       -1.167  -1.635  -8.490  0.00  0.00    +0.116 C 
ATOM     68  C   LIG    1        0.053  -0.712  -8.336  0.00  0.00    +0.162 C 
ATOM     69  C   LIG    1       -0.176   0.474  -7.376  0.00  0.00    +0.148 C 
ATOM     70  C   LIG    1       -0.781   1.687  -8.069  0.00  0.00    +0.040 C 
ATOM     71  O   LIG    1       -0.882   0.141  -6.173  0.00  0.00    -0.343 OA
BRANCH  67  72
ATOM     72  N   LIG    1       -2.189  -1.113  -9.422  0.00  0.00    -0.323 NA
ATOM     73  H   LIG    1       -3.004  -1.730  -9.363  0.00  0.00    +0.119 HD
ATOM     74  H   LIG    1       -2.529  -0.214  -9.078  0.00  0.00    +0.119 HD
ENDBRANCH  67  72
BRANCH  66  75
ATOM     75  O   LIG    1       -2.838  -2.860  -7.193  0.00  0.00    -0.385 OA
ATOM     76  H   LIG    1       -2.513  -3.653  -7.657  0.00  0.00    +0.210 HD
ENDBRANCH  66  75
BRANCH  68  77
ATOM     77  O   LIG    1        1.137  -1.515  -7.830  0.00  0.00    -0.388 OA
ATOM     78  H   LIG    1        1.919  -0.938  -7.767  0.00  0.00    +0.210 HD
ENDBRANCH  68  77
ENDBRANCH  64  65
ENDBRANCH  29  64
TORSDOF 15
