REMARK  Name = *****
REMARK                            x       y       z     vdW  Elec       q    Type
REMARK                         _______ _______ _______ _____ _____    ______ ____
ROOT
ATOM      1  N   LIG    1        6.390  -0.015  -1.331  0.00  0.00    -0.266 N 
ATOM      2  C   LIG    1        6.705  -1.148  -0.557  0.00  0.00    +0.271 C 
ATOM      3  O   LIG    1        5.849  -1.827   0.020  0.00  0.00    -0.270 OA
ATOM      4  C   LIG    1        8.202  -1.565  -0.458  0.00  0.00    +0.320 C 
ATOM      5  N   LIG    1        8.791  -0.697   0.556  0.00  0.00    -0.243 NA
ATOM      6  C   LIG    1        8.960   0.538   0.218  0.00  0.00    +0.081 C 
ATOM      7  C   LIG    1        8.674   1.056  -1.153  0.00  0.00    +0.024 A 
ATOM      8  C   LIG    1        9.725   1.778  -1.751  0.00  0.00    +0.032 A 
ATOM      9  C   LIG    1        9.498   2.480  -2.923  0.00  0.00    +0.042 A 
ATOM     10 CL   LIG    1       10.760   3.418  -3.617  0.00  0.00    -0.084 Cl
ATOM     11  C   LIG    1        8.247   2.436  -3.520  0.00  0.00    +0.022 A 
ATOM     12  C   LIG    1        7.230   1.630  -2.979  0.00  0.00    +0.025 A 
ATOM     13  C   LIG    1        7.420   0.895  -1.795  0.00  0.00    +0.046 A 
ENDROOT
BRANCH   6  14
ATOM     14  C   LIG    1        9.494   1.493   1.251  0.00  0.00    +0.036 A 
ATOM     15  C   LIG    1        9.167   2.854   1.231  0.00  0.00    +0.133 A 
ATOM     16  F   LIG    1        8.325   3.352   0.313  0.00  0.00    -0.205 F 
ATOM     17  C   LIG    1        9.693   3.737   2.172  0.00  0.00    +0.039 A 
ATOM     18  C   LIG    1       10.538   3.262   3.172  0.00  0.00    +0.003 A 
ATOM     19  C   LIG    1       10.850   1.903   3.225  0.00  0.00    +0.001 A 
ATOM     20  C   LIG    1       10.331   1.019   2.271  0.00  0.00    +0.013 A 
ENDBRANCH   6  14
BRANCH   4  21
ATOM     21  O   LIG    1        8.300  -2.939  -0.118  0.00  0.00    -0.364 OA
ATOM     22  H   LIG    1        7.804  -3.005   0.718  0.00  0.00    +0.212 HD
ENDBRANCH   4  21
BRANCH   1  23
ATOM     23  C   LIG    1        4.953   0.377  -1.456  0.00  0.00    +0.128 C 
BRANCH  23  24
ATOM     24  C   LIG    1        3.943  -0.762  -1.700  0.00  0.00    +0.138 C 
BRANCH  24  26
ATOM     25  N   LIG    1        1.479   0.125  -1.950  0.00  0.00    -0.197 NA
ATOM     26  C   LIG    1        2.568  -0.254  -1.848  0.00  0.00    +0.064 C 
ENDBRANCH  24  26
ENDBRANCH  23  24
ENDBRANCH   1  23
TORSDOF 5
