REMARK  Name = *****
REMARK                            x       y       z     vdW  Elec       q    Type
REMARK                         _______ _______ _______ _____ _____    ______ ____
ROOT
ATOM      1  C   LIG    1        1.277  -2.268   1.497  0.00  0.00    +0.147 A 
ATOM      2  N   LIG    1        2.638  -2.468   1.355  0.00  0.00    -0.318 N 
ATOM      3  C   LIG    1        3.236  -1.986   2.497  0.00  0.00    +0.200 A 
ATOM      4  N   LIG    1        2.376  -1.429   3.313  0.00  0.00    -0.243 NA
ATOM      5  C   LIG    1        1.167  -1.588   2.703  0.00  0.00    +0.145 A 
ENDROOT
BRANCH   1   6
ATOM      6  C   LIG    1        0.218  -2.668   0.615  0.00  0.00    +0.357 C 
ATOM      7  O   LIG    1        0.348  -3.289  -0.424  0.00  0.00    -0.243 OA
BRANCH   6   8
ATOM      8  O   LIG    1       -0.983  -2.264   1.136  0.00  0.00    -0.460 OA
BRANCH   8  10
ATOM      9  C   LIG    1       -2.324  -1.595  -0.762  0.00  0.00    +0.048 C 
ATOM     10  C   LIG    1       -2.146  -2.592   0.366  0.00  0.00    +0.229 C 
ENDBRANCH   8  10
ENDBRANCH   6   8
ENDBRANCH   1   6
BRANCH   2  11
ATOM     11  C   LIG    1        3.352  -3.097   0.234  0.00  0.00    +0.116 C 
ATOM     12  C   LIG    1        4.500  -4.005   0.707  0.00  0.00    +0.036 C 
BRANCH  11  13
ATOM     13  C   LIG    1        3.833  -2.083  -0.805  0.00  0.00    -0.025 A 
ATOM     14  C   LIG    1        4.402  -0.847  -0.454  0.00  0.00    +0.006 A 
ATOM     15  C   LIG    1        4.890   0.029  -1.429  0.00  0.00    +0.000 A 
ATOM     16  C   LIG    1        4.823  -0.311  -2.776  0.00  0.00    +0.000 A 
ATOM     17  C   LIG    1        4.258  -1.527  -3.150  0.00  0.00    +0.000 A 
ATOM     18  C   LIG    1        3.770  -2.406  -2.175  0.00  0.00    +0.006 A 
ENDBRANCH  11  13
ENDBRANCH   2  11
TORSDOF 5
