REMARK  Name = *****
REMARK                            x       y       z     vdW  Elec       q    Type
REMARK                         _______ _______ _______ _____ _____    ______ ____
ROOT
ATOM      1  O   LIG    1        1.564   0.716   1.242  0.00  0.00    -0.270 OA
ATOM      2  C   LIG    1        2.474   0.339   0.504  0.00  0.00    +0.271 C 
ATOM      3  C   LIG    1        3.319  -0.979   0.724  0.00  0.00    +0.236 C 
ATOM      4  O   LIG    1        4.218  -1.357  -0.341  0.00  0.00    -0.465 OA
ATOM      5  C   LIG    1        4.547  -0.409  -1.264  0.00  0.00    +0.144 A 
ATOM      6  C   LIG    1        3.900   0.815  -1.392  0.00  0.00    +0.076 A 
ATOM      7  C   LIG    1        4.285   1.718  -2.386  0.00  0.00    +0.027 A 
ATOM      8  C   LIG    1        5.331   1.394  -3.252  0.00  0.00    +0.002 A 
ATOM      9  C   LIG    1        5.976   0.164  -3.133  0.00  0.00    +0.004 A 
ATOM     10  C   LIG    1        5.579  -0.739  -2.144  0.00  0.00    +0.048 A 
ATOM     11  N   LIG    1        2.855   1.145  -0.539  0.00  0.00    -0.279 N 
ATOM     12  H   LIG    1        2.353   2.016  -0.642  0.00  0.00    +0.155 HD
ENDROOT
BRANCH   3  13
ATOM     13  C   LIG    1        2.312  -2.163   0.871  0.00  0.00    +0.009 A 
ATOM     14  C   LIG    1        1.958  -2.948  -0.246  0.00  0.00    +0.012 A 
ATOM     15  C   LIG    1        1.064  -4.018  -0.127  0.00  0.00    +0.046 A 
ATOM     16  C   LIG    1        0.494  -4.308   1.103  0.00  0.00    +0.117 A 
ATOM     17  C   LIG    1        0.800  -3.541   2.221  0.00  0.00    +0.046 A 
ATOM     18  C   LIG    1        1.699  -2.472   2.103  0.00  0.00    +0.012 A 
BRANCH  16  19
ATOM     19  O   LIG    1       -0.371  -5.360   1.173  0.00  0.00    -0.507 OA
ATOM     20  H   LIG    1       -0.700  -5.432   2.084  0.00  0.00    +0.292 HD
ENDBRANCH  16  19
ENDBRANCH   3  13
BRANCH   3  21
ATOM     21  C   LIG    1        4.255  -0.848   1.963  0.00  0.00    +0.009 A 
ATOM     22  C   LIG    1        4.386   0.348   2.697  0.00  0.00    +0.012 A 
ATOM     23  C   LIG    1        5.254   0.434   3.789  0.00  0.00    +0.046 A 
ATOM     24  C   LIG    1        6.006  -0.668   4.165  0.00  0.00    +0.117 A 
ATOM     25  C   LIG    1        5.909  -1.862   3.463  0.00  0.00    +0.046 A 
ATOM     26  C   LIG    1        5.043  -1.948   2.368  0.00  0.00    +0.012 A 
BRANCH  24  27
ATOM     27  O   LIG    1        6.837  -0.533   5.237  0.00  0.00    -0.507 OA
ATOM     28  H   LIG    1        7.285  -1.381   5.391  0.00  0.00    +0.292 HD
ENDBRANCH  24  27
ENDBRANCH   3  21
TORSDOF 4
