REMARK  Name = *****
REMARK                            x       y       z     vdW  Elec       q    Type
REMARK                         _______ _______ _______ _____ _____    ______ ____
ROOT
ATOM      1  C   LIG    1        9.216  -2.407   1.627  0.00  0.00    +0.071 C 
ENDROOT
BRANCH   1   2
ATOM      2  C   LIG    1        8.346  -3.140   0.557  0.00  0.00    +0.021 C 
BRANCH   2   3
ATOM      3  C   LIG    1        6.896  -2.655   0.407  0.00  0.00    +0.036 C 
BRANCH   3   8
ATOM      4 CL   LIG    1        3.686  -5.456  -3.883  0.00  0.00    -0.084 Cl
ATOM      5  C   LIG    1        4.619  -4.672  -2.667  0.00  0.00    +0.041 A 
ATOM      6  C   LIG    1        4.632  -5.177  -1.369  0.00  0.00    +0.020 A 
ATOM      7  C   LIG    1        5.386  -4.536  -0.379  0.00  0.00    +0.005 A 
ATOM      8  C   LIG    1        6.125  -3.382  -0.678  0.00  0.00    -0.047 A 
ATOM      9  C   LIG    1        6.108  -2.892  -1.994  0.00  0.00    +0.005 A 
ATOM     10  C   LIG    1        5.353  -3.531  -2.983  0.00  0.00    +0.020 A 
ENDBRANCH   3   8
ENDBRANCH   2   3
ENDBRANCH   1   2
BRANCH   1  11
ATOM     11  S   LIG    1        8.518  -2.830   3.321  0.00  0.00    -0.117 S 
BRANCH  11  12
ATOM     12  C   LIG    1        9.610  -1.956   4.468  0.00  0.00    +0.045 A 
ATOM     13  C   LIG    1       10.792  -2.531   4.976  0.00  0.00    +0.056 A 
ATOM     14 CL   LIG    1       11.227  -4.180   4.679  0.00  0.00    -0.082 Cl
ATOM     15  C   LIG    1       11.663  -1.790   5.793  0.00  0.00    +0.021 A 
ATOM     16  C   LIG    1       11.379  -0.465   6.109  0.00  0.00    +0.003 A 
ATOM     17  C   LIG    1       10.173   0.089   5.695  0.00  0.00    +0.021 A 
ATOM     18  C   LIG    1        9.274  -0.667   4.930  0.00  0.00    +0.056 A 
ATOM     19 CL   LIG    1        7.723   0.051   4.635  0.00  0.00    -0.082 Cl
ENDBRANCH  11  12
ENDBRANCH   1  11
BRANCH   1  20
ATOM     20  C   LIG    1        9.357  -0.883   1.394  0.00  0.00    +0.137 C 
BRANCH  20  21
ATOM     21  N   LIG    1       10.044  -0.441   0.187  0.00  0.00    -0.336 N 
ATOM     22  C   LIG    1       10.290   0.877  -0.114  0.00  0.00    +0.199 A 
ATOM     23  N   LIG    1       10.906   1.014  -1.269  0.00  0.00    -0.244 NA
ATOM     24  C   LIG    1       11.104  -0.258  -1.707  0.00  0.00    +0.130 A 
ATOM     25  C   LIG    1       10.616  -1.168  -0.816  0.00  0.00    +0.107 A 
ENDBRANCH  20  21
ENDBRANCH   1  20
TORSDOF 7
