REMARK  Name = *****
REMARK                            x       y       z     vdW  Elec       q    Type
REMARK                         _______ _______ _______ _____ _____    ______ ____
ROOT
ATOM      1  C   LIG    1        4.735  -0.455  -0.521  0.00  0.00    +0.143 A 
ATOM      2  C   LIG    1        5.454  -1.655  -0.519  0.00  0.00    +0.075 A 
ATOM      3  C   LIG    1        4.943  -2.899   0.069  0.00  0.00    +0.202 C 
ATOM      4  C   LIG    1        5.453  -4.171  -0.470  0.00  0.00    +0.075 A 
ATOM      5  C   LIG    1        6.770  -4.216  -0.911  0.00  0.00    +0.037 A 
ATOM      6  C   LIG    1        7.532  -2.950  -1.009  0.00  0.00    +0.195 C 
ATOM      7  O   LIG    1        8.744  -2.962  -1.175  0.00  0.00    -0.287 OA
ATOM      8  C   LIG    1        7.347  -5.448  -1.242  0.00  0.00    +0.027 A 
ATOM      9  C   LIG    1        6.574  -6.624  -1.191  0.00  0.00    +0.063 A 
ATOM     10  C   LIG    1        5.223  -6.561  -0.822  0.00  0.00    +0.062 A 
ATOM     11  C   LIG    1        4.676  -5.334  -0.458  0.00  0.00    +0.144 A 
ATOM     12  O   LIG    1        4.220  -2.878   1.057  0.00  0.00    -0.286 OA
ATOM     13  C   LIG    1        6.778  -1.670  -0.970  0.00  0.00    +0.037 A 
ATOM     14  C   LIG    1        7.401  -0.477  -1.358  0.00  0.00    +0.012 A 
ATOM     15  C   LIG    1        6.677   0.718  -1.360  0.00  0.00    +0.004 A 
ATOM     16  C   LIG    1        5.340   0.726  -0.961  0.00  0.00    +0.047 A 
ENDROOT
BRANCH   9  17
ATOM     17  C   LIG    1        7.255  -7.924  -1.435  0.00  0.00    +0.337 C 
ATOM     18  O   LIG    1        8.430  -8.082  -1.219  0.00  0.00    -0.245 OA
BRANCH  17  19
ATOM     19  O   LIG    1        6.456  -8.899  -1.919  0.00  0.00    -0.477 OA
ATOM     20  H   LIG    1        5.549  -8.649  -2.179  0.00  0.00    +0.295 HD
ENDBRANCH  17  19
ENDBRANCH   9  17
BRANCH   1  21
ATOM     21  O   LIG    1        3.471  -0.273   0.083  0.00  0.00    -0.425 OA
BRANCH  21  23
ATOM     22  C   LIG    1        1.393  -0.847   1.020  0.00  0.00    +0.136 C 
ATOM     23  C   LIG    1        2.400  -1.158  -0.055  0.00  0.00    +0.309 C 
ATOM     24  O   LIG    1        2.285  -2.027  -0.909  0.00  0.00    -0.251 OA
ENDBRANCH  21  23
ENDBRANCH   1  21
BRANCH  11  25
ATOM     25  O   LIG    1        3.333  -5.170  -0.060  0.00  0.00    -0.425 OA
BRANCH  25  26
ATOM     26  C   LIG    1        2.263  -6.011  -0.342  0.00  0.00    +0.309 C 
ATOM     27  O   LIG    1        2.323  -7.136  -0.814  0.00  0.00    -0.251 OA
ATOM     28  C   LIG    1        1.010  -5.266   0.005  0.00  0.00    +0.136 C 
ENDBRANCH  25  26
ENDBRANCH  11  25
TORSDOF 6
