REMARK  Name = *****
REMARK                            x       y       z     vdW  Elec       q    Type
REMARK                         _______ _______ _______ _____ _____    ______ ____
ROOT
ATOM      1  N   LIG    1        5.228   1.857   2.225  0.00  0.00    -0.236 NA
ATOM      2  H   LIG    1        5.163   1.345   1.334  0.00  0.00    +0.145 HD
ENDROOT
BRANCH   1   4
ATOM      3  C   LIG    1        4.329   3.586   0.736  0.00  0.00    +0.246 C 
ATOM      4  N   LIG    1        4.739   3.156   1.991  0.00  0.00    -0.249 N 
ATOM      5  H   LIG    1        4.742   3.857   2.739  0.00  0.00    +0.169 HD
ATOM      6  O   LIG    1        4.356   2.891  -0.281  0.00  0.00    -0.273 OA
BRANCH   3   7
ATOM      7  CA  LIG    1        3.728   4.999   0.807  0.00  0.00    +0.165 C 
BRANCH   7   8
ATOM      8  N   LIG    1        4.440   5.815   1.837  0.00  0.00    -0.318 NA
ATOM      9  H1  LIG    1        5.409   5.930   1.526  0.00  0.00    +0.119 HD
ATOM     10  H2  LIG    1        4.056   6.764   1.765  0.00  0.00    +0.119 HD
ENDBRANCH   7   8
BRANCH   7  11
ATOM     11  C   LIG    1        3.720   5.717  -0.545  0.00  0.00    +0.183 C 
BRANCH  11  12
ATOM     12  O   LIG    1        3.060   6.982  -0.410  0.00  0.00    -0.393 OA
ATOM     13  H   LIG    1        2.116   6.800  -0.254  0.00  0.00    +0.209 HD
ENDBRANCH  11  12
ENDBRANCH   7  11
ENDBRANCH   3   7
ENDBRANCH   1   4
BRANCH   1  14
ATOM     14  C   LIG    1        6.650   1.866   2.620  0.00  0.00    +0.140 C 
BRANCH  14  15
ATOM     15  C   LIG    1        6.985   2.620   3.894  0.00  0.00    +0.013 A 
ATOM     16  C   LIG    1        8.279   3.118   4.080  0.00  0.00    +0.167 A 
ATOM     17  C   LIG    1        8.645   3.745   5.267  0.00  0.00    +0.201 A 
ATOM     18  C   LIG    1        7.721   3.921   6.287  0.00  0.00    +0.162 A 
ATOM     19  C   LIG    1        6.427   3.437   6.141  0.00  0.00    +0.050 A 
ATOM     20  C   LIG    1        6.071   2.770   4.957  0.00  0.00    +0.012 A 
BRANCH  16  21
ATOM     21  O   LIG    1        9.221   2.993   3.094  0.00  0.00    -0.503 OA
ATOM     22  H   LIG    1       10.015   3.435   3.459  0.00  0.00    +0.292 HD
ENDBRANCH  16  21
BRANCH  17  23
ATOM     23  O   LIG    1        9.937   4.176   5.416  0.00  0.00    -0.501 OA
ATOM     24  H   LIG    1        9.974   4.499   6.340  0.00  0.00    +0.292 HD
ENDBRANCH  17  23
BRANCH  18  25
ATOM     25  O   LIG    1        8.136   4.574   7.414  0.00  0.00    -0.503 OA
ATOM     26  H   LIG    1        7.352   4.761   7.960  0.00  0.00    +0.292 HD
ENDBRANCH  18  25
ENDBRANCH  14  15
ENDBRANCH   1  14
TORSDOF 10
