REMARK  Name = *****
REMARK                            x       y       z     vdW  Elec       q    Type
REMARK                         _______ _______ _______ _____ _____    ______ ____
ROOT
ATOM      1  C   LIG    1        1.003  -0.654  -0.496  0.00  0.00    +0.044 C 
ATOM      2  C   LIG    1        2.476  -0.411  -0.276  0.00  0.00    -0.046 A 
ATOM      3  C   LIG    1        3.019   0.887  -0.123  0.00  0.00    -0.030 A 
ATOM      4  C   LIG    1        4.415   1.017   0.062  0.00  0.00    -0.046 A 
ATOM      5  C   LIG    1        5.087   2.355   0.245  0.00  0.00    +0.044 C 
ATOM      6  C   LIG    1        5.229  -0.132   0.091  0.00  0.00    +0.007 A 
ATOM      7  C   LIG    1        4.714  -1.427  -0.047  0.00  0.00    -0.042 A 
ATOM      8  C   LIG    1        3.325  -1.538  -0.219  0.00  0.00    +0.007 A 
ENDROOT
BRANCH   7   9
ATOM      9  C   LIG    1        5.614  -2.678  -0.025  0.00  0.00    -0.013 C 
ATOM     10  C   LIG    1        5.207  -3.610   1.136  0.00  0.00    +0.015 C 
ATOM     11  C   LIG    1        7.115  -2.349   0.160  0.00  0.00    +0.015 C 
ATOM     12  C   LIG    1        5.483  -3.457  -1.351  0.00  0.00    +0.015 C 
ENDBRANCH   7   9
BRANCH   3  13
ATOM     13  C   LIG    1        2.131   2.123  -0.130  0.00  0.00    +0.163 C 
BRANCH  13  14
ATOM     14  C   LIG    1        1.586   2.543   1.217  0.00  0.00    +0.285 C 
ATOM     15  N   LIG    1        1.895   1.917   2.399  0.00  0.00    -0.234 N 
ATOM     16  H   LIG    1        2.227   0.954   2.366  0.00  0.00    +0.291 HD
ATOM     17  C   LIG    1        0.889   2.283   3.361  0.00  0.00    +0.272 C 
ATOM     18  C   LIG    1        0.422   3.613   2.766  0.00  0.00    +0.333 C 
ATOM     19  N   LIG    1        0.736   3.544   1.309  0.00  0.00    -0.084 NA
ENDBRANCH  13  14
ENDBRANCH   3  13
TORSDOF 3
