REMARK  Name = *****
REMARK                            x       y       z     vdW  Elec       q    Type
REMARK                         _______ _______ _______ _____ _____    ______ ____
ROOT
ATOM      1  N   LIG    1       11.947  -3.550   6.544  0.00  0.00    +0.239 N 
ATOM      2  C   LIG    1       10.852  -4.615   6.867  0.00  0.00    +0.192 C 
ATOM      3  C   LIG    1       12.708  -3.469   7.808  0.00  0.00    +0.192 C 
ENDROOT
BRANCH   1   4
ATOM      4  C   LIG    1       11.187  -2.198   6.249  0.00  0.00    +0.132 C 
BRANCH   4   5
ATOM      5  C   LIG    1       11.952  -0.881   5.999  0.00  0.00    +0.051 C 
BRANCH   5   6
ATOM      6  C   LIG    1       12.816  -0.185   7.065  0.00  0.00    +0.005 C 
BRANCH   6   7
ATOM      7  C   LIG    1       12.242   0.410   8.371  0.00  0.00    +0.000 C 
BRANCH   7   8
ATOM      8  C   LIG    1       11.666  -0.527   9.438  0.00  0.00    -0.000 C 
BRANCH   8   9
ATOM      9  C   LIG    1       12.641  -1.560   9.999  0.00  0.00    -0.000 C 
BRANCH   9  10
ATOM     10  C   LIG    1       13.941  -1.392  10.737  0.00  0.00    -0.000 C 
BRANCH  10  11
ATOM     11  C   LIG    1       13.949  -0.930  12.176  0.00  0.00    -0.000 C 
BRANCH  11  13
ATOM     12  C   LIG    1       13.832  -3.175  13.427  0.00  0.00    +0.004 C 
ATOM     13  C   LIG    1       13.229  -1.791  13.213  0.00  0.00    -0.003 C 
ENDBRANCH  11  13
ENDBRANCH  10  11
ENDBRANCH   9  10
ENDBRANCH   8   9
ENDBRANCH   7   8
ENDBRANCH   6   7
ENDBRANCH   5   6
ENDBRANCH   4   5
ENDBRANCH   1   4
BRANCH   1  14
ATOM     14  C   LIG    1       12.887  -4.021   5.423  0.00  0.00    +0.132 C 
BRANCH  14  15
ATOM     15  C   LIG    1       13.715  -5.243   5.894  0.00  0.00    +0.051 C 
BRANCH  15  16
ATOM     16  C   LIG    1       14.598  -5.905   4.857  0.00  0.00    +0.005 C 
BRANCH  16  17
ATOM     17  C   LIG    1       15.633  -5.033   4.132  0.00  0.00    +0.000 C 
BRANCH  17  18
ATOM     18  C   LIG    1       16.906  -4.547   4.862  0.00  0.00    -0.000 C 
BRANCH  18  19
ATOM     19  C   LIG    1       16.922  -3.442   5.969  0.00  0.00    -0.000 C 
BRANCH  19  20
ATOM     20  C   LIG    1       16.474  -1.958   5.732  0.00  0.00    -0.000 C 
BRANCH  20  21
ATOM     21  C   LIG    1       16.632  -1.052   7.027  0.00  0.00    -0.000 C 
BRANCH  21  22
ATOM     22  C   LIG    1       16.273   0.459   6.892  0.00  0.00    -0.003 C 
ATOM     23  C   LIG    1       16.428   1.314   8.169  0.00  0.00    +0.004 C 
ENDBRANCH  21  22
ENDBRANCH  20  21
ENDBRANCH  19  20
ENDBRANCH  18  19
ENDBRANCH  17  18
ENDBRANCH  16  17
ENDBRANCH  15  16
ENDBRANCH  14  15
ENDBRANCH   1  14
TORSDOF 18
