REMARK  Name = *****
REMARK                            x       y       z     vdW  Elec       q    Type
REMARK                         _______ _______ _______ _____ _____    ______ ____
ROOT
ATOM      1  C   LIG    1        0.118  -1.365  -0.984  0.00  0.00    +0.105 C 
ATOM      2  N   LIG    1        1.338  -0.596  -1.131  0.00  0.00    -0.301 NA
ATOM      3  C   LIG    1        1.210   0.721  -1.784  0.00  0.00    +0.069 C 
ATOM      4  C   LIG    1        2.588   1.450  -1.761  0.00  0.00    +0.043 C 
ATOM      5  C   LIG    1        2.811   1.827  -0.285  0.00  0.00    +0.048 C 
ATOM      6  C   LIG    1        4.137   2.508   0.082  0.00  0.00    +0.217 C 
ATOM      7  O   LIG    1        3.953   3.962   0.053  0.00  0.00    -0.481 OA
ATOM      8  C   LIG    1        2.595   4.166   0.074  0.00  0.00    +0.167 A 
ATOM      9  C   LIG    1        1.919   5.369   0.120  0.00  0.00    +0.162 A 
ATOM     10  C   LIG    1        0.521   5.322  -0.065  0.00  0.00    +0.050 A 
ATOM     11  C   LIG    1       -0.152   4.129  -0.416  0.00  0.00    +0.008 A 
ATOM     12  C   LIG    1        0.566   2.945  -0.532  0.00  0.00    -0.038 A 
ATOM     13  C   LIG    1        5.318   2.062  -0.818  0.00  0.00    +0.178 C 
ATOM     14  C   LIG    1        5.023   1.034  -1.879  0.00  0.00    +0.004 C 
ATOM     15  C   LIG    1        1.897   2.989  -0.143  0.00  0.00    +0.012 A 
ATOM     16  C   LIG    1        2.445   0.691   0.711  0.00  0.00    +0.031 C 
ATOM     17  C   LIG    1        3.783   0.738  -2.321  0.00  0.00    -0.023 C 
ATOM     18  C   LIG    1        0.065   1.687  -1.223  0.00  0.00    +0.055 C 
ATOM     19  C   LIG    1        2.218  -0.656   0.030  0.00  0.00    +0.085 C 
ENDROOT
BRANCH  13  20
ATOM     20  O   LIG    1        6.351   1.505   0.005  0.00  0.00    -0.384 OA
ATOM     21  H   LIG    1        5.992   0.706   0.425  0.00  0.00    +0.210 HD
ENDBRANCH  13  20
BRANCH   9  22
ATOM     22  O   LIG    1        2.422   6.625   0.299  0.00  0.00    -0.487 OA
BRANCH  22  23
ATOM     23  C   LIG    1        3.844   6.833   0.234  0.00  0.00    +0.244 C 
BRANCH  23  24
ATOM     24  C   LIG    1        4.082   8.347   0.488  0.00  0.00    +0.125 C 
BRANCH  24  25
ATOM     25  N   LIG    1        5.473   8.847   0.415  0.00  0.00    -0.295 NA
ATOM     26  C   LIG    1        5.531  10.325   0.605  0.00  0.00    +0.112 C 
ATOM     27  C   LIG    1        5.272  10.788   2.052  0.00  0.00    +0.175 C 
ATOM     28  O   LIG    1        6.173  10.156   2.969  0.00  0.00    -0.377 OA
ATOM     29  C   LIG    1        6.073   8.730   2.873  0.00  0.00    +0.175 C 
ATOM     30  C   LIG    1        6.354   8.243   1.439  0.00  0.00    +0.112 C 
ENDBRANCH  24  25
ENDBRANCH  23  24
ENDBRANCH  22  23
ENDBRANCH   9  22
TORSDOF 5
