REMARK  Name = *****
REMARK                            x       y       z     vdW  Elec       q    Type
REMARK                         _______ _______ _______ _____ _____    ______ ____
ROOT
ATOM      1  C   LIG    1       21.604  13.338   4.846  0.00  0.00    +0.240 C 
ENDROOT
BRANCH   1   2
ATOM      2  C   LIG    1       22.171  14.741   4.544  0.00  0.00    +0.220 C 
BRANCH   2   3
ATOM      3  O   LIG    1       21.396  15.508   3.639  0.00  0.00    -0.283 OA
BRANCH   3   4
ATOM      4  P   LIG    1       21.926  16.980   3.243  0.00  0.00    +0.475 P 
ATOM      5  O   LIG    1       22.357  17.145   1.823  0.00  0.00    -0.227 OA
BRANCH   4   6
ATOM      6  O   LIG    1       20.617  17.848   3.557  0.00  0.00    -0.302 OA
ATOM      7  H   LIG    1       19.994  17.783   2.807  0.00  0.00    +0.222 HD
ENDBRANCH   4   6
BRANCH   4   8
ATOM      8  O   LIG    1       22.985  17.433   4.383  0.00  0.00    -0.284 OA
BRANCH   8   9
ATOM      9  C   LIG    1       23.800  18.594   4.160  0.00  0.00    +0.205 C 
BRANCH   9  10
ATOM     10  C   LIG    1       24.731  18.898   5.366  0.00  0.00    +0.166 C 
BRANCH  10  11
ATOM     11  O   LIG    1       23.960  19.087   6.559  0.00  0.00    -0.387 OA
ATOM     12  H   LIG    1       23.960  18.246   7.053  0.00  0.00    +0.210 HD
ENDBRANCH  10  11
BRANCH  10  13
ATOM     13  C   LIG    1       25.780  17.799   5.592  0.00  0.00    +0.189 C 
BRANCH  13  14
ATOM     14  O   LIG    1       25.157  16.558   5.915  0.00  0.00    -0.392 OA
ATOM     15  H   LIG    1       24.242  16.595   5.574  0.00  0.00    +0.209 HD
ENDBRANCH  13  14
ENDBRANCH  10  13
ENDBRANCH   9  10
ENDBRANCH   8   9
ENDBRANCH   4   8
ENDBRANCH   3   4
ENDBRANCH   2   3
ENDBRANCH   1   2
BRANCH   1  16
ATOM     16  O   LIG    1       21.787  12.506   3.649  0.00  0.00    -0.456 OA
BRANCH  16  17
ATOM     17  C   LIG    1       23.097  12.183   3.331  0.00  0.00    +0.307 C 
ATOM     18  O   LIG    1       24.029  12.331   4.113  0.00  0.00    -0.251 OA
BRANCH  17  19
ATOM     19  C   LIG    1       23.285  11.626   1.897  0.00  0.00    +0.120 C 
BRANCH  19  20
ATOM     20  C   LIG    1       24.194  12.431   0.925  0.00  0.00    +0.011 C 
BRANCH  20  21
ATOM     21  C   LIG    1       24.459  11.821  -0.492  0.00  0.00    +0.000 C 
BRANCH  21  22
ATOM     22  C   LIG    1       25.106  10.417  -0.654  0.00  0.00    +0.000 C 
BRANCH  22  23
ATOM     23  C   LIG    1       26.549  10.257  -0.106  0.00  0.00    +0.000 C 
BRANCH  23  24
ATOM     24  C   LIG    1       27.155   8.836  -0.327  0.00  0.00    +0.004 C 
BRANCH  24  25
ATOM     25  C   LIG    1       28.572   8.606   0.266  0.00  0.00    +0.027 C 
BRANCH  25  27
ATOM     26  C   LIG    1       28.686   6.155  -0.586  0.00  0.00    -0.031 C 
ATOM     27  C   LIG    1       29.200   7.222   0.061  0.00  0.00    -0.031 C 
BRANCH  26  28
ATOM     28  C   LIG    1       29.443   4.862  -0.860  0.00  0.00    +0.027 C 
BRANCH  28  29
ATOM     29  C   LIG    1       28.570   3.603  -1.002  0.00  0.00    +0.004 C 
BRANCH  29  30
ATOM     30  C   LIG    1       29.361   2.293  -1.228  0.00  0.00    +0.000 C 
BRANCH  30  31
ATOM     31  C   LIG    1       29.993   1.986  -2.595  0.00  0.00    +0.000 C 
BRANCH  31  32
ATOM     32  C   LIG    1       31.250   2.729  -3.062  0.00  0.00    -0.000 C 
BRANCH  32  33
ATOM     33  C   LIG    1       32.471   2.766  -2.136  0.00  0.00    -0.000 C 
BRANCH  33  35
ATOM     34  C   LIG    1       34.144   3.020  -4.076  0.00  0.00    +0.004 C 
ATOM     35  C   LIG    1       33.626   3.580  -2.755  0.00  0.00    -0.003 C 
ENDBRANCH  33  35
ENDBRANCH  32  33
ENDBRANCH  31  32
ENDBRANCH  30  31
ENDBRANCH  29  30
ENDBRANCH  28  29
ENDBRANCH  26  28
ENDBRANCH  25  27
ENDBRANCH  24  25
ENDBRANCH  23  24
ENDBRANCH  22  23
ENDBRANCH  21  22
ENDBRANCH  20  21
ENDBRANCH  19  20
ENDBRANCH  17  19
ENDBRANCH  16  17
ENDBRANCH   1  16
BRANCH   1  36
ATOM     36  C   LIG    1       20.167  13.379   5.482  0.00  0.00    +0.279 C 
BRANCH  36  37
ATOM     37  O   LIG    1       19.110  14.029   4.729  0.00  0.00    -0.461 OA
BRANCH  37  38
ATOM     38  C   LIG    1       18.534  13.412   3.685  0.00  0.00    +0.307 C 
ATOM     39  O   LIG    1       18.973  12.319   3.182  0.00  0.00    -0.251 OA
BRANCH  38  40
ATOM     40  C   LIG    1       17.348  14.162   3.155  0.00  0.00    +0.120 C 
BRANCH  40  41
ATOM     41  C   LIG    1       16.290  13.345   2.383  0.00  0.00    +0.011 C 
BRANCH  41  42
ATOM     42  C   LIG    1       15.058  14.156   1.856  0.00  0.00    +0.000 C 
BRANCH  42  43
ATOM     43  C   LIG    1       14.158  14.819   2.942  0.00  0.00    +0.000 C 
BRANCH  43  44
ATOM     44  C   LIG    1       12.886  15.599   2.432  0.00  0.00    -0.000 C 
BRANCH  44  45
ATOM     45  C   LIG    1       12.088  16.300   3.579  0.00  0.00    -0.000 C 
BRANCH  45  46
ATOM     46  C   LIG    1       10.771  17.095   3.248  0.00  0.00    -0.000 C 
BRANCH  46  47
ATOM     47  C   LIG    1       10.912  18.409   2.427  0.00  0.00    -0.000 C 
BRANCH  47  48
ATOM     48  C   LIG    1        9.588  19.194   2.186  0.00  0.00    -0.000 C 
BRANCH  48  49
ATOM     49  C   LIG    1        9.707  20.479   1.311  0.00  0.00    -0.000 C 
BRANCH  49  50
ATOM     50  C   LIG    1       10.650  21.611   1.792  0.00  0.00    -0.000 C 
BRANCH  50  51
ATOM     51  C   LIG    1       10.214  22.210   3.130  0.00  0.00    -0.000 C 
BRANCH  51  52
ATOM     52  C   LIG    1       11.088  23.322   3.739  0.00  0.00    -0.000 C 
BRANCH  52  53
ATOM     53  C   LIG    1       10.970  24.788   3.282  0.00  0.00    -0.003 C 
ATOM     54  C   LIG    1       11.658  25.269   2.009  0.00  0.00    +0.004 C 
ENDBRANCH  52  53
ENDBRANCH  51  52
ENDBRANCH  50  51
ENDBRANCH  49  50
ENDBRANCH  48  49
ENDBRANCH  47  48
ENDBRANCH  46  47
ENDBRANCH  45  46
ENDBRANCH  44  45
ENDBRANCH  43  44
ENDBRANCH  42  43
ENDBRANCH  41  42
ENDBRANCH  40  41
ENDBRANCH  38  40
ENDBRANCH  37  38
ENDBRANCH  36  37
ENDBRANCH   1  36
TORSDOF 44
