REMARK  Name = *****
REMARK                            x       y       z     vdW  Elec       q    Type
REMARK                         _______ _______ _______ _____ _____    ______ ____
ROOT
ATOM      1  C   LIG    1        7.164   0.983   5.167  0.00  0.00    +0.113 C 
ENDROOT
BRANCH   1   2
ATOM      2  C   LIG    1        7.555  -0.500   5.143  0.00  0.00    +0.233 C 
BRANCH   2   3
ATOM      3  N   LIG    1        6.757  -1.293   4.201  0.00  0.00    -0.233 N 
ATOM      4  H   LIG    1        6.125  -0.753   3.614  0.00  0.00    +0.291 HD
BRANCH   3   5
ATOM      5  C   LIG    1        7.255  -2.409   3.535  0.00  0.00    +0.326 C 
ATOM      6  C   LIG    1        7.672  -3.441   4.283  0.00  0.00    +0.474 C 
BRANCH   5   8
ATOM      7  C   LIG    1        7.329  -1.313   1.233  0.00  0.00    +0.273 C 
ATOM      8  N   LIG    1        7.229  -2.424   2.150  0.00  0.00    -0.236 N 
ATOM      9  H   LIG    1        7.631  -3.284   1.760  0.00  0.00    +0.291 HD
ENDBRANCH   5   8
BRANCH   6  10
ATOM     10  N   LIG    1        8.133  -4.700   3.747  0.00  0.00    +0.080 N 
ATOM     11  O   LIG    1        8.449  -5.551   4.565  0.00  0.00    -0.576 OA
ATOM     12  O   LIG    1        8.191  -4.854   2.502  0.00  0.00    +0.041 OA
ENDBRANCH   6  10
ENDBRANCH   3   5
ENDBRANCH   2   3
ENDBRANCH   1   2
BRANCH   1  13
ATOM     13  S   LIG    1        7.414   1.835   3.566  0.00  0.00    -0.149 S 
BRANCH  13  14
ATOM     14  C   LIG    1        9.208   1.581   3.325  0.00  0.00    +0.143 C 
BRANCH  14  15
ATOM     15  C   LIG    1       10.072   2.328   4.275  0.00  0.00    +0.115 A 
ATOM     16  O   LIG    1       11.319   1.809   4.500  0.00  0.00    -0.462 OA
ATOM     17  C   LIG    1       12.003   2.713   5.266  0.00  0.00    +0.119 A 
ATOM     18  C   LIG    1       11.203   3.809   5.518  0.00  0.00    +0.046 A 
ATOM     19  C   LIG    1        9.941   3.525   4.948  0.00  0.00    +0.046 A 
BRANCH  17  20
ATOM     20  C   LIG    1       13.381   2.330   5.713  0.00  0.00    +0.158 C 
BRANCH  20  21
ATOM     21  N   LIG    1       13.464   2.240   7.188  0.00  0.00    -0.301 NA
ATOM     22  C   LIG    1       14.834   1.967   7.627  0.00  0.00    +0.105 C 
ATOM     23  C   LIG    1       12.572   1.189   7.689  0.00  0.00    +0.105 C 
ENDBRANCH  20  21
ENDBRANCH  17  20
ENDBRANCH  14  15
ENDBRANCH  13  14
ENDBRANCH   1  13
TORSDOF 10
