REMARK  Name = *****
REMARK                            x       y       z     vdW  Elec       q    Type
REMARK                         _______ _______ _______ _____ _____    ______ ____
ROOT
ATOM      1  C   LIG    1        1.648   0.286   0.577  0.00  0.00    +0.105 C 
ATOM      2  N   LIG    1        3.027   0.173   0.105  0.00  0.00    -0.305 NA
ATOM      3  C   LIG    1        3.364  -1.202  -0.295  0.00  0.00    +0.088 C 
ATOM      4  C   LIG    1        2.714  -1.675  -1.607  0.00  0.00    +0.047 C 
ATOM      5  C   LIG    1        2.969  -0.713  -2.764  0.00  0.00    -0.056 C 
ATOM      6  C   LIG    1        3.424  -1.089  -3.990  0.00  0.00    +0.024 C 
ATOM      7  C   LIG    1        3.696  -2.521  -4.276  0.00  0.00    -0.011 A 
ATOM      8  C   LIG    1        5.022  -2.932  -4.491  0.00  0.00    -0.038 A 
ATOM      9  C   LIG    1        5.293  -4.279  -4.762  0.00  0.00    +0.004 A 
ATOM     10  C   LIG    1        4.250  -5.204  -4.836  0.00  0.00    +0.000 A 
ATOM     11  C   LIG    1        2.932  -4.791  -4.650  0.00  0.00    +0.001 A 
ATOM     12  C   LIG    1        6.122  -1.903  -4.470  0.00  0.00    +0.057 C 
ATOM     13  C   LIG    1        6.002  -0.930  -5.645  0.00  0.00    +0.128 C 
ATOM     14  N   LIG    1        4.824  -0.076  -5.743  0.00  0.00    -0.321 N 
ATOM     15  C   LIG    1        4.705   0.943  -6.679  0.00  0.00    +0.101 A 
ATOM     16  C   LIG    1        3.471   1.500  -6.432  0.00  0.00    +0.142 A 
ATOM     17  N   LIG    1        2.836   0.857  -5.412  0.00  0.00    -0.235 NA
ATOM     18  C   LIG    1        2.654  -3.452  -4.378  0.00  0.00    +0.009 A 
ATOM     19  C   LIG    1        3.651  -0.102  -5.005  0.00  0.00    +0.142 A 
ATOM     20  C   LIG    1        2.661   0.724  -2.350  0.00  0.00    +0.047 C 
ATOM     21  C   LIG    1        3.307   1.099  -1.004  0.00  0.00    +0.088 C 
ENDROOT
BRANCH  15  22
ATOM     22  C   LIG    1        5.655   1.325  -7.691  0.00  0.00    +0.278 C 
ATOM     23  O   LIG    1        6.742   0.787  -7.881  0.00  0.00    -0.294 OA
ENDBRANCH  15  22
TORSDOF 1
