REMARK  Name = *****
REMARK                            x       y       z     vdW  Elec       q    Type
REMARK                         _______ _______ _______ _____ _____    ______ ____
ROOT
ATOM      1  C   LIG    1        4.340   0.391   1.191  0.00  0.00    +0.098 C 
ATOM      2  C   LIG    1        5.273   0.809   2.057  0.00  0.00    +0.098 C 
ENDROOT
BRANCH   1   3
ATOM      3  C   LIG    1        2.920   0.695   1.442  0.00  0.00    +0.332 C 
ATOM      4  O   LIG    1        2.468   1.113   2.495  0.00  0.00    -0.246 OA
BRANCH   3   6
ATOM      5  C   LIG    1        0.813   0.608   0.431  0.00  0.00    +0.280 C 
ATOM      6  O   LIG    1        2.226   0.437   0.306  0.00  0.00    -0.465 OA
ENDBRANCH   3   6
ENDBRANCH   1   3
BRANCH   2   7
ATOM      7  C   LIG    1        6.696   0.546   1.775  0.00  0.00    +0.332 C 
ATOM      8  O   LIG    1        7.120  -0.231   0.942  0.00  0.00    -0.246 OA
BRANCH   7   9
ATOM      9  O   LIG    1        7.428   1.347   2.595  0.00  0.00    -0.465 OA
ATOM     10  C   LIG    1        8.841   1.211   2.438  0.00  0.00    +0.280 C 
ENDBRANCH   7   9
ENDBRANCH   2   7
TORSDOF 4
