REMARK  Name = *****
REMARK                            x       y       z     vdW  Elec       q    Type
REMARK                         _______ _______ _______ _____ _____    ______ ____
ROOT
ATOM      1  C   LIG    1        4.728  -0.229   1.251  0.00  0.00    +0.020 C 
ATOM      2  C   LIG    1        5.449  -0.220   0.015  0.00  0.00    +0.060 C 
ATOM      3  C   LIG    1        6.858  -0.354   0.060  0.00  0.00    +0.046 C 
ATOM      4  C   LIG    1        7.648  -0.167  -1.172  0.00  0.00    +0.190 C 
ATOM      5  C   LIG    1        6.998   0.566  -2.264  0.00  0.00    +0.084 C 
ATOM      6  C   LIG    1        5.660   0.636  -2.252  0.00  0.00    +0.131 C 
ATOM      7  O   LIG    1        8.808  -0.544  -1.264  0.00  0.00    -0.287 OA
ATOM      8  C   LIG    1        7.551  -0.574   1.247  0.00  0.00    +0.029 C 
ATOM      9  C   LIG    1        6.853  -0.570   2.445  0.00  0.00    +0.065 C 
ATOM     10  C   LIG    1        7.604  -0.720   3.699  0.00  0.00    +0.193 C 
ATOM     11  O   LIG    1        8.820  -0.858   3.725  0.00  0.00    -0.287 OA
ATOM     12  C   LIG    1        6.829  -0.689   4.936  0.00  0.00    +0.105 C 
ATOM     13  C   LIG    1        5.508  -0.486   4.859  0.00  0.00    +0.215 C 
ATOM     14  O   LIG    1        4.791  -0.291   3.679  0.00  0.00    -0.448 OA
ATOM     15  N   LIG    1        4.834   0.013  -1.276  0.00  0.00    -0.335 NA
ATOM     16  C   LIG    1        5.465  -0.375   2.469  0.00  0.00    +0.145 C 
ENDROOT
BRANCH   6  17
ATOM     17  C   LIG    1        5.052   1.302  -3.455  0.00  0.00    +0.354 C 
ATOM     18  O   LIG    1        5.665   1.620  -4.462  0.00  0.00    -0.243 OA
BRANCH  17  19
ATOM     19  O   LIG    1        3.724   1.488  -3.312  0.00  0.00    -0.476 OA
ATOM     20  H   LIG    1        3.453   1.252  -2.405  0.00  0.00    +0.295 HD
ENDBRANCH  17  19
ENDBRANCH   6  17
BRANCH  13  21
ATOM     21  C   LIG    1        4.780  -0.470   6.158  0.00  0.00    +0.373 C 
ATOM     22  O   LIG    1        5.236  -0.896   7.216  0.00  0.00    -0.242 OA
BRANCH  21  23
ATOM     23  O   LIG    1        3.557   0.079   6.050  0.00  0.00    -0.475 OA
ATOM     24  H   LIG    1        3.363   0.410   5.148  0.00  0.00    +0.295 HD
ENDBRANCH  21  23
ENDBRANCH  13  21
BRANCH  15  25
ATOM     25  C   LIG    1        4.070  -1.202  -1.736  0.00  0.00    +0.119 C 
ATOM     26  C   LIG    1        4.783  -1.990  -2.840  0.00  0.00    +0.027 C 
ENDBRANCH  15  25
BRANCH   1  27
ATOM     27  C   LIG    1        3.219  -0.049   1.317  0.00  0.00    +0.041 C 
BRANCH  27  29
ATOM     28  C   LIG    1        2.997   2.269   0.213  0.00  0.00    +0.004 C 
ATOM     29  C   LIG    1        2.705   1.393   1.419  0.00  0.00    +0.001 C 
ENDBRANCH  27  29
ENDBRANCH   1  27
TORSDOF 7
