REMARK  Name = *****
REMARK                            x       y       z     vdW  Elec       q    Type
REMARK                         _______ _______ _______ _____ _____    ______ ____
ROOT
ATOM      1  C   LIG    1        2.363   1.339   1.200  0.00  0.00    +0.105 C 
ATOM      2  N   LIG    1        2.842  -0.025   0.950  0.00  0.00    -0.297 NA
ENDROOT
BRANCH   2   3
ATOM      3  C   LIG    1        2.221  -0.559  -0.289  0.00  0.00    +0.120 C 
BRANCH   3   4
ATOM      4  C   LIG    1        2.734  -1.930  -0.742  0.00  0.00    -0.026 A 
ATOM      5  C   LIG    1        4.110  -2.192  -1.020  0.00  0.00    -0.013 A 
ATOM      6  C   LIG    1        4.505  -3.522  -1.325  0.00  0.00    -0.018 A 
ATOM      7  C   LIG    1        5.864  -3.843  -1.480  0.00  0.00    +0.008 A 
ATOM      8  C   LIG    1        6.849  -2.870  -1.346  0.00  0.00    +0.001 A 
ATOM      9  C   LIG    1        6.480  -1.551  -1.125  0.00  0.00    +0.001 A 
ATOM     10  C   LIG    1        3.543  -4.530  -1.459  0.00  0.00    +0.008 A 
ATOM     11  C   LIG    1        2.198  -4.263  -1.232  0.00  0.00    +0.001 A 
ATOM     12  C   LIG    1        5.130  -1.213  -0.989  0.00  0.00    +0.009 A 
ATOM     13  C   LIG    1        1.800  -2.983  -0.851  0.00  0.00    +0.005 A 
ENDBRANCH   3   4
ENDBRANCH   2   3
BRANCH   2  14
ATOM     14  C   LIG    1        2.602  -0.921   2.086  0.00  0.00    +0.112 C 
BRANCH  14  15
ATOM     15  C   LIG    1        3.354  -0.564   3.341  0.00  0.00    -0.003 C 
ATOM     16  C   LIG    1        4.573  -1.051   3.631  0.00  0.00    +0.057 C 
BRANCH  16  17
ATOM     17  C   LIG    1        5.189  -0.853   4.896  0.00  0.00    -0.074 C 
ATOM     18  C   LIG    1        5.758  -0.839   5.948  0.00  0.00    -0.092 C 
BRANCH  18  19
ATOM     19  C   LIG    1        6.495  -0.949   7.224  0.00  0.00    +0.024 C 
ATOM     20  C   LIG    1        7.795  -1.732   6.979  0.00  0.00    +0.024 C 
ATOM     21  C   LIG    1        5.623  -1.702   8.238  0.00  0.00    +0.024 C 
ATOM     22  C   LIG    1        6.819   0.456   7.744  0.00  0.00    +0.024 C 
ENDBRANCH  18  19
ENDBRANCH  16  17
ENDBRANCH  14  15
ENDBRANCH   2  14
TORSDOF 6
