REMARK  Name = *****
REMARK                            x       y       z     vdW  Elec       q    Type
REMARK                         _______ _______ _______ _____ _____    ______ ____
ROOT
ATOM      1  C   LIG    1        0.974   0.217   0.174  0.00  0.00    +0.105 C 
ATOM      2  N   LIG    1        2.429   0.170   0.042  0.00  0.00    -0.305 NA
ATOM      3  C   LIG    1        2.914  -1.184  -0.259  0.00  0.00    +0.088 C 
ATOM      4  C   LIG    1        2.592  -1.681  -1.677  0.00  0.00    +0.047 C 
ATOM      5  C   LIG    1        3.057  -0.712  -2.760  0.00  0.00    -0.059 C 
ATOM      6  C   LIG    1        3.783  -1.075  -3.857  0.00  0.00    -0.010 C 
ATOM      7  C   LIG    1        4.237  -0.006  -4.798  0.00  0.00    -0.014 A 
ATOM      8  C   LIG    1        5.611   0.275  -4.924  0.00  0.00    -0.032 A 
ATOM      9  C   LIG    1        6.029   1.304  -5.782  0.00  0.00    +0.005 A 
ATOM     10  C   LIG    1        5.095   2.043  -6.509  0.00  0.00    +0.000 A 
ATOM     11  C   LIG    1        3.739   1.746  -6.408  0.00  0.00    +0.001 A 
ATOM     12  C   LIG    1        6.631  -0.522  -4.148  0.00  0.00    +0.115 C 
ATOM     13  C   LIG    1        6.711  -1.981  -4.570  0.00  0.00    +0.174 C 
ATOM     14  O   LIG    1        7.789  -2.422  -4.975  0.00  0.00    -0.291 OA
ATOM     15  C   LIG    1        5.509  -2.802  -4.417  0.00  0.00    +0.063 A 
ATOM     16  S   LIG    1        5.656  -4.505  -4.616  0.00  0.00    -0.093 S 
ATOM     17  C   LIG    1        3.994  -4.758  -4.340  0.00  0.00    +0.046 A 
ATOM     18  C   LIG    1        3.324  -3.576  -4.131  0.00  0.00    +0.017 A 
ATOM     19  C   LIG    1        3.311   0.716  -5.569  0.00  0.00    +0.009 A 
ATOM     20  C   LIG    1        4.204  -2.443  -4.109  0.00  0.00    +0.000 A 
ATOM     21  C   LIG    1        2.623   0.717  -2.428  0.00  0.00    +0.047 C 
ATOM     22  C   LIG    1        2.925   1.112  -0.972  0.00  0.00    +0.088 C 
ENDROOT
TORSDOF 0
