REMARK  Name = *****
REMARK                            x       y       z     vdW  Elec       q    Type
REMARK                         _______ _______ _______ _____ _____    ______ ____
ROOT
ATOM      1  C   LIG    1        7.458  -0.911  -1.158  0.00  0.00    +0.163 C 
ATOM      2  C   LIG    1        8.757  -1.728  -1.002  0.00  0.00    +0.234 C 
ATOM      3  O   LIG    1        9.039  -2.275   0.073  0.00  0.00    -0.274 OA
ATOM      4  N   LIG    1        9.706  -1.825  -1.984  0.00  0.00    -0.302 N 
ATOM      5  H   LIG    1       10.466  -2.393  -1.631  0.00  0.00    +0.149 HD
ATOM      6  C   LIG    1       10.158  -0.800  -2.953  0.00  0.00    +0.162 C 
ATOM      7  C   LIG    1       10.671   0.330  -2.047  0.00  0.00    +0.234 C 
ATOM      8  O   LIG    1       10.000   1.304  -1.726  0.00  0.00    -0.274 OA
ATOM      9  N   LIG    1       11.838   0.105  -1.337  0.00  0.00    -0.300 N 
ATOM     10  H   LIG    1       11.766   0.644  -0.488  0.00  0.00    +0.150 HD
ATOM     11  C   LIG    1       13.142   0.325  -1.980  0.00  0.00    +0.187 C 
ATOM     12  C   LIG    1       13.063   1.540  -2.920  0.00  0.00    +0.236 C 
ATOM     13  O   LIG    1       13.050   1.391  -4.146  0.00  0.00    -0.274 OA
ATOM     14  N   LIG    1       12.894   2.809  -2.479  0.00  0.00    -0.302 N 
ATOM     15  H   LIG    1       12.856   3.411  -3.296  0.00  0.00    +0.149 HD
ATOM     16  C   LIG    1       12.720   3.556  -1.214  0.00  0.00    +0.168 C 
ATOM     17  C   LIG    1       13.747   4.698  -1.298  0.00  0.00    +0.234 C 
ATOM     18  O   LIG    1       14.902   4.522  -1.681  0.00  0.00    -0.274 OA
ATOM     19  N   LIG    1       13.406   5.896  -0.741  0.00  0.00    -0.302 N 
ATOM     20  H   LIG    1       14.248   6.467  -0.636  0.00  0.00    +0.149 HD
ATOM     21  C   LIG    1       12.264   6.719  -1.228  0.00  0.00    +0.170 C 
ATOM     22  C   LIG    1       11.076   6.656  -0.257  0.00  0.00    +0.112 C 
ATOM     23  S   LIG    1        9.470   6.625  -1.157  0.00  0.00    -0.091 S 
ATOM     24  S   LIG    1        8.252   5.441   0.026  0.00  0.00    -0.093 S 
ATOM     25  C   LIG    1        8.110   3.874  -0.931  0.00  0.00    +0.090 C 
ATOM     26  C   LIG    1        7.464   2.766  -0.098  0.00  0.00    +0.107 C 
ATOM     27  C   LIG    1        7.166   1.549  -0.956  0.00  0.00    +0.214 C 
ATOM     28  O   LIG    1        6.529   1.621  -2.005  0.00  0.00    -0.276 OA
ATOM     29  N   LIG    1        7.607   0.352  -0.435  0.00  0.00    -0.304 N 
ATOM     30  H   LIG    1        8.192   0.355   0.391  0.00  0.00    +0.149 HD
ENDROOT
BRANCH  21  31
ATOM     31  C   LIG    1       12.932   8.116  -1.323  0.00  0.00    +0.237 C 
ATOM     32  N   LIG    1       12.571   9.042  -2.271  0.00  0.00    -0.288 N 
ATOM     33  C   LIG    1       13.581  10.032  -2.689  0.00  0.00    +0.162 C 
ATOM     34  C   LIG    1       12.922  10.784  -3.844  0.00  0.00    +0.033 C 
ATOM     35  C   LIG    1       12.036   9.726  -4.477  0.00  0.00    +0.021 C 
ATOM     36  C   LIG    1       11.530   8.922  -3.283  0.00  0.00    +0.109 C 
ATOM     37  O   LIG    1       13.869   8.378  -0.554  0.00  0.00    -0.274 OA
BRANCH  33  38
ATOM     38  C   LIG    1       14.089  11.058  -1.666  0.00  0.00    +0.234 C 
ATOM     39  N   LIG    1       13.329  11.231  -0.534  0.00  0.00    -0.302 N 
ATOM     40  H   LIG    1       12.664  10.494  -0.335  0.00  0.00    +0.149 HD
ATOM     41  O   LIG    1       15.088  11.737  -1.916  0.00  0.00    -0.274 OA
BRANCH  39  42
ATOM     42  C   LIG    1       13.725  12.111   0.590  0.00  0.00    +0.159 C 
BRANCH  42  43
ATOM     43  C   LIG    1       15.066  11.653   1.213  0.00  0.00    +0.234 C 
ATOM     44  N   LIG    1       16.161  11.842   0.437  0.00  0.00    -0.305 N 
ATOM     45  H   LIG    1       15.990  12.049  -0.556  0.00  0.00    +0.149 HD
ATOM     46  O   LIG    1       15.169  11.167   2.366  0.00  0.00    -0.274 OA
BRANCH  44  47
ATOM     47  C   LIG    1       17.525  11.511   0.793  0.00  0.00    +0.200 C 
BRANCH  47  48
ATOM     48  C   LIG    1       18.488  12.392  -0.005  0.00  0.00    +0.228 C 
ATOM     49  O   LIG    1       18.236  13.540  -0.374  0.00  0.00    -0.274 OA
ATOM     50  N   LIG    1       19.705  11.845  -0.293  0.00  0.00    -0.328 N 
ATOM     51  H   LIG    1       20.362  12.424  -0.801  0.00  0.00    +0.145 HD
ATOM     52  H   LIG    1       20.014  10.951   0.060  0.00  0.00    +0.145 HD
ENDBRANCH  47  48
ENDBRANCH  44  47
ENDBRANCH  42  43
BRANCH  42  53
ATOM     53  C   LIG    1       12.546  12.160   1.600  0.00  0.00    +0.033 C 
BRANCH  53  54
ATOM     54  C   LIG    1       12.807  13.025   2.845  0.00  0.00    +0.017 C 
BRANCH  54  55
ATOM     55  C   LIG    1       11.661  12.964   3.858  0.00  0.00    +0.078 C 
BRANCH  55  56
ATOM     56  N   LIG    1       11.434  11.600   4.324  0.00  0.00    -0.330 NA
ATOM     57  H   LIG    1       10.710  11.592   5.040  0.00  0.00    +0.118 HD
ATOM     58  H   LIG    1       12.284  11.247   4.765  0.00  0.00    +0.118 HD
ENDBRANCH  55  56
ENDBRANCH  54  55
ENDBRANCH  53  54
ENDBRANCH  42  53
ENDBRANCH  39  42
ENDBRANCH  33  38
ENDBRANCH  21  31
BRANCH  11  59
ATOM     59  C   LIG    1       13.752  -0.922  -2.663  0.00  0.00    +0.141 C 
ATOM     60  C   LIG    1       13.779  -2.129  -1.726  0.00  0.00    +0.040 C 
BRANCH  59  61
ATOM     61  O   LIG    1       15.113  -0.674  -3.045  0.00  0.00    -0.390 OA
ATOM     62  H   LIG    1       15.651  -0.511  -2.253  0.00  0.00    +0.210 HD
ENDBRANCH  59  61
ENDBRANCH  11  59
BRANCH   6  63
ATOM     63  C   LIG    1        9.157  -0.392  -4.060  0.00  0.00    +0.015 C 
ATOM     64  C   LIG    1        8.723  -1.643  -4.842  0.00  0.00    +0.010 C 
BRANCH  63  65
ATOM     65  C   LIG    1        9.767   0.648  -5.031  0.00  0.00    +0.002 C 
ATOM     66  C   LIG    1        8.787   1.138  -6.096  0.00  0.00    +0.004 C 
ENDBRANCH  63  65
ENDBRANCH   6  63
BRANCH  16  67
ATOM     67  C   LIG    1       13.000   2.902   0.149  0.00  0.00    +0.127 C 
BRANCH  67  68
ATOM     68  C   LIG    1       11.750   2.538   0.893  0.00  0.00    +0.213 C 
ATOM     69  O   LIG    1       10.699   3.141   0.828  0.00  0.00    -0.276 OA
ATOM     70  N   LIG    1       11.881   1.441   1.701  0.00  0.00    -0.329 N 
ATOM     71  H   LIG    1       11.075   1.248   2.290  0.00  0.00    +0.145 HD
ATOM     72  H   LIG    1       12.776   1.192   2.099  0.00  0.00    +0.145 HD
ENDBRANCH  67  68
ENDBRANCH  16  67
BRANCH   1  73
ATOM     73  C   LIG    1        6.266  -1.702  -0.586  0.00  0.00    +0.067 C 
BRANCH  73  77
ATOM     74  C   LIG    1        5.431  -4.915  -3.333  0.00  0.00    +0.120 A 
ATOM     75  C   LIG    1        4.766  -3.694  -3.477  0.00  0.00    +0.046 A 
ATOM     76  C   LIG    1        5.000  -2.656  -2.565  0.00  0.00    +0.007 A 
ATOM     77  C   LIG    1        5.894  -2.839  -1.502  0.00  0.00    -0.045 A 
ATOM     78  C   LIG    1        6.516  -4.073  -1.337  0.00  0.00    +0.007 A 
ATOM     79  C   LIG    1        6.276  -5.098  -2.238  0.00  0.00    +0.046 A 
BRANCH  74  80
ATOM     80  O   LIG    1        5.216  -5.865  -4.300  0.00  0.00    -0.492 OA
BRANCH  80  82
ATOM     81  C   LIG    1        5.138  -8.059  -3.273  0.00  0.00    +0.048 C 
ATOM     82  C   LIG    1        5.933  -7.099  -4.145  0.00  0.00    +0.226 C 
ENDBRANCH  80  82
ENDBRANCH  74  80
ENDBRANCH  73  77
ENDBRANCH   1  73
TORSDOF 20
