REMARK  Name = *****
REMARK                            x       y       z     vdW  Elec       q    Type
REMARK                         _______ _______ _______ _____ _____    ______ ____
ROOT
ATOM      1  C   LIG    1        2.401  -1.216  -1.518  0.00  0.00    +0.015 A 
ATOM      2  C   LIG    1        1.732  -0.085  -2.013  0.00  0.00    +0.043 A 
ATOM      3  C   LIG    1        0.338  -0.040  -1.869  0.00  0.00    +0.067 A 
ATOM      4  C   LIG    1       -0.402  -1.064  -1.288  0.00  0.00    +0.027 A 
ATOM      5  C   LIG    1       -1.750  -0.587  -1.273  0.00  0.00    +0.093 A 
ATOM      6  N   LIG    1       -1.841   0.624  -1.846  0.00  0.00    -0.173 NA
ATOM      7  C   LIG    1        0.277  -2.223  -0.863  0.00  0.00    +0.013 A 
ATOM      8  N   LIG    1       -0.582   0.916  -2.204  0.00  0.00    -0.276 N 
ATOM      9  H   LIG    1       -0.412   1.805  -2.659  0.00  0.00    +0.189 HD
ATOM     10  C   LIG    1        1.675  -2.286  -0.984  0.00  0.00    +0.016 A 
ENDROOT
BRANCH   5  11
ATOM     11  C   LIG    1       -2.861  -1.287  -0.694  0.00  0.00    +0.032 C 
ATOM     12  C   LIG    1       -4.124  -0.826  -0.669  0.00  0.00    +0.030 C 
BRANCH  12  13
ATOM     13  C   LIG    1       -5.255  -1.534  -0.059  0.00  0.00    +0.064 A 
ATOM     14  N   LIG    1       -5.010  -2.733   0.523  0.00  0.00    -0.256 NA
ATOM     15  C   LIG    1       -6.059  -3.376   1.084  0.00  0.00    +0.111 A 
ATOM     16  C   LIG    1       -7.352  -2.882   1.094  0.00  0.00    +0.020 A 
ATOM     17  C   LIG    1       -7.587  -1.652   0.494  0.00  0.00    +0.004 A 
ATOM     18  C   LIG    1       -6.526  -0.966  -0.091  0.00  0.00    +0.028 A 
ENDBRANCH  12  13
ENDBRANCH   5  11
BRANCH   1  19
ATOM     19  S   LIG    1        4.194  -1.266  -1.595  0.00  0.00    -0.089 S 
BRANCH  19  21
ATOM     20  C   LIG    1        5.464  -2.277   0.749  0.00  0.00    +0.050 A 
ATOM     21  C   LIG    1        4.654  -1.292   0.146  0.00  0.00    +0.025 A 
ATOM     22  C   LIG    1        4.222  -0.209   0.941  0.00  0.00    +0.016 A 
ATOM     23  C   LIG    1        4.508  -0.145   2.308  0.00  0.00    +0.001 A 
ATOM     24  C   LIG    1        5.248  -1.152   2.910  0.00  0.00    +0.001 A 
ATOM     25  C   LIG    1        5.737  -2.198   2.131  0.00  0.00    +0.014 A 
BRANCH  20  29
ATOM     26  C   LIG    1        6.110  -5.094  -1.722  0.00  0.00    +0.128 C 
ATOM     27  N   LIG    1        5.523  -3.969  -1.043  0.00  0.00    -0.314 N 
ATOM     28  H   LIG    1        4.705  -3.521  -1.438  0.00  0.00    +0.149 HD
ATOM     29  C   LIG    1        6.130  -3.422   0.059  0.00  0.00    +0.245 C 
ATOM     30  O   LIG    1        7.182  -3.875   0.517  0.00  0.00    -0.270 OA
ENDBRANCH  20  29
ENDBRANCH  19  21
ENDBRANCH   1  19
TORSDOF 5
