REMARK  Name = *****
REMARK                            x       y       z     vdW  Elec       q    Type
REMARK                         _______ _______ _______ _____ _____    ______ ____
ROOT
ATOM      1  C   LIG    1        3.167  -1.015   1.118  0.00  0.00    -0.030 A 
ATOM      2  C   LIG    1        2.491  -2.249   0.973  0.00  0.00    +0.050 A 
ATOM      3  C   LIG    1        3.170  -3.472   1.127  0.00  0.00    +0.129 A 
ATOM      4  C   LIG    1        4.508  -3.480   1.516  0.00  0.00    +0.046 A 
ATOM      5  C   LIG    1        5.194  -2.275   1.639  0.00  0.00    +0.004 A 
ATOM      6  C   LIG    1        4.534  -1.059   1.435  0.00  0.00    +0.005 A 
ENDROOT
BRANCH   1   8
ATOM      7  C   LIG    1        3.313   1.386   0.227  0.00  0.00    +0.024 C 
ATOM      8  C   LIG    1        2.438   0.320   0.920  0.00  0.00    +0.124 C 
BRANCH   8   9
ATOM      9  C   LIG    1        1.853   0.960   2.188  0.00  0.00    +0.312 C 
ATOM     10  O   LIG    1        1.719   2.162   2.337  0.00  0.00    -0.250 OA
BRANCH   9  11
ATOM     11  O   LIG    1        1.400   0.099   3.127  0.00  0.00    -0.480 OA
ATOM     12  H   LIG    1        1.558  -0.842   2.943  0.00  0.00    +0.295 HD
ENDBRANCH   9  11
ENDBRANCH   8   9
ENDBRANCH   1   8
BRANCH   3  13
ATOM     13  O   LIG    1        2.446  -4.633   0.950  0.00  0.00    -0.456 OA
BRANCH  13  14
ATOM     14  C   LIG    1        3.005  -5.672   0.226  0.00  0.00    +0.128 A 
ATOM     15  C   LIG    1        2.634  -6.966   0.606  0.00  0.00    +0.046 A 
ATOM     16  C   LIG    1        3.121  -8.078  -0.089  0.00  0.00    +0.004 A 
ATOM     17  C   LIG    1        3.968  -7.902  -1.182  0.00  0.00    +0.000 A 
ATOM     18  C   LIG    1        4.319  -6.613  -1.584  0.00  0.00    +0.004 A 
ATOM     19  C   LIG    1        3.833  -5.499  -0.889  0.00  0.00    +0.046 A 
ENDBRANCH  13  14
ENDBRANCH   3  13
TORSDOF 5
