REMARK  Name = *****
REMARK                            x       y       z     vdW  Elec       q    Type
REMARK                         _______ _______ _______ _____ _____    ______ ____
ROOT
ATOM      1  O   LIG    1        1.102   0.060   0.173  0.00  0.00    -0.619 OA
ATOM      2  N   LIG    1        2.369  -0.003   0.046  0.00  0.00    -0.165 NA
ATOM      3  C   LIG    1        3.069  -1.216  -0.033  0.00  0.00    +0.251 C 
ATOM      4  C   LIG    1        4.469  -1.203  -0.171  0.00  0.00    +0.087 C 
ATOM      5  C   LIG    1        5.164   0.004  -0.234  0.00  0.00    +0.013 C 
ATOM      6  C   LIG    1        4.474   1.205  -0.157  0.00  0.00    +0.071 C 
ATOM      7  C   LIG    1        3.089   1.185  -0.018  0.00  0.00    +0.323 C 
ENDROOT
BRANCH   3   8
ATOM      8  S   LIG    1        2.203  -2.781   0.051  0.00  0.00    -0.073 S 
ATOM      9  H   LIG    1        3.240  -3.577  -0.238  0.00  0.00    +0.113 HD
ENDBRANCH   3   8
TORSDOF 1
