REMARK  Name = *****
REMARK                            x       y       z     vdW  Elec       q    Type
REMARK                         _______ _______ _______ _____ _____    ______ ____
ROOT
ATOM      1  C   LIG    1       -6.512   1.818  -3.547  0.00  0.00    +0.242 C 
ATOM      2  C   LIG    1       -5.999   2.541  -4.876  0.00  0.00    +0.199 C 
ATOM      3  N   LIG    1       -6.406   1.355  -5.626  0.00  0.00    -0.244 N 
ATOM      4  C   LIG    1       -6.201   1.165  -6.958  0.00  0.00    +0.123 C 
ATOM      5  C   LIG    1       -5.261   1.912  -7.605  0.00  0.00    -0.021 C 
ATOM      6  C   LIG    1       -4.393   2.968  -6.926  0.00  0.00    +0.104 C 
ATOM      7  S   LIG    1       -4.218   2.755  -5.120  0.00  0.00    -0.129 S 
ATOM      8  C   LIG    1       -7.117   0.800  -4.626  0.00  0.00    +0.275 C 
ATOM      9  O   LIG    1       -7.906  -0.121  -4.662  0.00  0.00    -0.270 OA
ENDROOT
BRANCH   1  10
ATOM     10  N   LIG    1       -5.453   1.296  -2.604  0.00  0.00    -0.276 N 
ATOM     11  H   LIG    1       -5.080   1.931  -1.911  0.00  0.00    +0.152 HD
ATOM     12  C   LIG    1       -4.917   0.009  -2.641  0.00  0.00    +0.239 C 
ATOM     13  O   LIG    1       -5.261  -0.777  -3.525  0.00  0.00    -0.274 OA
BRANCH  12  14
ATOM     14  C   LIG    1       -3.863  -0.299  -1.486  0.00  0.00    +0.200 C 
ATOM     15  S   LIG    1       -2.200   0.409  -1.801  0.00  0.00    -0.093 S 
ATOM     16  C   LIG    1       -2.189  -1.118  -2.672  0.00  0.00    +0.063 C 
ATOM     17  C   LIG    1       -1.608  -1.494  -3.836  0.00  0.00    +0.140 C 
ATOM     18  S   LIG    1       -3.158  -1.986  -1.498  0.00  0.00    -0.093 S 
BRANCH  17  19
ATOM     19  C   LIG    1       -0.803  -0.532  -4.638  0.00  0.00    +0.250 C 
ATOM     20  O   LIG    1       -0.609  -0.739  -5.836  0.00  0.00    -0.270 OA
ATOM     21  N   LIG    1       -0.239   0.551  -4.048  0.00  0.00    -0.325 N 
ATOM     22  H   LIG    1        0.308   1.185  -4.618  0.00  0.00    +0.145 HD
ATOM     23  H   LIG    1       -0.375   0.789  -3.073  0.00  0.00    +0.145 HD
ENDBRANCH  17  19
BRANCH  17  24
ATOM     24  C   LIG    1       -1.830  -2.880  -4.342  0.00  0.00    +0.344 C 
ATOM     25  O   LIG    1       -2.173  -3.832  -3.658  0.00  0.00    -0.245 OA
BRANCH  24  26
ATOM     26  O   LIG    1       -1.596  -3.040  -5.668  0.00  0.00    -0.477 OA
ATOM     27  H   LIG    1       -1.267  -2.233  -6.133  0.00  0.00    +0.295 HD
ENDBRANCH  24  26
ENDBRANCH  17  24
ENDBRANCH  12  14
ENDBRANCH   1  10
BRANCH   1  29
ATOM     28  C   LIG    1       -7.425   3.379  -1.839  0.00  0.00    +0.197 C 
ATOM     29  O   LIG    1       -7.640   2.443  -2.870  0.00  0.00    -0.349 OA
ENDBRANCH   1  29
BRANCH   4  30
ATOM     30  C   LIG    1       -6.968   0.079  -7.701  0.00  0.00    +0.351 C 
ATOM     31  O   LIG    1       -7.114   0.068  -8.915  0.00  0.00    -0.244 OA
BRANCH  30  32
ATOM     32  O   LIG    1       -7.481  -0.931  -6.979  0.00  0.00    -0.476 OA
ATOM     33  H   LIG    1       -7.564  -0.814  -6.007  0.00  0.00    +0.295 HD
ENDBRANCH  30  32
ENDBRANCH   4  30
BRANCH   5  34
ATOM     34  C   LIG    1       -4.921   1.789  -9.089  0.00  0.00    +0.111 C 
BRANCH  34  35
ATOM     35  S   LIG    1       -3.582   0.577  -9.302  0.00  0.00    -0.080 S 
BRANCH  35  36
ATOM     36  C   LIG    1       -3.387   0.656 -11.014  0.00  0.00    +0.209 A 
ATOM     37  N   LIG    1       -2.970  -0.391 -11.780  0.00  0.00    -0.223 N 
ATOM     38  C   LIG    1       -2.637  -1.732 -11.391  0.00  0.00    +0.177 C 
ATOM     39  N   LIG    1       -2.924  -0.011 -13.070  0.00  0.00    -0.043 NA
ATOM     40  N   LIG    1       -3.309   1.260 -13.070  0.00  0.00    -0.022 NA
ATOM     41  N   LIG    1       -3.597   1.690 -11.795  0.00  0.00    -0.102 NA
ENDBRANCH  35  36
ENDBRANCH  34  35
ENDBRANCH   5  34
TORSDOF 11
