REMARK  Name = *****
REMARK                            x       y       z     vdW  Elec       q    Type
REMARK                         _______ _______ _______ _____ _____    ______ ____
ROOT
ATOM      1  C   LIG    1        4.830 -23.290  -3.577  0.00  0.00    -0.027 C 
ATOM      2  C   LIG    1        5.560 -24.526  -3.378  0.00  0.00    -0.076 C 
ATOM      3  C   LIG    1        6.902 -24.331  -3.087  0.00  0.00    +0.038 C 
ENDROOT
BRANCH   2   4
ATOM      4  C   LIG    1        5.212 -25.940  -3.442  0.00  0.00    +0.034 C 
BRANCH   4   5
ATOM      5  C   LIG    1        4.320 -26.267  -2.278  0.00  0.00    +0.031 C 
BRANCH   5   6
ATOM      6  C   LIG    1        3.849 -27.684  -2.276  0.00  0.00    -0.027 C 
ATOM      7  C   LIG    1        2.620 -28.019  -1.850  0.00  0.00    -0.076 C 
ATOM      8  C   LIG    1        1.697 -26.943  -1.325  0.00  0.00    +0.038 C 
BRANCH   7   9
ATOM      9  C   LIG    1        2.093 -29.436  -1.807  0.00  0.00    +0.034 C 
BRANCH   9  10
ATOM     10  C   LIG    1        2.651 -30.424  -2.860  0.00  0.00    +0.031 C 
BRANCH  10  11
ATOM     11  C   LIG    1        1.999 -31.765  -2.703  0.00  0.00    -0.027 C 
ATOM     12  C   LIG    1        2.466 -33.001  -2.971  0.00  0.00    -0.076 C 
ATOM     13  C   LIG    1        3.794 -33.255  -3.631  0.00  0.00    +0.038 C 
BRANCH  12  14
ATOM     14  C   LIG    1        1.715 -34.269  -2.581  0.00  0.00    +0.034 C 
BRANCH  14  15
ATOM     15  C   LIG    1        0.174 -34.219  -2.436  0.00  0.00    +0.031 C 
BRANCH  15  16
ATOM     16  C   LIG    1       -0.401 -33.267  -1.409  0.00  0.00    -0.027 C 
ATOM     17  C   LIG    1       -0.097 -33.175  -0.097  0.00  0.00    -0.076 C 
ATOM     18  C   LIG    1        0.821 -34.124   0.621  0.00  0.00    +0.038 C 
BRANCH  17  19
ATOM     19  C   LIG    1       -0.558 -31.980   0.729  0.00  0.00    +0.034 C 
BRANCH  19  20
ATOM     20  C   LIG    1       -1.523 -32.289   1.897  0.00  0.00    +0.031 C 
BRANCH  20  21
ATOM     21  C   LIG    1       -1.884 -31.034   2.659  0.00  0.00    -0.027 C 
ATOM     22  C   LIG    1       -3.020 -30.707   3.313  0.00  0.00    -0.076 C 
ATOM     23  C   LIG    1       -3.104 -29.322   3.885  0.00  0.00    +0.038 C 
BRANCH  22  24
ATOM     24  C   LIG    1       -4.253 -31.590   3.499  0.00  0.00    +0.034 C 
BRANCH  24  25
ATOM     25  C   LIG    1       -5.071 -31.457   4.830  0.00  0.00    +0.031 C 
BRANCH  25  26
ATOM     26  C   LIG    1       -5.703 -30.113   5.165  0.00  0.00    -0.027 C 
ATOM     27  C   LIG    1       -6.828 -29.824   5.839  0.00  0.00    -0.076 C 
ATOM     28  C   LIG    1       -7.657 -30.932   6.401  0.00  0.00    +0.038 C 
BRANCH  27  29
ATOM     29  C   LIG    1       -7.208 -28.358   6.106  0.00  0.00    +0.034 C 
BRANCH  29  30
ATOM     30  C   LIG    1       -8.562 -27.956   5.484  0.00  0.00    +0.031 C 
BRANCH  30  31
ATOM     31  C   LIG    1       -9.006 -26.527   5.745  0.00  0.00    -0.028 C 
ATOM     32  C   LIG    1      -10.279 -26.075   5.827  0.00  0.00    -0.080 C 
ATOM     33  C   LIG    1      -10.587 -24.628   6.129  0.00  0.00    +0.038 C 
ATOM     34  C   LIG    1      -11.519 -26.907   5.638  0.00  0.00    +0.038 C 
ENDBRANCH  30  31
ENDBRANCH  29  30
ENDBRANCH  27  29
ENDBRANCH  25  26
ENDBRANCH  24  25
ENDBRANCH  22  24
ENDBRANCH  20  21
ENDBRANCH  19  20
ENDBRANCH  17  19
ENDBRANCH  15  16
ENDBRANCH  14  15
ENDBRANCH  12  14
ENDBRANCH  10  11
ENDBRANCH   9  10
ENDBRANCH   7   9
ENDBRANCH   5   6
ENDBRANCH   4   5
ENDBRANCH   2   4
BRANCH   1  35
ATOM     35  C   LIG    1        3.457 -23.217  -3.902  0.00  0.00    +0.031 C 
BRANCH  35  36
ATOM     36  C   LIG    1        2.999 -23.984  -5.173  0.00  0.00    +0.034 C 
BRANCH  36  38
ATOM     37  C   LIG    1        2.890 -22.974  -7.473  0.00  0.00    -0.027 C 
ATOM     38  C   LIG    1        3.626 -23.551  -6.492  0.00  0.00    -0.076 C 
ATOM     39  C   LIG    1        5.087 -23.714  -6.600  0.00  0.00    +0.038 C 
BRANCH  37  40
ATOM     40  C   LIG    1        3.460 -22.457  -8.775  0.00  0.00    +0.031 C 
BRANCH  40  41
ATOM     41  C   LIG    1        3.098 -20.994  -9.075  0.00  0.00    +0.034 C 
BRANCH  41  43
ATOM     42  C   LIG    1        2.883 -19.388  -7.138  0.00  0.00    -0.027 C 
ATOM     43  C   LIG    1        3.597 -19.835  -8.201  0.00  0.00    -0.076 C 
ATOM     44  C   LIG    1        4.810 -19.147  -8.763  0.00  0.00    +0.038 C 
BRANCH  42  45
ATOM     45  C   LIG    1        2.985 -18.116  -6.257  0.00  0.00    +0.031 C 
BRANCH  45  46
ATOM     46  C   LIG    1        4.298 -17.302  -5.912  0.00  0.00    +0.034 C 
BRANCH  46  48
ATOM     47  C   LIG    1        6.503 -17.598  -4.558  0.00  0.00    -0.023 C 
ATOM     48  C   LIG    1        5.314 -18.062  -5.046  0.00  0.00    -0.076 C 
ATOM     49  C   LIG    1        4.987 -19.502  -5.045  0.00  0.00    +0.038 C 
BRANCH  47  50
ATOM     50  C   LIG    1        7.834 -18.281  -4.026  0.00  0.00    +0.066 C 
BRANCH  50  54
ATOM     51  C   LIG    1        9.023 -22.596  -4.031  0.00  0.00    +0.207 A 
ATOM     52  C   LIG    1        9.599 -21.697  -3.155  0.00  0.00    +0.207 A 
ATOM     53  C   LIG    1        9.275 -20.308  -3.252  0.00  0.00    +0.166 A 
ATOM     54  C   LIG    1        8.269 -19.786  -4.120  0.00  0.00    +0.008 A 
ATOM     55  C   LIG    1        7.863 -20.713  -5.093  0.00  0.00    +0.002 A 
ATOM     56  C   LIG    1        7.093 -20.371  -6.317  0.00  0.00    +0.048 C 
ATOM     57  C   LIG    1        8.158 -22.080  -4.980  0.00  0.00    +0.166 A 
BRANCH  57  58
ATOM     58  O   LIG    1        7.588 -22.895  -5.914  0.00  0.00    -0.503 OA
ATOM     59  H   LIG    1        7.180 -23.642  -5.441  0.00  0.00    +0.292 HD
ENDBRANCH  57  58
BRANCH  52  60
ATOM     60  O   LIG    1       10.560 -22.299  -2.407  0.00  0.00    -0.488 OA
ATOM     61  C   LIG    1       10.969 -21.725  -1.198  0.00  0.00    +0.277 C 
ENDBRANCH  52  60
BRANCH  53  62
ATOM     62  O   LIG    1       10.144 -19.402  -2.680  0.00  0.00    -0.503 OA
ATOM     63  H   LIG    1       10.391 -18.793  -3.402  0.00  0.00    +0.292 HD
ENDBRANCH  53  62
BRANCH  51  65
ATOM     64  C   LIG    1        9.520 -24.770  -3.008  0.00  0.00    +0.277 C 
ATOM     65  O   LIG    1        9.391 -23.921  -4.167  0.00  0.00    -0.488 OA
ENDBRANCH  51  65
ENDBRANCH  50  54
ENDBRANCH  47  50
ENDBRANCH  46  48
ENDBRANCH  45  46
ENDBRANCH  42  45
ENDBRANCH  41  43
ENDBRANCH  40  41
ENDBRANCH  37  40
ENDBRANCH  36  38
ENDBRANCH  35  36
ENDBRANCH   1  35
TORSDOF 33
