REMARK  Name = *****
REMARK                            x       y       z     vdW  Elec       q    Type
REMARK                         _______ _______ _______ _____ _____    ______ ____
ROOT
ATOM      1  C   LIG    1        3.728   4.675   6.393  0.00  0.00    +0.162 A 
ATOM      2  C   LIG    1        3.141   5.073   5.204  0.00  0.00    +0.167 A 
ATOM      3  O   LIG    1        2.405   6.234   5.004  0.00  0.00    -0.484 OA
ATOM      4  C   LIG    1        2.422   6.314   3.575  0.00  0.00    +0.191 C 
ATOM      5  C   LIG    1        2.296   4.881   2.997  0.00  0.00    +0.056 C 
ATOM      6  C   LIG    1        0.915   4.187   3.035  0.00  0.00    +0.035 C 
ATOM      7  C   LIG    1        0.896   2.769   2.409  0.00  0.00    +0.086 C 
ATOM      8  N   LIG    1        1.665   1.706   3.088  0.00  0.00    -0.301 NA
ATOM      9  C   LIG    1        3.125   1.925   3.088  0.00  0.00    +0.119 C 
ATOM     10  C   LIG    1        3.526   2.917   4.150  0.00  0.00    -0.025 A 
ATOM     11  C   LIG    1        4.145   2.506   5.339  0.00  0.00    +0.009 A 
ATOM     12  C   LIG    1        1.364   0.413   2.464  0.00  0.00    +0.105 C 
ATOM     13  C   LIG    1        2.777   5.013   1.575  0.00  0.00    -0.013 C 
ATOM     14  C   LIG    1        2.454   6.109   0.857  0.00  0.00    +0.001 C 
ATOM     15  C   LIG    1        1.692   7.296   1.411  0.00  0.00    +0.141 C 
ATOM     16  C   LIG    1        1.419   7.259   2.933  0.00  0.00    +0.081 C 
ATOM     17  C   LIG    1        3.116   4.240   4.069  0.00  0.00    +0.016 A 
ATOM     18  C   LIG    1        4.264   3.383   6.433  0.00  0.00    +0.050 A 
ENDROOT
BRANCH   1  20
ATOM     19  C   LIG    1        3.378   6.712   7.564  0.00  0.00    +0.277 C 
ATOM     20  O   LIG    1        3.841   5.370   7.561  0.00  0.00    -0.491 OA
ENDBRANCH   1  20
BRANCH  15  21
ATOM     21  O   LIG    1        2.496   8.435   1.117  0.00  0.00    -0.388 OA
ATOM     22  H   LIG    1        1.987   9.224   1.368  0.00  0.00    +0.210 HD
ENDBRANCH  15  21
TORSDOF 2
