REMARK  Name = *****
REMARK                            x       y       z     vdW  Elec       q    Type
REMARK                         _______ _______ _______ _____ _____    ______ ____
ROOT
ATOM      1  C   LIG    1        7.424  -2.607  -2.165  0.00  0.00    +0.009 A 
ATOM      2  C   LIG    1        8.338  -3.493  -2.745  0.00  0.00    +0.125 A 
ATOM      3  C   LIG    1        9.677  -3.138  -2.884  0.00  0.00    +0.092 A 
ATOM      4  C   LIG    1       10.104  -1.868  -2.490  0.00  0.00    +0.140 A 
ATOM      5  O   LIG    1       11.420  -1.600  -2.731  0.00  0.00    -0.455 OA
ATOM      6  C   LIG    1       11.957  -0.467  -2.187  0.00  0.00    +0.140 A 
ATOM      7  C   LIG    1       11.240   0.496  -1.477  0.00  0.00    +0.048 A 
ATOM      8  C   LIG    1        9.722   0.440  -1.520  0.00  0.00    +0.196 C 
ATOM      9  C   LIG    1        9.201   1.557  -2.367  0.00  0.00    +0.019 A 
ATOM     10  C   LIG    1        8.449   2.417  -1.585  0.00  0.00    +0.067 A 
ATOM     11  C   LIG    1        7.830   3.560  -2.087  0.00  0.00    +0.015 A 
ATOM     12  C   LIG    1        8.006   3.852  -3.437  0.00  0.00    +0.001 A 
ATOM     13  C   LIG    1        8.787   3.011  -4.246  0.00  0.00    +0.001 A 
ATOM     14  C   LIG    1        8.408   1.876  -0.253  0.00  0.00    +0.341 C 
ATOM     15  O   LIG    1        7.791   2.369   0.733  0.00  0.00    -0.245 OA
ATOM     16  C   LIG    1        9.390   1.859  -3.715  0.00  0.00    +0.009 A 
ATOM     17  O   LIG    1        9.175   0.768  -0.206  0.00  0.00    -0.440 OA
ATOM     18  C   LIG    1       11.955   1.549  -0.870  0.00  0.00    +0.020 A 
ATOM     19  C   LIG    1       13.345   1.696  -1.071  0.00  0.00    +0.009 A 
ATOM     20  C   LIG    1       13.963   0.828  -1.977  0.00  0.00    +0.125 A 
ATOM     21  C   LIG    1       13.306  -0.302  -2.442  0.00  0.00    +0.092 A 
ATOM     22  C   LIG    1        9.239  -0.960  -1.888  0.00  0.00    +0.048 A 
ATOM     23  C   LIG    1        7.927  -1.393  -1.654  0.00  0.00    +0.020 A 
ENDROOT
BRANCH  20  24
ATOM     24  O   LIG    1       15.254   1.028  -2.369  0.00  0.00    -0.506 OA
ATOM     25  H   LIG    1       15.444   0.392  -3.079  0.00  0.00    +0.292 HD
ENDBRANCH  20  24
BRANCH   2  26
ATOM     26  O   LIG    1        7.930  -4.728  -3.162  0.00  0.00    -0.506 OA
ATOM     27  H   LIG    1        8.716  -5.246  -3.413  0.00  0.00    +0.292 HD
ENDBRANCH   2  26
BRANCH  19  28
ATOM     28  C   LIG    1       14.103   2.765  -0.305  0.00  0.00    +0.124 C 
BRANCH  28  29
ATOM     29  N   LIG    1       15.506   2.432   0.108  0.00  0.00    -0.278 NA
BRANCH  29  30
ATOM     30  C   LIG    1       16.209   3.698   0.507  0.00  0.00    +0.206 C 
BRANCH  30  31
ATOM     31  C   LIG    1       17.693   3.655   0.943  0.00  0.00    +0.319 C 
ATOM     32  O   LIG    1       18.479   4.551   0.641  0.00  0.00    -0.250 OA
BRANCH  31  33
ATOM     33  O   LIG    1       18.122   2.702   1.794  0.00  0.00    -0.480 OA
ATOM     34  H   LIG    1       17.447   2.270   2.339  0.00  0.00    +0.295 HD
ENDBRANCH  31  33
ENDBRANCH  30  31
ENDBRANCH  29  30
BRANCH  29  35
ATOM     35  C   LIG    1       15.568   1.338   1.085  0.00  0.00    +0.206 C 
BRANCH  35  36
ATOM     36  C   LIG    1       15.364  -0.103   0.607  0.00  0.00    +0.319 C 
ATOM     37  O   LIG    1       14.291  -0.652   0.437  0.00  0.00    -0.250 OA
BRANCH  36  38
ATOM     38  O   LIG    1       16.526  -0.818   0.534  0.00  0.00    -0.480 OA
ATOM     39  H   LIG    1       17.347  -0.357   0.797  0.00  0.00    +0.295 HD
ENDBRANCH  36  38
ENDBRANCH  35  36
ENDBRANCH  29  35
ENDBRANCH  28  29
ENDBRANCH  19  28
BRANCH   1  40
ATOM     40  C   LIG    1        5.939  -2.905  -2.057  0.00  0.00    +0.124 C 
BRANCH  40  41
ATOM     41  N   LIG    1        5.012  -2.227  -3.028  0.00  0.00    -0.278 NA
BRANCH  41  42
ATOM     42  C   LIG    1        3.672  -2.899  -2.826  0.00  0.00    +0.206 C 
BRANCH  42  43
ATOM     43  C   LIG    1        2.627  -2.503  -3.866  0.00  0.00    +0.319 C 
ATOM     44  O   LIG    1        1.798  -1.618  -3.707  0.00  0.00    -0.250 OA
BRANCH  43  45
ATOM     45  O   LIG    1        2.709  -3.222  -5.009  0.00  0.00    -0.480 OA
ATOM     46  H   LIG    1        3.476  -3.828  -5.023  0.00  0.00    +0.295 HD
ENDBRANCH  43  45
ENDBRANCH  42  43
ENDBRANCH  41  42
BRANCH  41  47
ATOM     47  C   LIG    1        4.780  -0.763  -2.807  0.00  0.00    +0.206 C 
BRANCH  47  49
ATOM     48  O   LIG    1        6.060   1.213  -2.434  0.00  0.00    -0.250 OA
ATOM     49  C   LIG    1        5.959   0.148  -3.026  0.00  0.00    +0.319 C 
BRANCH  49  50
ATOM     50  O   LIG    1        6.876  -0.285  -3.918  0.00  0.00    -0.480 OA
ATOM     51  H   LIG    1        6.790  -1.256  -4.031  0.00  0.00    +0.295 HD
ENDBRANCH  49  50
ENDBRANCH  47  49
ENDBRANCH  41  47
ENDBRANCH  40  41
ENDBRANCH   1  40
TORSDOF 18
