REMARK  Name = *****
REMARK                            x       y       z     vdW  Elec       q    Type
REMARK                         _______ _______ _______ _____ _____    ______ ____
ROOT
ATOM      1  O   LIG    1        2.278  -1.166  -0.602  0.00  0.00    -0.489 OA
ENDROOT
BRANCH   1   4
ATOM      2  C   LIG    1        1.019   1.399  -0.508  0.00  0.00    +0.048 C 
ATOM      3  C   LIG    1        2.509   1.206  -0.486  0.00  0.00    -0.009 A 
ATOM      4  C   LIG    1        3.114  -0.067  -0.562  0.00  0.00    +0.123 A 
ATOM      5  C   LIG    1        4.513  -0.139  -0.583  0.00  0.00    +0.046 A 
ATOM      6  C   LIG    1        5.306   1.006  -0.471  0.00  0.00    +0.004 A 
ATOM      7  C   LIG    1        4.705   2.255  -0.334  0.00  0.00    +0.001 A 
ATOM      8  C   LIG    1        3.320   2.350  -0.348  0.00  0.00    +0.007 A 
ENDBRANCH   1   4
BRANCH   1   9
ATOM      9  C   LIG    1        2.929  -2.445  -0.696  0.00  0.00    +0.262 C 
BRANCH   9  10
ATOM     10  C   LIG    1        1.934  -3.612  -0.606  0.00  0.00    +0.177 C 
BRANCH  10  11
ATOM     11  O   LIG    1        1.234  -3.611   0.649  0.00  0.00    -0.386 OA
ATOM     12  H   LIG    1        0.781  -2.750   0.719  0.00  0.00    +0.210 HD
ENDBRANCH  10  11
BRANCH  10  13
ATOM     13  C   LIG    1        0.901  -3.621  -1.732  0.00  0.00    +0.190 C 
BRANCH  13  14
ATOM     14  O   LIG    1        0.052  -4.763  -1.583  0.00  0.00    -0.392 OA
ATOM     15  H   LIG    1       -0.096  -4.865  -0.622  0.00  0.00    +0.209 HD
ENDBRANCH  13  14
ENDBRANCH  10  13
ENDBRANCH   9  10
ENDBRANCH   1   9
TORSDOF 6
