REMARK  Name = *****
REMARK                            x       y       z     vdW  Elec       q    Type
REMARK                         _______ _______ _______ _____ _____    ______ ____
ROOT
ATOM      1  C   LIG    1        4.607  -2.719   1.473  0.00  0.00    +0.299 C 
ATOM      2  C   LIG    1        5.771  -2.437   2.399  0.00  0.00    +0.253 C 
ATOM      3  O   LIG    1        6.216  -1.295   2.554  0.00  0.00    -0.273 OA
ATOM      4  N   LIG    1        6.430  -3.463   3.018  0.00  0.00    -0.283 N 
ATOM      5  H   LIG    1        7.286  -3.149   3.461  0.00  0.00    +0.155 HD
ATOM      6  C   LIG    1        6.212  -4.838   2.875  0.00  0.00    +0.043 A 
ATOM      7  C   LIG    1        4.986  -5.426   2.536  0.00  0.00    +0.023 A 
ATOM      8  C   LIG    1        4.928  -6.804   2.262  0.00  0.00    +0.032 A 
ATOM      9  C   LIG    1        6.058  -7.599   2.435  0.00  0.00    +0.042 A 
ATOM     10  C   LIG    1        7.254  -7.036   2.866  0.00  0.00    +0.022 A 
ATOM     11 CL   LIG    1        5.963  -9.294   2.163  0.00  0.00    -0.084 Cl
ATOM     12  C   LIG    1        3.706  -4.661   2.613  0.00  0.00    +0.079 C 
ATOM     13  C   LIG    1        7.330  -5.659   3.083  0.00  0.00    +0.025 A 
ATOM     14  N   LIG    1        3.534  -3.467   2.156  0.00  0.00    -0.259 NA
ENDROOT
BRANCH  12  15
ATOM     15  C   LIG    1        2.520  -5.293   3.294  0.00  0.00    +0.036 A 
ATOM     16  C   LIG    1        2.664  -6.180   4.367  0.00  0.00    +0.133 A 
ATOM     17  F   LIG    1        3.872  -6.481   4.865  0.00  0.00    -0.205 F 
ATOM     18  C   LIG    1        1.554  -6.769   4.969  0.00  0.00    +0.039 A 
ATOM     19  C   LIG    1        0.272  -6.444   4.530  0.00  0.00    +0.003 A 
ATOM     20  C   LIG    1        0.108  -5.532   3.488  0.00  0.00    +0.001 A 
ATOM     21  C   LIG    1        1.225  -4.960   2.869  0.00  0.00    +0.013 A 
ENDBRANCH  12  15
BRANCH   1  22
ATOM     22  C   LIG    1        5.011  -3.322   0.136  0.00  0.00    +0.341 C 
ATOM     23  O   LIG    1        4.475  -4.278  -0.402  0.00  0.00    -0.248 OA
BRANCH  22  24
ATOM     24  O   LIG    1        6.031  -2.606  -0.425  0.00  0.00    -0.463 OA
BRANCH  24  26
ATOM     25  C   LIG    1        7.409  -4.171  -1.676  0.00  0.00    +0.048 C 
ATOM     26  C   LIG    1        6.443  -3.004  -1.742  0.00  0.00    +0.229 C 
ENDBRANCH  24  26
ENDBRANCH  22  24
ENDBRANCH   1  22
TORSDOF 4
