REMARK  Name = *****
REMARK                            x       y       z     vdW  Elec       q    Type
REMARK                         _______ _______ _______ _____ _____    ______ ____
ROOT
ATOM      1  C   LIG    1        2.927   0.262   1.025  0.00  0.00    +0.132 A 
ATOM      2  C   LIG    1        2.409   1.560   0.655  0.00  0.00    +0.002 A 
ATOM      3  C   LIG    1        2.895   2.677   1.393  0.00  0.00    +0.034 A 
ATOM      4  C   LIG    1        3.905   2.579   2.371  0.00  0.00    +0.052 A 
ATOM      5  C   LIG    1        4.453   1.302   2.576  0.00  0.00    +0.038 A 
ATOM      6  C   LIG    1        4.012   0.113   1.950  0.00  0.00    +0.026 A 
ENDROOT
BRANCH   6   7
ATOM      7  C   LIG    1        4.738  -1.177   2.328  0.00  0.00    -0.014 A 
ATOM      8  C   LIG    1        4.915  -2.258   1.442  0.00  0.00    +0.017 A 
ATOM      9  C   LIG    1        5.482  -3.504   1.833  0.00  0.00    -0.017 A 
ATOM     10  C   LIG    1        6.040  -3.645   3.119  0.00  0.00    -0.016 A 
ATOM     11  C   LIG    1        6.651  -4.865   3.493  0.00  0.00    +0.033 A 
ATOM     12  C   LIG    1        6.688  -5.942   2.608  0.00  0.00    +0.048 A 
ATOM     13  C   LIG    1        6.068  -5.837   1.366  0.00  0.00    +0.025 A 
ATOM     14  C   LIG    1        5.954  -2.557   3.993  0.00  0.00    +0.009 A 
ATOM     15  C   LIG    1        5.482  -4.624   0.980  0.00  0.00    +0.010 A 
ATOM     16  C   LIG    1        5.285  -1.375   3.617  0.00  0.00    +0.009 A 
BRANCH  12  17
ATOM     17  N   LIG    1        7.324  -7.174   2.997  0.00  0.00    -0.221 N 
ATOM     18  H   LIG    1        7.786  -7.613   2.199  0.00  0.00    +0.173 HD
BRANCH  17  19
ATOM     19  S   LIG    1        6.286  -8.338   3.686  0.00  0.00    +0.040 S 
ATOM     20  O   LIG    1        5.932  -9.246   2.602  0.00  0.00    -0.155 OA
ATOM     21  O   LIG    1        5.295  -7.701   4.503  0.00  0.00    -0.155 OA
ATOM     22  C   LIG    1        7.424  -9.190   4.759  0.00  0.00    +0.218 C 
ENDBRANCH  17  19
ENDBRANCH  12  17
ENDBRANCH   6   7
BRANCH   4  23
ATOM     23  N   LIG    1        4.373   3.744   3.131  0.00  0.00    -0.269 N 
ATOM     24  C   LIG    1        5.639   3.724   3.777  0.00  0.00    +0.334 C 
ATOM     25  O   LIG    1        6.463   2.811   3.804  0.00  0.00    -0.246 OA
ATOM     26  N   LIG    1        6.004   4.876   4.433  0.00  0.00    -0.275 N 
ATOM     27  H   LIG    1        6.913   4.857   4.869  0.00  0.00    +0.173 HD
ATOM     28  C   LIG    1        5.264   6.001   4.593  0.00  0.00    +0.254 C 
ATOM     29  O   LIG    1        5.643   6.972   5.235  0.00  0.00    -0.268 OA
ATOM     30  C   LIG    1        3.952   5.973   3.947  0.00  0.00    +0.088 C 
ATOM     31  C   LIG    1        3.583   4.888   3.260  0.00  0.00    +0.101 C 
ENDBRANCH   4  23
BRANCH   2  32
ATOM     32  C   LIG    1        1.391   1.872  -0.512  0.00  0.00    -0.009 C 
ATOM     33  C   LIG    1        0.117   2.607  -0.012  0.00  0.00    +0.016 C 
ATOM     34  C   LIG    1        0.879   0.633  -1.275  0.00  0.00    +0.016 C 
ATOM     35  C   LIG    1        2.014   2.833  -1.574  0.00  0.00    +0.016 C 
ENDBRANCH   2  32
BRANCH   1  37
ATOM     36  C   LIG    1        1.945  -1.902   1.265  0.00  0.00    +0.277 C 
ATOM     37  O   LIG    1        2.362  -0.831   0.411  0.00  0.00    -0.494 OA
ENDBRANCH   1  37
TORSDOF 6
