REMARK  Name = *****
REMARK                            x       y       z     vdW  Elec       q    Type
REMARK                         _______ _______ _______ _____ _____    ______ ____
ROOT
ATOM      1  C   LIG    1        6.746  -3.874   0.284  0.00  0.00    +0.155 C 
ATOM      2  N   LIG    1        6.576  -5.285   0.622  0.00  0.00    -0.198 N 
ATOM      3  C   LIG    1        5.219  -5.828   0.868  0.00  0.00    +0.158 C 
ATOM      4  S   LIG    1        7.546  -6.338  -0.308  0.00  0.00    +0.075 S 
ATOM      5  O   LIG    1        7.516  -7.649   0.310  0.00  0.00    -0.150 OA
ATOM      6  O   LIG    1        7.250  -6.152  -1.710  0.00  0.00    -0.150 OA
ATOM      7  C   LIG    1        9.140  -5.665  -0.013  0.00  0.00    +0.119 A 
ATOM      8  C   LIG    1        9.217  -4.287   0.174  0.00  0.00    +0.045 A 
ATOM      9  C   LIG    1       10.474  -3.742   0.483  0.00  0.00    +0.013 A 
ATOM     10  C   LIG    1       11.604  -4.561   0.586  0.00  0.00    +0.001 A 
ATOM     11  C   LIG    1       11.495  -5.938   0.394  0.00  0.00    +0.002 A 
ATOM     12  C   LIG    1       10.255  -6.499   0.102  0.00  0.00    +0.029 A 
ATOM     13  C   LIG    1        8.010  -3.441   0.049  0.00  0.00    +0.153 C 
ENDROOT
BRANCH   1  16
ATOM     14  N   LIG    1        5.842  -1.608   0.344  0.00  0.00    -0.260 N 
ATOM     15  H   LIG    1        6.811  -1.319   0.291  0.00  0.00    +0.157 HD
ATOM     16  C   LIG    1        5.533  -2.941   0.231  0.00  0.00    +0.269 C 
ATOM     17  O   LIG    1        4.401  -3.394   0.092  0.00  0.00    -0.268 OA
BRANCH  14  21
ATOM     18  C   LIG    1        3.733   3.013  -0.299  0.00  0.00    +0.053 C 
ATOM     19  C   LIG    1        3.972   1.582   0.013  0.00  0.00    +0.008 A 
ATOM     20  S   LIG    1        5.563   0.940   0.066  0.00  0.00    -0.057 S 
ATOM     21  C   LIG    1        4.906  -0.618   0.316  0.00  0.00    +0.165 A 
ATOM     22  N   LIG    1        3.607  -0.687   0.441  0.00  0.00    -0.233 NA
ATOM     23  C   LIG    1        3.067   0.574   0.280  0.00  0.00    +0.123 A 
ENDBRANCH  14  21
ENDBRANCH   1  16
BRANCH  13  24
ATOM     24  O   LIG    1        8.267  -2.135  -0.356  0.00  0.00    -0.504 OA
ATOM     25  H   LIG    1        9.051  -2.157  -0.941  0.00  0.00    +0.292 HD
ENDBRANCH  13  24
TORSDOF 3
