REMARK  Name = *****
REMARK                            x       y       z     vdW  Elec       q    Type
REMARK                         _______ _______ _______ _____ _____    ______ ____
ROOT
ATOM      1  C   LIG    1        2.538   1.504   0.372  0.00  0.00    +0.162 A 
ATOM      2  C   LIG    1        2.239   2.859   0.113  0.00  0.00    +0.028 A 
ATOM      3  C   LIG    1        2.840   3.845   0.932  0.00  0.00    +0.028 A 
ATOM      4  C   LIG    1        2.507   5.206   0.708  0.00  0.00    +0.012 A 
ATOM      5  C   LIG    1        1.637   5.591  -0.313  0.00  0.00    +0.001 A 
ATOM      6  C   LIG    1        1.077   4.629  -1.138  0.00  0.00    +0.001 A 
ATOM      7  C   LIG    1        3.739   3.421   1.935  0.00  0.00    +0.162 A 
ATOM      8  N   LIG    1        3.991   2.108   2.136  0.00  0.00    -0.131 NA
ATOM      9  C   LIG    1        1.373   3.281  -0.928  0.00  0.00    +0.012 A 
ATOM     10  N   LIG    1        3.404   1.155   1.351  0.00  0.00    -0.131 NA
ENDROOT
BRANCH   1  11
ATOM     11  N   LIG    1        1.939   0.476  -0.422  0.00  0.00    -0.266 N 
ATOM     12  H   LIG    1        0.927   0.625  -0.432  0.00  0.00    +0.168 HD
BRANCH  11  13
ATOM     13  N   LIG    1        2.306  -0.866  -0.126  0.00  0.00    -0.255 NA
ATOM     14  H   LIG    1        3.294  -0.996  -0.372  0.00  0.00    +0.140 HD
ATOM     15  H   LIG    1        2.295  -1.006   0.891  0.00  0.00    +0.140 HD
ENDBRANCH  11  13
ENDBRANCH   1  11
BRANCH   7  16
ATOM     16  N   LIG    1        4.386   4.387   2.769  0.00  0.00    -0.266 N 
ATOM     17  H   LIG    1        4.823   5.089   2.166  0.00  0.00    +0.168 HD
BRANCH  16  18
ATOM     18  N   LIG    1        5.259   3.889   3.776  0.00  0.00    -0.255 NA
ATOM     19  H   LIG    1        4.697   3.406   4.485  0.00  0.00    +0.140 HD
ATOM     20  H   LIG    1        5.840   3.139   3.381  0.00  0.00    +0.140 HD
ENDBRANCH  16  18
ENDBRANCH   7  16
TORSDOF 4
