REMARK  Name = *****
REMARK                            x       y       z     vdW  Elec       q    Type
REMARK                         _______ _______ _______ _____ _____    ______ ____
ROOT
ATOM      1  O   LIG    1        2.115   0.366   1.541  0.00  0.00    -0.226 OA
ATOM      2  C   LIG    1        2.712   0.139   0.496  0.00  0.00    +0.406 C 
ATOM      3  O   LIG    1        2.429  -0.939  -0.268  0.00  0.00    -0.417 OA
ATOM      4  C   LIG    1        3.408  -1.455  -1.204  0.00  0.00    +0.296 C 
ATOM      5  C   LIG    1        4.174  -0.332  -1.888  0.00  0.00    +0.040 A 
ATOM      6  C   LIG    1        4.286   0.878  -1.210  0.00  0.00    +0.045 A 
ATOM      7  C   LIG    1        5.048   1.930  -1.719  0.00  0.00    +0.025 A 
ATOM      8  C   LIG    1        5.705   1.776  -2.940  0.00  0.00    +0.022 A 
ATOM      9  C   LIG    1        5.606   0.570  -3.630  0.00  0.00    +0.042 A 
ATOM     10 CL   LIG    1        6.431   0.372  -5.126  0.00  0.00    -0.084 Cl
ATOM     11  C   LIG    1        4.855  -0.484  -3.109  0.00  0.00    +0.030 A 
ATOM     12  N   LIG    1        3.634   1.018   0.006  0.00  0.00    -0.251 N 
ATOM     13  H   LIG    1        3.736   1.865   0.550  0.00  0.00    +0.158 HD
ENDROOT
BRANCH   4  14
ATOM     14  C   LIG    1        4.393  -2.382  -0.439  0.00  0.00    +0.446 C 
ATOM     15  F   LIG    1        5.301  -2.959  -1.267  0.00  0.00    -0.165 F 
ATOM     16  F   LIG    1        3.753  -3.389   0.205  0.00  0.00    -0.165 F 
ATOM     17  F   LIG    1        5.098  -1.704   0.502  0.00  0.00    -0.165 F 
ENDBRANCH   4  14
BRANCH   4  18
ATOM     18  C   LIG    1        2.627  -2.237  -2.198  0.00  0.00    -0.041 C 
ATOM     19  C   LIG    1        1.978  -2.843  -3.007  0.00  0.00    -0.094 C 
BRANCH  19  20
ATOM     20  C   LIG    1        1.188  -3.541  -3.977  0.00  0.00    +0.064 C 
ATOM     21  C   LIG    1        0.932  -2.873  -5.304  0.00  0.00    +0.017 C 
ATOM     22  C   LIG    1        1.855  -4.055  -5.225  0.00  0.00    +0.017 C 
ENDBRANCH  19  20
ENDBRANCH   4  18
TORSDOF 3
