REMARK  Name = *****
REMARK                            x       y       z     vdW  Elec       q    Type
REMARK                         _______ _______ _______ _____ _____    ______ ____
ROOT
ATOM      1  C   LIG    1        3.132  -0.826   0.642  0.00  0.00    +0.163 C 
ATOM      2  N   LIG    1        2.347  -1.658  -0.280  0.00  0.00    -0.270 N 
ATOM      3  C   LIG    1        2.442  -3.046   0.066  0.00  0.00    +0.331 C 
ATOM      4  N   LIG    1        3.450  -3.609  -0.757  0.00  0.00    -0.132 N 
ATOM      5  C   LIG    1        3.987  -2.529  -1.577  0.00  0.00    +0.127 C 
ATOM      6  C   LIG    1        5.111  -1.846  -0.761  0.00  0.00    +0.029 C 
ATOM      7  O   LIG    1        1.793  -3.607   0.932  0.00  0.00    -0.250 OA
ATOM      8  C   LIG    1        2.807  -1.583  -1.656  0.00  0.00    +0.135 C 
ATOM      9  C   LIG    1        4.613  -0.719   0.183  0.00  0.00    +0.034 C 
ENDROOT
BRANCH   1  13
ATOM     10  N   LIG    1        1.118   0.582   0.597  0.00  0.00    -0.328 N 
ATOM     11  H   LIG    1        0.621  -0.262   0.336  0.00  0.00    +0.145 HD
ATOM     12  H   LIG    1        0.627   1.463   0.649  0.00  0.00    +0.145 HD
ATOM     13  C   LIG    1        2.477   0.566   0.750  0.00  0.00    +0.231 C 
ATOM     14  O   LIG    1        3.081   1.586   1.062  0.00  0.00    -0.274 OA
ENDBRANCH   1  13
BRANCH   4  15
ATOM     15  O   LIG    1        2.875  -4.649  -1.551  0.00  0.00    -0.096 OA
BRANCH  15  16
ATOM     16  S   LIG    1        3.590  -6.109  -1.322  0.00  0.00    +0.227 S 
ATOM     17  O   LIG    1        5.023  -5.937  -1.280  0.00  0.00    -0.116 OA
ATOM     18  O   LIG    1        2.986  -7.061  -2.234  0.00  0.00    -0.116 OA
BRANCH  16  19
ATOM     19  O   LIG    1        3.118  -6.568   0.147  0.00  0.00    -0.230 OA
ATOM     20  H   LIG    1        2.955  -7.532   0.119  0.00  0.00    +0.247 HD
ENDBRANCH  16  19
ENDBRANCH  15  16
ENDBRANCH   4  15
TORSDOF 4
