REMARK  Name = *****
REMARK                            x       y       z     vdW  Elec       q    Type
REMARK                         _______ _______ _______ _____ _____    ______ ____
ROOT
ATOM      1  C   LIG    1       -3.544  -4.415  -0.524  0.00  0.00    +0.021 C 
ATOM      2  C   LIG    1       -3.970  -3.300  -1.528  0.00  0.00    +0.016 C 
ATOM      3  C   LIG    1       -3.990  -3.782  -2.987  0.00  0.00    +0.001 C 
ATOM      4  C   LIG    1       -4.965  -4.936  -3.168  0.00  0.00    +0.000 C 
ATOM      5  C   LIG    1       -4.615  -6.105  -2.259  0.00  0.00    +0.001 C 
ATOM      6  C   LIG    1       -4.472  -5.664  -0.809  0.00  0.00    +0.016 C 
ENDROOT
BRANCH   1  10
ATOM      7  C   LIG    1        0.764  -5.508  -0.998  0.00  0.00    +0.122 A 
ATOM      8  C   LIG    1       -0.193  -6.431  -0.601  0.00  0.00    +0.046 A 
ATOM      9  C   LIG    1       -1.544  -6.073  -0.426  0.00  0.00    +0.008 A 
ATOM     10  C   LIG    1       -2.024  -4.789  -0.719  0.00  0.00    -0.037 A 
ATOM     11  C   LIG    1       -1.047  -3.869  -1.161  0.00  0.00    +0.008 A 
ATOM     12  C   LIG    1        0.316  -4.222  -1.296  0.00  0.00    +0.046 A 
BRANCH   7  13
ATOM     13  O   LIG    1        2.110  -5.736  -1.137  0.00  0.00    -0.475 OA
BRANCH  13  14
ATOM     14  C   LIG    1        2.806  -6.797  -0.455  0.00  0.00    +0.203 C 
ATOM     15  C   LIG    1        2.505  -6.771   1.059  0.00  0.00    +0.068 C 
BRANCH  14  17
ATOM     16  C   LIG    1        4.921  -6.483  -1.977  0.00  0.00    +0.008 C 
ATOM     17  C   LIG    1        4.330  -6.457  -0.572  0.00  0.00    +0.056 C 
ENDBRANCH  14  17
BRANCH  14  18
ATOM     18  C   LIG    1        2.540  -8.241  -1.033  0.00  0.00    +0.349 C 
ATOM     19  O   LIG    1        1.640  -8.543  -1.750  0.00  0.00    -0.246 OA
BRANCH  18  20
ATOM     20  O   LIG    1        3.413  -9.198  -0.617  0.00  0.00    -0.478 OA
ATOM     21  H   LIG    1        4.166  -8.916  -0.080  0.00  0.00    +0.295 HD
ENDBRANCH  18  20
ENDBRANCH  14  18
ENDBRANCH  13  14
ENDBRANCH   7  13
ENDBRANCH   1  10
BRANCH   1  22
ATOM     22  C   LIG    1       -3.846  -3.924   0.944  0.00  0.00    -0.033 A 
ATOM     23  C   LIG    1       -2.864  -3.268   1.714  0.00  0.00    +0.050 A 
ATOM     24  C   LIG    1       -3.011  -2.988   3.079  0.00  0.00    +0.122 A 
ATOM     25  C   LIG    1       -4.218  -3.362   3.693  0.00  0.00    +0.045 A 
ATOM     26  C   LIG    1       -5.262  -3.902   2.933  0.00  0.00    +0.004 A 
ATOM     27  C   LIG    1       -5.086  -4.137   1.570  0.00  0.00    +0.005 A 
BRANCH  24  28
ATOM     28  O   LIG    1       -2.048  -2.437   3.895  0.00  0.00    -0.475 OA
BRANCH  28  29
ATOM     29  C   LIG    1       -0.835  -1.808   3.404  0.00  0.00    +0.203 C 
ATOM     30  C   LIG    1       -1.136  -0.356   2.967  0.00  0.00    +0.068 C 
BRANCH  29  31
ATOM     31  C   LIG    1       -0.038  -2.527   2.298  0.00  0.00    +0.349 C 
ATOM     32  O   LIG    1        0.261  -1.998   1.211  0.00  0.00    -0.246 OA
BRANCH  31  33
ATOM     33  O   LIG    1        0.337  -3.788   2.588  0.00  0.00    -0.478 OA
ATOM     34  H   LIG    1        0.005  -4.099   3.460  0.00  0.00    +0.295 HD
ENDBRANCH  31  33
ENDBRANCH  29  31
BRANCH  29  35
ATOM     35  C   LIG    1        0.142  -1.734   4.628  0.00  0.00    +0.056 C 
ATOM     36  C   LIG    1        1.557  -1.227   4.317  0.00  0.00    +0.008 C 
ENDBRANCH  29  35
ENDBRANCH  28  29
ENDBRANCH  24  28
ENDBRANCH   1  22
TORSDOF 12
