REMARK  Name = *****
REMARK                            x       y       z     vdW  Elec       q    Type
REMARK                         _______ _______ _______ _____ _____    ______ ____
ROOT
ATOM      1  C   LIG    1        2.836   0.075   1.652  0.00  0.00    +0.027 C 
ATOM      2  C   LIG    1        2.396  -0.203   0.205  0.00  0.00    +0.086 C 
ATOM      3  N   LIG    1        2.953  -1.507  -0.276  0.00  0.00    -0.298 NA
ATOM      4  C   LIG    1        2.438  -2.654   0.475  0.00  0.00    +0.105 C 
ATOM      5  C   LIG    1        2.629  -1.679  -1.709  0.00  0.00    +0.112 C 
ATOM      6  C   LIG    1        3.124  -0.495  -2.542  0.00  0.00    +0.176 C 
ATOM      7  O   LIG    1        2.509   0.717  -2.106  0.00  0.00    -0.369 OA
ATOM      8  C   LIG    1        2.840   0.983  -0.729  0.00  0.00    +0.165 C 
ENDROOT
BRANCH   8   9
ATOM      9  C   LIG    1        2.180   2.305  -0.377  0.00  0.00    -0.017 A 
ATOM     10  C   LIG    1        0.808   2.510  -0.590  0.00  0.00    +0.006 A 
ATOM     11  C   LIG    1        0.206   3.721  -0.247  0.00  0.00    +0.000 A 
ATOM     12  C   LIG    1        0.968   4.745   0.313  0.00  0.00    +0.000 A 
ATOM     13  C   LIG    1        2.332   4.559   0.526  0.00  0.00    +0.000 A 
ATOM     14  C   LIG    1        2.936   3.348   0.181  0.00  0.00    +0.006 A 
ENDBRANCH   8   9
TORSDOF 1
