REMARK  Name = *****
REMARK                            x       y       z     vdW  Elec       q    Type
REMARK                         _______ _______ _______ _____ _____    ______ ____
ROOT
ATOM      1  C   LIG    1        5.477   3.803   0.195  0.00  0.00    +0.197 C 
ENDROOT
BRANCH   1   2
ATOM      2  C   LIG    1        4.502   3.002   1.073  0.00  0.00    -0.013 A 
ATOM      3  C   LIG    1        4.920   1.782   1.641  0.00  0.00    +0.008 A 
ATOM      4  C   LIG    1        4.055   1.028   2.441  0.00  0.00    +0.020 A 
ATOM      5  C   LIG    1        2.758   1.475   2.669  0.00  0.00    +0.041 A 
ATOM      6 CL   LIG    1        1.680   0.528   3.620  0.00  0.00    -0.084 Cl
ATOM      7  C   LIG    1        2.325   2.683   2.127  0.00  0.00    +0.020 A 
ATOM      8  C   LIG    1        3.197   3.446   1.342  0.00  0.00    +0.008 A 
ENDBRANCH   1   2
BRANCH   1   9
ATOM      9  C   LIG    1        6.734   4.257   0.932  0.00  0.00    +0.074 A 
ATOM     10  N   LIG    1        7.891   4.242   0.225  0.00  0.00    -0.257 NA
ATOM     11  C   LIG    1        9.016   4.663   0.845  0.00  0.00    +0.111 A 
ATOM     12  C   LIG    1        9.045   5.079   2.167  0.00  0.00    +0.020 A 
ATOM     13  C   LIG    1        7.859   5.103   2.877  0.00  0.00    +0.003 A 
ATOM     14  C   LIG    1        6.674   4.715   2.254  0.00  0.00    +0.026 A 
ENDBRANCH   1   9
BRANCH   1  15
ATOM     15  O   LIG    1        4.816   4.937  -0.395  0.00  0.00    -0.365 OA
BRANCH  15  16
ATOM     16  C   LIG    1        5.552   5.508  -1.487  0.00  0.00    +0.176 C 
BRANCH  16  17
ATOM     17  C   LIG    1        4.744   6.612  -2.194  0.00  0.00    +0.112 C 
BRANCH  17  19
ATOM     18  C   LIG    1        2.569   5.540  -2.042  0.00  0.00    +0.104 C 
ATOM     19  N   LIG    1        3.546   6.160  -2.938  0.00  0.00    -0.306 NA
ATOM     20  C   LIG    1        2.947   7.294  -3.646  0.00  0.00    +0.104 C 
ENDBRANCH  17  19
ENDBRANCH  16  17
ENDBRANCH  15  16
ENDBRANCH   1  15
TORSDOF 6
