REMARK  Name = *****
REMARK                            x       y       z     vdW  Elec       q    Type
REMARK                         _______ _______ _______ _____ _____    ______ ____
ROOT
ATOM      1  C   LIG    1        2.949   1.116   0.609  0.00  0.00    +0.014 C 
ATOM      2  C   LIG    1        2.570  -0.182  -0.121  0.00  0.00    +0.030 C 
ATOM      3  C   LIG    1        3.078  -1.461   0.547  0.00  0.00    -0.039 A 
ATOM      4  C   LIG    1        2.620  -2.716   0.086  0.00  0.00    -0.043 A 
ATOM      5  C   LIG    1        3.090  -3.900   0.679  0.00  0.00    +0.005 A 
ATOM      6  C   LIG    1        4.018  -3.858   1.716  0.00  0.00    +0.020 A 
ATOM      7  C   LIG    1        4.479  -2.627   2.168  0.00  0.00    +0.041 A 
ATOM      8 CL   LIG    1        5.644  -2.568   3.433  0.00  0.00    -0.084 Cl
ATOM      9  C   LIG    1        1.663  -2.814  -1.080  0.00  0.00    +0.050 C 
ATOM     10  C   LIG    1        2.301  -2.311  -2.380  0.00  0.00    +0.085 C 
ATOM     11  N   LIG    1        2.244  -0.857  -2.558  0.00  0.00    -0.315 NA
ATOM     12  H   LIG    1        2.585  -0.639  -3.495  0.00  0.00    +0.122 HD
ATOM     13  C   LIG    1        4.014  -1.442   1.597  0.00  0.00    +0.024 A 
ATOM     14  C   LIG    1        3.053  -0.101  -1.592  0.00  0.00    +0.088 C 
ENDROOT
TORSDOF 0
