REMARK  Name = *****
REMARK                            x       y       z     vdW  Elec       q    Type
REMARK                         _______ _______ _______ _____ _____    ______ ____
ROOT
ATOM      1  C   LIG    1        4.985   0.479   2.571  0.00  0.00    +0.421 C 
ATOM      2  N   LIG    1        5.224   1.552   3.438  0.00  0.00    -0.231 N 
ATOM      3  C   LIG    1        5.872   1.627   4.739  0.00  0.00    +0.170 C 
ATOM      4  S   LIG    1        6.577   0.431   5.657  0.00  0.00    -0.012 S 
ATOM      5  N   LIG    1        5.765   3.007   5.098  0.00  0.00    -0.329 N 
ATOM      6  C   LIG    1        6.231   3.611   6.326  0.00  0.00    +0.151 C 
ATOM      7  C   LIG    1        5.097   3.685   4.106  0.00  0.00    +0.106 C 
ATOM      8  C   LIG    1        4.779   2.832   3.128  0.00  0.00    +0.117 C 
ATOM      9  O   LIG    1        4.355   0.579   1.518  0.00  0.00    -0.223 OA
ENDROOT
BRANCH   1  10
ATOM     10  O   LIG    1        5.503  -0.695   3.019  0.00  0.00    -0.448 OA
BRANCH  10  12
ATOM     11  C   LIG    1        3.849  -2.403   2.607  0.00  0.00    +0.048 C 
ATOM     12  C   LIG    1        5.220  -1.864   2.241  0.00  0.00    +0.231 C 
ENDBRANCH  10  12
ENDBRANCH   1  10
TORSDOF 2
