REMARK  Name = *****
REMARK                            x       y       z     vdW  Elec       q    Type
REMARK                         _______ _______ _______ _____ _____    ______ ____
ROOT
ATOM      1  C   LIG    1        6.850   5.463   4.390  0.00  0.00    +0.171 C 
ATOM      2  O   LIG    1        6.282   4.396   4.189  0.00  0.00    -0.292 OA
ENDROOT
BRANCH   1   3
ATOM      3  C   LIG    1        8.263   5.460   4.885  0.00  0.00    +0.018 A 
ATOM      4  C   LIG    1        8.770   4.263   5.401  0.00  0.00    +0.012 A 
ATOM      5  C   LIG    1       10.045   4.221   5.979  0.00  0.00    +0.005 A 
ATOM      6  C   LIG    1       10.851   5.367   6.049  0.00  0.00    -0.042 A 
ATOM      7  C   LIG    1       10.347   6.545   5.461  0.00  0.00    +0.005 A 
ATOM      8  C   LIG    1        9.071   6.593   4.882  0.00  0.00    +0.012 A 
BRANCH   6   9
ATOM      9  C   LIG    1       12.218   5.374   6.759  0.00  0.00    -0.013 C 
ATOM     10  C   LIG    1       12.601   4.009   7.375  0.00  0.00    +0.015 C 
ATOM     11  C   LIG    1       12.199   6.402   7.913  0.00  0.00    +0.015 C 
ATOM     12  C   LIG    1       13.329   5.760   5.762  0.00  0.00    +0.015 C 
ENDBRANCH   6   9
ENDBRANCH   1   3
BRANCH   1  13
ATOM     13  C   LIG    1        6.129   6.771   4.159  0.00  0.00    +0.159 C 
BRANCH  13  14
ATOM     14  C   LIG    1        5.899   7.686   5.343  0.00  0.00    +0.171 C 
ATOM     15  O   LIG    1        5.880   8.899   5.191  0.00  0.00    -0.292 OA
BRANCH  14  19
ATOM     16  C   LIG    1        5.280   6.186   9.328  0.00  0.00    +0.120 A 
ATOM     17  C   LIG    1        5.798   7.462   9.104  0.00  0.00    +0.046 A 
ATOM     18  C   LIG    1        5.978   7.939   7.805  0.00  0.00    +0.015 A 
ATOM     19  C   LIG    1        5.649   7.136   6.708  0.00  0.00    +0.018 A 
ATOM     20  C   LIG    1        5.089   5.878   6.926  0.00  0.00    +0.015 A 
ATOM     21  C   LIG    1        4.916   5.400   8.232  0.00  0.00    +0.046 A 
BRANCH  16  23
ATOM     22  C   LIG    1        5.491   6.454  11.663  0.00  0.00    +0.277 C 
ATOM     23  O   LIG    1        5.094   5.630  10.567  0.00  0.00    -0.495 OA
ENDBRANCH  16  23
ENDBRANCH  14  19
ENDBRANCH  13  14
ENDBRANCH   1  13
TORSDOF 6
