REMARK  Name = *****
REMARK                            x       y       z     vdW  Elec       q    Type
REMARK                         _______ _______ _______ _____ _____    ______ ____
ROOT
ATOM      1  O   LIG    1       13.229   6.425   2.989  0.00  0.00    -0.463 OA
ENDROOT
BRANCH   1   2
ATOM      2  C   LIG    1       12.667   5.670   3.953  0.00  0.00    +0.307 C 
ATOM      3  O   LIG    1       13.251   4.845   4.668  0.00  0.00    -0.251 OA
BRANCH   2   4
ATOM      4  C   LIG    1       11.194   5.840   4.024  0.00  0.00    +0.120 C 
BRANCH   4   5
ATOM      5  C   LIG    1       10.578   4.689   3.244  0.00  0.00    +0.011 C 
BRANCH   5   6
ATOM      6  C   LIG    1        9.059   4.693   3.310  0.00  0.00    +0.000 C 
BRANCH   6   7
ATOM      7  C   LIG    1        8.520   3.517   2.499  0.00  0.00    +0.000 C 
BRANCH   7   8
ATOM      8  C   LIG    1        7.000   3.471   2.517  0.00  0.00    -0.000 C 
BRANCH   8   9
ATOM      9  C   LIG    1        6.483   2.298   1.681  0.00  0.00    -0.000 C 
BRANCH   9  10
ATOM     10  C   LIG    1        4.955   2.238   1.638  0.00  0.00    -0.000 C 
BRANCH  10  11
ATOM     11  C   LIG    1        4.354   3.497   1.009  0.00  0.00    -0.000 C 
BRANCH  11  12
ATOM     12  C   LIG    1        2.831   3.454   0.976  0.00  0.00    -0.000 C 
BRANCH  12  14
ATOM     13  C   LIG    1        0.752   4.724   0.327  0.00  0.00    +0.004 C 
ATOM     14  C   LIG    1        2.271   4.736   0.361  0.00  0.00    -0.003 C 
ENDBRANCH  12  14
ENDBRANCH  11  12
ENDBRANCH  10  11
ENDBRANCH   9  10
ENDBRANCH   8   9
ENDBRANCH   7   8
ENDBRANCH   6   7
ENDBRANCH   5   6
ENDBRANCH   4   5
ENDBRANCH   2   4
ENDBRANCH   1   2
BRANCH   1  15
ATOM     15  C   LIG    1       14.550   6.072   2.539  0.00  0.00    +0.251 C 
BRANCH  15  16
ATOM     16  C   LIG    1       15.668   6.451   3.535  0.00  0.00    +0.145 C 
BRANCH  16  17
ATOM     17  N   LIG    1       15.585   5.853   4.869  0.00  0.00    -0.307 N 
ATOM     18  H   LIG    1       14.897   6.271   5.484  0.00  0.00    +0.149 HD
ATOM     19  C   LIG    1       16.018   4.577   5.146  0.00  0.00    +0.279 C 
ATOM     20  O   LIG    1       16.697   3.932   4.340  0.00  0.00    -0.269 OA
BRANCH  19  21
ATOM     21  C   LIG    1       15.579   3.965   6.479  0.00  0.00    +0.452 C 
BRANCH  21  22
ATOM     22  N   LIG    1       14.599   2.847   6.361  0.00  0.00    -0.195 N 
ATOM     23  C   LIG    1       14.593   2.052   5.264  0.00  0.00    +0.309 A 
ATOM     24  C   LIG    1       13.678   1.022   5.118  0.00  0.00    +0.070 A 
ATOM     25  C   LIG    1       12.758   0.785   6.123  0.00  0.00    +0.012 A 
ATOM     26  C   LIG    1       12.776   1.584   7.258  0.00  0.00    +0.070 A 
ATOM     27  C   LIG    1       13.712   2.614   7.362  0.00  0.00    +0.309 A 
ENDBRANCH  21  22
ENDBRANCH  19  21
ENDBRANCH  16  17
ENDBRANCH  15  16
ENDBRANCH   1  15
TORSDOF 16
