REMARK  Name = *****
REMARK                            x       y       z     vdW  Elec       q    Type
REMARK                         _______ _______ _______ _____ _____    ______ ____
ROOT
ATOM      1  C   LIG    1        7.638  -1.973   0.103  0.00  0.00    +0.062 A 
ATOM      2  C   LIG    1        7.463  -0.556   0.261  0.00  0.00    +0.058 A 
ATOM      3  I   LIG    1        9.118   0.534   1.162  0.00  0.00    -0.040 I 
ATOM      4  C   LIG    1        6.323   0.090  -0.273  0.00  0.00    +0.065 A 
ATOM      5  C   LIG    1        5.482  -0.712  -1.071  0.00  0.00    +0.049 A 
ATOM      6  I   LIG    1        5.593   0.043  -3.280  0.00  0.00    -0.041 I 
ATOM      7  C   LIG    1        5.565  -2.115  -1.099  0.00  0.00    +0.067 A 
ATOM      8  C   LIG    1        6.712  -2.737  -0.630  0.00  0.00    +0.049 A 
ATOM      9  I   LIG    1        7.113  -4.762  -1.139  0.00  0.00    -0.041 I 
ENDROOT
BRANCH   1  12
ATOM     10  C   LIG    1        7.977  -2.159   3.067  0.00  0.00    +0.109 C 
ATOM     11  C   LIG    1        8.933  -2.775   2.068  0.00  0.00    +0.214 C 
ATOM     12  N   LIG    1        8.701  -2.666   0.719  0.00  0.00    -0.284 N 
ATOM     13  H   LIG    1        9.113  -3.450   0.218  0.00  0.00    +0.155 HD
ATOM     14  O   LIG    1        9.882  -3.463   2.448  0.00  0.00    -0.276 OA
ENDBRANCH   1  12
BRANCH   4  15
ATOM     15  N   LIG    1        5.876   1.426   0.043  0.00  0.00    -0.273 N 
ATOM     16  C   LIG    1        4.609   1.737   0.569  0.00  0.00    +0.216 C 
ATOM     17  O   LIG    1        4.217   2.900   0.707  0.00  0.00    -0.276 OA
ATOM     18  C   LIG    1        3.716   0.624   1.066  0.00  0.00    +0.110 C 
ATOM     19  C   LIG    1        6.731   2.565  -0.260  0.00  0.00    +0.138 C 
ENDBRANCH   4  15
BRANCH   7  20
ATOM     20  C   LIG    1        4.267  -2.805  -1.286  0.00  0.00    +0.247 C 
ATOM     21  N   LIG    1        3.972  -3.818  -0.382  0.00  0.00    -0.299 N 
ATOM     22  H   LIG    1        4.594  -4.026   0.383  0.00  0.00    +0.150 HD
ATOM     23  O   LIG    1        3.499  -2.419  -2.131  0.00  0.00    -0.270 OA
BRANCH  21  24
ATOM     24  CA  LIG    1        2.678  -4.515  -0.366  0.00  0.00    +0.167 C 
BRANCH  24  25
ATOM     25  C   LIG    1        1.745  -3.707   0.529  0.00  0.00    +0.248 C 
ATOM     26  O   LIG    1        1.731  -3.805   1.757  0.00  0.00    -0.299 OA
ENDBRANCH  24  25
BRANCH  24  27
ATOM     27  C   LIG    1        2.042  -4.788  -1.745  0.00  0.00    +0.173 C 
BRANCH  27  28
ATOM     28  O   LIG    1        0.801  -5.486  -1.551  0.00  0.00    -0.387 OA
ATOM     29  H   LIG    1        0.496  -5.749  -2.450  0.00  0.00    +0.210 HD
ENDBRANCH  27  28
BRANCH  27  30
ATOM     30  C   LIG    1        2.980  -5.625  -2.660  0.00  0.00    +0.176 C 
BRANCH  30  31
ATOM     31  O   LIG    1        3.158  -6.924  -2.069  0.00  0.00    -0.387 OA
ATOM     32  H   LIG    1        2.260  -7.319  -2.069  0.00  0.00    +0.210 HD
ENDBRANCH  30  31
BRANCH  30  33
ATOM     33  C   LIG    1        2.402  -5.820  -4.073  0.00  0.00    +0.171 C 
BRANCH  33  34
ATOM     34  O   LIG    1        1.153  -6.536  -3.952  0.00  0.00    -0.387 OA
ATOM     35  H   LIG    1        1.081  -7.062  -4.777  0.00  0.00    +0.210 HD
ENDBRANCH  33  34
BRANCH  33  36
ATOM     36  C   LIG    1        3.338  -6.626  -4.986  0.00  0.00    +0.190 C 
BRANCH  36  37
ATOM     37  O   LIG    1        2.685  -6.799  -6.247  0.00  0.00    -0.392 OA
ATOM     38  H   LIG    1        3.303  -7.282  -6.825  0.00  0.00    +0.209 HD
ENDBRANCH  36  37
ENDBRANCH  33  36
ENDBRANCH  30  33
ENDBRANCH  27  30
ENDBRANCH  24  27
ENDBRANCH  21  24
ENDBRANCH   7  20
TORSDOF 13
