REMARK  Name = *****
REMARK                            x       y       z     vdW  Elec       q    Type
REMARK                         _______ _______ _______ _____ _____    ______ ____
ROOT
ATOM      1  C   LIG    1        3.056  -0.349  -1.085  0.00  0.00    -0.034 A 
ATOM      2  C   LIG    1        3.187  -1.481  -1.904  0.00  0.00    +0.005 A 
ATOM      3  C   LIG    1        3.537  -1.356  -3.254  0.00  0.00    +0.012 A 
ATOM      4  C   LIG    1        3.813  -0.100  -3.801  0.00  0.00    +0.023 A 
ATOM      5  C   LIG    1        3.684   1.036  -2.984  0.00  0.00    +0.012 A 
ATOM      6  C   LIG    1        3.311   0.913  -1.639  0.00  0.00    +0.005 A 
ENDROOT
BRANCH   1   8
ATOM      7  C   LIG    1        3.645  -1.200   1.208  0.00  0.00    +0.024 C 
ATOM      8  C   LIG    1        2.591  -0.477   0.362  0.00  0.00    +0.124 C 
BRANCH   8   9
ATOM      9  C   LIG    1        1.226  -1.155   0.517  0.00  0.00    +0.312 C 
ATOM     10  O   LIG    1        0.905  -1.833   1.481  0.00  0.00    -0.250 OA
BRANCH   9  11
ATOM     11  O   LIG    1        0.342  -0.894  -0.477  0.00  0.00    -0.480 OA
ATOM     12  H   LIG    1        0.692  -0.339  -1.200  0.00  0.00    +0.295 HD
ENDBRANCH   9  11
ENDBRANCH   8   9
ENDBRANCH   1   8
BRANCH   4  13
ATOM     13  C   LIG    1        4.145   0.074  -5.252  0.00  0.00    +0.200 C 
ATOM     14  O   LIG    1        3.773   1.131  -5.764  0.00  0.00    -0.286 OA
BRANCH  13  15
ATOM     15  C   LIG    1        4.852  -0.972  -5.993  0.00  0.00    +0.059 A 
ATOM     16  S   LIG    1        4.574  -1.092  -7.689  0.00  0.00    -0.093 S 
ATOM     17  C   LIG    1        5.650  -2.407  -7.857  0.00  0.00    +0.046 A 
ATOM     18  C   LIG    1        6.233  -2.748  -6.659  0.00  0.00    +0.008 A 
ATOM     19  C   LIG    1        5.779  -1.919  -5.585  0.00  0.00    +0.019 A 
ENDBRANCH  13  15
ENDBRANCH   4  13
TORSDOF 5
