REMARK  Name = *****
REMARK                            x       y       z     vdW  Elec       q    Type
REMARK                         _______ _______ _______ _____ _____    ______ ____
ROOT
ATOM      1  N   LIG    1        3.420  -1.259  -1.041  0.00  0.00    -0.331 N 
ATOM      2  C   LIG    1        4.348  -1.839  -1.944  0.00  0.00    +0.147 A 
ATOM      3  C   LIG    1        4.426  -3.232  -2.006  0.00  0.00    +0.068 A 
ATOM      4  C   LIG    1        5.322  -3.836  -2.872  0.00  0.00    +0.057 A 
ATOM      5  C   LIG    1        6.124  -3.033  -3.663  0.00  0.00    +0.164 A 
ATOM      6  C   LIG    1        6.024  -1.631  -3.612  0.00  0.00    +0.159 A 
ATOM      7  F   LIG    1        6.981  -3.670  -4.473  0.00  0.00    -0.202 F 
ATOM      8  C   LIG    1        3.556  -4.070  -1.163  0.00  0.00    +0.205 A 
ATOM      9  O   LIG    1        3.620  -5.298  -1.205  0.00  0.00    -0.286 OA
ATOM     10  C   LIG    1        2.588  -3.409  -0.268  0.00  0.00    +0.122 A 
ATOM     11  N   LIG    1        5.139  -1.063  -2.738  0.00  0.00    -0.211 NA
ATOM     12  C   LIG    1        2.591  -2.067  -0.275  0.00  0.00    +0.106 A 
ENDROOT
BRANCH   6  13
ATOM     13  N   LIG    1        6.829  -0.780  -4.403  0.00  0.00    -0.310 N 
ATOM     14  C   LIG    1        6.368   0.626  -4.433  0.00  0.00    +0.121 C 
ATOM     15  C   LIG    1        7.301   1.530  -5.274  0.00  0.00    +0.100 C 
ATOM     16  N   LIG    1        7.578   1.012  -6.627  0.00  0.00    -0.313 NA
ATOM     17  H   LIG    1        6.691   0.909  -7.120  0.00  0.00    +0.122 HD
ATOM     18  C   LIG    1        8.178  -0.322  -6.475  0.00  0.00    +0.100 C 
ATOM     19  C   LIG    1        7.287  -1.317  -5.703  0.00  0.00    +0.121 C 
ENDBRANCH   6  13
BRANCH   1  21
ATOM     20  C   LIG    1        2.451   0.743  -2.113  0.00  0.00    +0.027 C 
ATOM     21  C   LIG    1        3.358   0.208  -1.014  0.00  0.00    +0.120 C 
ENDBRANCH   1  21
BRANCH  10  22
ATOM     22  C   LIG    1        1.646  -4.151   0.595  0.00  0.00    +0.342 C 
ATOM     23  O   LIG    1        0.838  -3.601   1.333  0.00  0.00    -0.245 OA
BRANCH  22  24
ATOM     24  O   LIG    1        1.738  -5.497   0.510  0.00  0.00    -0.477 OA
ATOM     25  H   LIG    1        2.430  -5.816  -0.122  0.00  0.00    +0.295 HD
ENDBRANCH  22  24
ENDBRANCH  10  22
TORSDOF 4
