REMARK  Name = *****
REMARK                            x       y       z     vdW  Elec       q    Type
REMARK                         _______ _______ _______ _____ _____    ______ ____
ROOT
ATOM      1  C   LIG    1        1.721   3.149  -5.155  0.00  0.00    +0.015 C 
ATOM      2  C   LIG    1        1.977   4.663  -5.195  0.00  0.00    +0.009 C 
ATOM      3  C   LIG    1        3.227   4.997  -6.074  0.00  0.00    +0.132 C 
ATOM      4  C   LIG    1        3.586   6.433  -5.680  0.00  0.00    +0.043 C 
ATOM      5  C   LIG    1        3.111   6.580  -4.224  0.00  0.00    +0.007 C 
ATOM      6  C   LIG    1        2.457   5.231  -3.834  0.00  0.00    +0.002 C 
ATOM      7  C   LIG    1        1.401   5.371  -2.719  0.00  0.00    -0.001 C 
ATOM      8  C   LIG    1        1.233   4.055  -1.920  0.00  0.00    +0.008 C 
ATOM      9  C   LIG    1       -0.183   3.524  -1.676  0.00  0.00    +0.032 C 
ATOM     10  C   LIG    1       -1.325   4.508  -1.739  0.00  0.00    -0.060 C 
ATOM     11  C   LIG    1       -0.998   5.970  -2.002  0.00  0.00    -0.005 C 
ATOM     12  C   LIG    1       -0.402   6.572  -0.693  0.00  0.00    +0.016 C 
ATOM     13  C   LIG    1       -2.261   6.849  -2.290  0.00  0.00    +0.019 C 
ATOM     14  C   LIG    1       -3.506   6.112  -2.762  0.00  0.00    +0.080 C 
ATOM     15  C   LIG    1       -3.748   4.881  -1.937  0.00  0.00    +0.156 C 
ATOM     16  O   LIG    1       -4.871   4.508  -1.607  0.00  0.00    -0.293 OA
ATOM     17  C   LIG    1       -2.578   4.027  -1.651  0.00  0.00    +0.046 C 
ATOM     18  C   LIG    1        0.071   6.030  -3.166  0.00  0.00    +0.031 C 
ATOM     19  C   LIG    1       -0.408   5.455  -4.521  0.00  0.00    +0.119 C 
ATOM     20  C   LIG    1        0.683   5.402  -5.599  0.00  0.00    +0.042 C 
ENDROOT
BRANCH   3  21
ATOM     21  C   LIG    1        3.220   4.776  -7.601  0.00  0.00    +0.190 C 
ATOM     22  O   LIG    1        4.172   4.187  -8.136  0.00  0.00    -0.292 OA
BRANCH  21  23
ATOM     23  C   LIG    1        2.080   5.269  -8.465  0.00  0.00    +0.233 C 
BRANCH  23  24
ATOM     24  O   LIG    1        1.139   4.236  -8.693  0.00  0.00    -0.387 OA
ATOM     25  H   LIG    1        1.611   3.522  -9.163  0.00  0.00    +0.210 HD
ENDBRANCH  23  24
ENDBRANCH  21  23
ENDBRANCH   3  21
BRANCH   3  26
ATOM     26  O   LIG    1        4.333   4.182  -5.595  0.00  0.00    -0.380 OA
ATOM     27  H   LIG    1        4.929   4.034  -6.360  0.00  0.00    +0.211 HD
ENDBRANCH   3  26
BRANCH  19  28
ATOM     28  O   LIG    1       -1.454   6.266  -5.058  0.00  0.00    -0.392 OA
ATOM     29  H   LIG    1       -1.103   7.157  -5.224  0.00  0.00    +0.210 HD
ENDBRANCH  19  28
TORSDOF 5
