REMARK  Name = *****
REMARK                            x       y       z     vdW  Elec       q    Type
REMARK                         _______ _______ _______ _____ _____    ______ ____
ROOT
ATOM      1  C   LIG    1        2.800  -5.595  -5.302  0.00  0.00    +0.037 C 
ATOM      2  C   LIG    1        1.944  -4.368  -5.326  0.00  0.00    -0.002 C 
ATOM      3  C   LIG    1        1.774  -3.491  -4.324  0.00  0.00    +0.092 C 
ATOM      4  C   LIG    1        0.837  -2.318  -4.466  0.00  0.00    +0.259 C 
ATOM      5  O   LIG    1        0.134  -1.992  -3.520  0.00  0.00    -0.269 OA
ATOM      6  N   LIG    1        1.120  -1.516  -5.558  0.00  0.00    -0.297 N 
ATOM      7  H   LIG    1        1.915  -1.828  -6.108  0.00  0.00    +0.150 HD
ATOM      8  C   LIG    1        1.075  -0.045  -5.409  0.00  0.00    +0.185 C 
ATOM      9  C   LIG    1        2.271   0.268  -4.490  0.00  0.00    +0.329 C 
ATOM     10  O   LIG    1        3.402  -0.131  -4.760  0.00  0.00    -0.249 OA
ATOM     11  O   LIG    1        1.929   0.850  -3.313  0.00  0.00    -0.455 OA
ATOM     12  C   LIG    1        2.955   0.838  -2.303  0.00  0.00    +0.208 C 
ATOM     13  C   LIG    1        3.688   2.184  -2.240  0.00  0.00    +0.144 C 
ATOM     14  C   LIG    1        5.139   1.960  -2.640  0.00  0.00    +0.217 C 
ATOM     15  N   LIG    1        5.922   1.409  -1.651  0.00  0.00    -0.304 N 
ATOM     16  H   LIG    1        5.520   1.454  -0.720  0.00  0.00    +0.149 HD
ATOM     17  C   LIG    1        6.771   0.204  -1.783  0.00  0.00    +0.161 C 
ATOM     18  C   LIG    1        5.877  -0.934  -1.224  0.00  0.00    +0.234 C 
ATOM     19  N   LIG    1        5.501  -1.965  -2.037  0.00  0.00    -0.302 N 
ATOM     20  H   LIG    1        5.804  -2.003  -3.007  0.00  0.00    +0.149 HD
ATOM     21  C   LIG    1        4.331  -2.794  -1.705  0.00  0.00    +0.170 C 
ATOM     22  C   LIG    1        4.636  -3.928  -0.725  0.00  0.00    +0.112 C 
ATOM     23  S   LIG    1        3.562  -4.097   0.771  0.00  0.00    -0.091 S 
ATOM     24  S   LIG    1        1.710  -3.341   0.282  0.00  0.00    -0.093 S 
ATOM     25  C   LIG    1        1.685  -1.742   1.184  0.00  0.00    +0.085 C 
ATOM     26  C   LIG    1        0.720  -0.728   0.550  0.00  0.00    +0.038 C 
ATOM     27  C   LIG    1        1.170  -0.164  -0.774  0.00  0.00    -0.027 C 
ATOM     28  C   LIG    1        3.821  -3.358  -3.043  0.00  0.00    +0.238 C 
ATOM     29  O   LIG    1        4.602  -3.589  -3.967  0.00  0.00    -0.273 OA
ATOM     30  O   LIG    1        5.381  -0.810  -0.098  0.00  0.00    -0.274 OA
ATOM     31  O   LIG    1        5.538   2.239  -3.763  0.00  0.00    -0.276 OA
ATOM     32  C   LIG    1        2.362   0.423  -0.975  0.00  0.00    +0.013 C 
ATOM     33  N   LIG    1        2.441  -3.495  -3.110  0.00  0.00    -0.280 N 
ATOM     34  H   LIG    1        1.935  -2.972  -2.392  0.00  0.00    +0.155 HD
ENDROOT
BRANCH   8  35
ATOM     35  C   LIG    1       -0.301   0.555  -5.051  0.00  0.00    +0.014 C 
ATOM     36  C   LIG    1       -0.266   2.090  -5.034  0.00  0.00    +0.009 C 
ATOM     37  C   LIG    1       -1.361   0.109  -6.068  0.00  0.00    +0.009 C 
ENDBRANCH   8  35
BRANCH  17  38
ATOM     38  C   LIG    1        7.655  -0.016  -3.034  0.00  0.00    +0.012 C 
ATOM     39  C   LIG    1        6.960  -0.114  -4.394  0.00  0.00    +0.009 C 
ATOM     40  C   LIG    1        8.561  -1.246  -2.847  0.00  0.00    +0.009 C 
ENDBRANCH  17  38
TORSDOF 2
