REMARK  Name = *****
REMARK                            x       y       z     vdW  Elec       q    Type
REMARK                         _______ _______ _______ _____ _____    ______ ____
ROOT
ATOM      1  C   LIG    1        9.344  -2.051  -0.868  0.00  0.00    +0.098 C 
ENDROOT
BRANCH   1   2
ATOM      2  C   LIG    1        9.813  -3.389  -0.284  0.00  0.00    -0.014 A 
ATOM      3  C   LIG    1       10.371  -4.415  -1.074  0.00  0.00    +0.047 A 
ATOM      4 CL   LIG    1       10.695  -4.210  -2.759  0.00  0.00    -0.083 Cl
ATOM      5  C   LIG    1       10.681  -5.664  -0.521  0.00  0.00    +0.040 A 
ATOM      6  C   LIG    1       10.472  -5.896   0.835  0.00  0.00    +0.042 A 
ATOM      7 CL   LIG    1       10.856  -7.429   1.513  0.00  0.00    -0.084 Cl
ATOM      8  C   LIG    1        9.957  -4.893   1.646  0.00  0.00    +0.020 A 
ATOM      9  C   LIG    1        9.627  -3.653   1.093  0.00  0.00    +0.007 A 
ENDBRANCH   1   2
BRANCH   1  10
ATOM     10  S   LIG    1       10.366  -0.688  -0.089  0.00  0.00    -0.146 S 
BRANCH  10  11
ATOM     11  C   LIG    1        9.714   0.781  -0.945  0.00  0.00    +0.104 C 
BRANCH  11  16
ATOM     12 CL   LIG    1       12.412   5.886   0.824  0.00  0.00    -0.084 Cl
ATOM     13  C   LIG    1       11.642   4.431   0.320  0.00  0.00    +0.041 A 
ATOM     14  C   LIG    1       10.506   3.982   0.988  0.00  0.00    +0.020 A 
ATOM     15  C   LIG    1        9.884   2.797   0.581  0.00  0.00    +0.006 A 
ATOM     16  C   LIG    1       10.394   2.055  -0.498  0.00  0.00    -0.037 A 
ATOM     17  C   LIG    1       11.540   2.522  -1.158  0.00  0.00    +0.006 A 
ATOM     18  C   LIG    1       12.159   3.709  -0.753  0.00  0.00    +0.020 A 
ENDBRANCH  11  16
ENDBRANCH  10  11
ENDBRANCH   1  10
BRANCH   1  19
ATOM     19  C   LIG    1        7.826  -1.808  -0.672  0.00  0.00    +0.141 C 
BRANCH  19  20
ATOM     20  N   LIG    1        6.939  -2.756  -1.321  0.00  0.00    -0.336 N 
ATOM     21  C   LIG    1        6.800  -4.087  -1.026  0.00  0.00    +0.199 A 
ATOM     22  N   LIG    1        5.860  -4.642  -1.760  0.00  0.00    -0.244 NA
ATOM     23  C   LIG    1        5.342  -3.635  -2.529  0.00  0.00    +0.130 A 
ATOM     24  C   LIG    1        5.987  -2.448  -2.259  0.00  0.00    +0.107 A 
ENDBRANCH  19  20
ENDBRANCH   1  19
TORSDOF 6
