REMARK  Name = *****
REMARK                            x       y       z     vdW  Elec       q    Type
REMARK                         _______ _______ _______ _____ _____    ______ ____
ROOT
ATOM      1  C   LIG    1       -4.419   1.109  -0.807  0.00  0.00    +0.225 C 
ATOM      2  C   LIG    1       -4.830   2.558  -0.456  0.00  0.00    +0.045 C 
ATOM      3  C   LIG    1       -6.354   2.640  -0.294  0.00  0.00    +0.058 C 
ATOM      4  C   LIG    1       -6.842   1.548   0.652  0.00  0.00    +0.133 C 
ATOM      5  N   LIG    1       -5.637   0.960   1.410  0.00  0.00    +0.246 N 
ATOM      6  C   LIG    1       -4.817   2.107   2.028  0.00  0.00    +0.133 C 
ATOM      7  C   LIG    1       -4.203   2.939   0.896  0.00  0.00    +0.058 C 
ATOM      8  C   LIG    1       -4.715   0.198   0.400  0.00  0.00    +0.179 C 
ENDROOT
BRANCH   1   9
ATOM      9  O   LIG    1       -5.196   0.673  -1.956  0.00  0.00    -0.453 OA
BRANCH   9  11
ATOM     10  O   LIG    1       -3.712  -1.026  -2.230  0.00  0.00    -0.247 OA
ATOM     11  C   LIG    1       -4.682  -0.421  -2.642  0.00  0.00    +0.350 C 
BRANCH  11  12
ATOM     12  C   LIG    1       -5.543  -0.710  -3.935  0.00  0.00    +0.226 C 
BRANCH  12  13
ATOM     13  C   LIG    1       -6.640  -1.773  -3.720  0.00  0.00    +0.037 A 
ATOM     14  S   LIG    1       -7.202  -2.719  -5.069  0.00  0.00    -0.098 S 
ATOM     15  C   LIG    1       -8.370  -3.539  -4.145  0.00  0.00    +0.045 A 
ATOM     16  C   LIG    1       -8.388  -3.099  -2.844  0.00  0.00    +0.008 A 
ATOM     17  C   LIG    1       -7.403  -2.084  -2.600  0.00  0.00    +0.015 A 
ENDBRANCH  12  13
BRANCH  12  18
ATOM     18  C   LIG    1       -4.586  -0.996  -5.087  0.00  0.00    +0.037 A 
ATOM     19  S   LIG    1       -3.611  -2.424  -5.101  0.00  0.00    -0.098 S 
ATOM     20  C   LIG    1       -2.913  -2.024  -6.603  0.00  0.00    +0.045 A 
ATOM     21  C   LIG    1       -3.398  -0.838  -7.101  0.00  0.00    +0.008 A 
ATOM     22  C   LIG    1       -4.368  -0.253  -6.238  0.00  0.00    +0.015 A 
ENDBRANCH  12  18
BRANCH  12  23
ATOM     23  O   LIG    1       -6.255   0.490  -4.289  0.00  0.00    -0.369 OA
ATOM     24  H   LIG    1       -6.862   0.680  -3.556  0.00  0.00    +0.212 HD
ENDBRANCH  12  23
ENDBRANCH  11  12
ENDBRANCH   9  11
ENDBRANCH   1   9
BRANCH   5  25
ATOM     25  C   LIG    1       -6.088  -0.059   2.464  0.00  0.00    +0.136 C 
BRANCH  25  26
ATOM     26  C   LIG    1       -7.008   0.541   3.517  0.00  0.00    +0.092 C 
BRANCH  26  27
ATOM     27  C   LIG    1       -7.397  -0.513   4.535  0.00  0.00    +0.234 C 
BRANCH  27  28
ATOM     28  O   LIG    1       -8.060  -1.587   3.862  0.00  0.00    -0.492 OA
BRANCH  28  29
ATOM     29  C   LIG    1       -8.455  -2.596   4.703  0.00  0.00    +0.120 A 
ATOM     30  C   LIG    1       -8.826  -2.390   6.034  0.00  0.00    +0.045 A 
ATOM     31  C   LIG    1       -9.191  -3.462   6.841  0.00  0.00    +0.004 A 
ATOM     32  C   LIG    1       -9.196  -4.752   6.322  0.00  0.00    +0.000 A 
ATOM     33  C   LIG    1       -8.857  -4.965   4.986  0.00  0.00    +0.004 A 
ATOM     34  C   LIG    1       -8.503  -3.886   4.170  0.00  0.00    +0.045 A 
ENDBRANCH  28  29
ENDBRANCH  27  28
ENDBRANCH  26  27
ENDBRANCH  25  26
ENDBRANCH   5  25
TORSDOF 11
