REMARK  Name = *****
REMARK                            x       y       z     vdW  Elec       q    Type
REMARK                         _______ _______ _______ _____ _____    ______ ____
ROOT
ATOM      1  C   LIG    1        5.426   3.639   1.623  0.00  0.00    +0.162 C 
ENDROOT
BRANCH   1   2
ATOM      2  C   LIG    1        5.720   4.194   3.017  0.00  0.00    -0.007 A 
ATOM      3  C   LIG    1        5.955   3.381   4.169  0.00  0.00    +0.009 A 
ATOM      4  C   LIG    1        6.261   4.068   5.376  0.00  0.00    +0.071 A 
ATOM      5  C   LIG    1        6.537   3.351   6.524  0.00  0.00    +0.032 A 
ATOM      6  C   LIG    1        6.514   1.961   6.555  0.00  0.00    +0.048 A 
ATOM      7  C   LIG    1        6.181   1.254   5.409  0.00  0.00    +0.121 A 
ATOM      8  N   LIG    1        6.309   5.397   5.488  0.00  0.00    -0.255 NA
ATOM      9  C   LIG    1        6.073   6.135   4.393  0.00  0.00    +0.112 A 
ATOM     10  C   LIG    1        5.914   1.958   4.225  0.00  0.00    +0.056 A 
ATOM     11  C   LIG    1        5.780   5.594   3.159  0.00  0.00    +0.026 A 
BRANCH   7  12
ATOM     12  O   LIG    1        6.116  -0.111   5.336  0.00  0.00    -0.495 OA
ATOM     13  C   LIG    1        5.899  -0.776   6.581  0.00  0.00    +0.277 C 
ENDBRANCH   7  12
ENDBRANCH   1   2
BRANCH   1  17
ATOM     14  C   LIG    1        8.628   3.491  -1.463  0.00  0.00    +0.028 C 
ATOM     15  C   LIG    1        7.389   2.559  -1.401  0.00  0.00    -0.000 C 
ATOM     16  C   LIG    1        6.194   3.372  -0.849  0.00  0.00    +0.026 C 
ATOM     17  C   LIG    1        6.543   3.942   0.557  0.00  0.00    +0.090 C 
ATOM     18  N   LIG    1        7.916   3.517   0.957  0.00  0.00    -0.296 NA
ATOM     19  C   LIG    1        8.026   2.043   0.962  0.00  0.00    +0.085 C 
ATOM     20  C   LIG    1        7.630   1.429  -0.388  0.00  0.00    +0.019 C 
ATOM     21  C   LIG    1        8.882   4.051  -0.038  0.00  0.00    +0.092 C 
BRANCH  14  23
ATOM     22  C   LIG    1       10.505   3.165  -3.129  0.00  0.00    +0.004 C 
ATOM     23  C   LIG    1        9.860   2.801  -2.011  0.00  0.00    -0.029 C 
ENDBRANCH  14  23
ENDBRANCH   1  17
BRANCH   1  24
ATOM     24  O   LIG    1        4.187   4.210   1.163  0.00  0.00    -0.386 OA
ATOM     25  H   LIG    1        3.590   4.250   1.930  0.00  0.00    +0.210 HD
ENDBRANCH   1  24
TORSDOF 5
