REMARK  Name = *****
REMARK                            x       y       z     vdW  Elec       q    Type
REMARK                         _______ _______ _______ _____ _____    ______ ____
ROOT
ATOM      1  C   LIG    1        3.076   2.018  -1.755  0.00  0.00    +0.099 A 
ATOM      2  C   LIG    1        3.771   0.831  -2.050  0.00  0.00    +0.137 A 
ATOM      3  N   LIG    1        4.309   0.642  -3.283  0.00  0.00    -0.239 NA
ATOM      4  C   LIG    1        4.182   1.595  -4.226  0.00  0.00    +0.113 A 
ATOM      5  C   LIG    1        3.502   2.773  -4.022  0.00  0.00    +0.021 A 
ATOM      6  C   LIG    1        2.937   2.983  -2.770  0.00  0.00    +0.020 A 
ENDROOT
BRANCH   1   8
ATOM      7  O   LIG    1        2.585   1.490   0.542  0.00  0.00    -0.245 OA
ATOM      8  C   LIG    1        2.531   2.277  -0.389  0.00  0.00    +0.346 C 
BRANCH   8   9
ATOM      9  O   LIG    1        1.945   3.498  -0.349  0.00  0.00    -0.417 OA
BRANCH   9  10
ATOM     10  C   LIG    1        1.517   3.929   0.941  0.00  0.00    +0.403 C 
ATOM     11  C   LIG    1        0.648   5.123   0.759  0.00  0.00    +0.047 A 
ATOM     12  C   LIG    1        1.298   6.229   1.261  0.00  0.00    +0.069 A 
ATOM     13  C   LIG    1        0.774   7.507   1.193  0.00  0.00    +0.015 A 
ATOM     14  C   LIG    1       -0.475   7.660   0.593  0.00  0.00    +0.001 A 
ATOM     15  C   LIG    1       -1.165   6.539   0.099  0.00  0.00    +0.001 A 
ATOM     16  C   LIG    1        2.563   5.803   1.850  0.00  0.00    +0.343 C 
ATOM     17  O   LIG    1        3.378   6.512   2.383  0.00  0.00    -0.245 OA
ATOM     18  C   LIG    1       -0.604   5.258   0.180  0.00  0.00    +0.012 A 
ATOM     19  O   LIG    1        2.625   4.446   1.702  0.00  0.00    -0.417 OA
ENDBRANCH   9  10
ENDBRANCH   8   9
ENDBRANCH   1   8
BRANCH   2  20
ATOM     20  N   LIG    1        4.033  -0.125  -1.049  0.00  0.00    -0.299 N 
ATOM     21  H   LIG    1        3.296  -0.193  -0.351  0.00  0.00    +0.154 HD
BRANCH  20  22
ATOM     22  C   LIG    1        5.030  -1.109  -0.937  0.00  0.00    +0.033 A 
ATOM     23  C   LIG    1        5.864  -1.494  -1.991  0.00  0.00    +0.035 A 
ATOM     24  C   LIG    1        6.936  -2.385  -1.812  0.00  0.00    +0.057 A 
ATOM     25  C   LIG    1        7.191  -2.891  -0.534  0.00  0.00    +0.012 A 
ATOM     26  C   LIG    1        6.390  -2.504   0.539  0.00  0.00    +0.002 A 
ATOM     27  C   LIG    1        5.323  -1.621   0.336  0.00  0.00    +0.023 A 
BRANCH  24  28
ATOM     28  C   LIG    1        7.783  -2.748  -3.003  0.00  0.00    +0.417 C 
ATOM     29  F   LIG    1        8.379  -1.664  -3.575  0.00  0.00    -0.166 F 
ATOM     30  F   LIG    1        7.063  -3.344  -3.994  0.00  0.00    -0.166 F 
ATOM     31  F   LIG    1        8.794  -3.614  -2.710  0.00  0.00    -0.166 F 
ENDBRANCH  24  28
ENDBRANCH  20  22
ENDBRANCH   2  20
TORSDOF 6
