REMARK  Name = *****
REMARK                            x       y       z     vdW  Elec       q    Type
REMARK                         _______ _______ _______ _____ _____    ______ ____
ROOT
ATOM      1  C   LIG    1        6.750   1.813  -2.671  0.00  0.00    +0.021 C 
ATOM      2  C   LIG    1        7.486   0.694  -3.470  0.00  0.00    -0.033 A 
ATOM      3  C   LIG    1        8.904   0.744  -3.352  0.00  0.00    -0.036 A 
ATOM      4  C   LIG    1        9.721  -0.142  -4.046  0.00  0.00    +0.004 A 
ATOM      5  C   LIG    1        9.128  -1.114  -4.850  0.00  0.00    +0.000 A 
ATOM      6  C   LIG    1        7.733  -1.198  -4.946  0.00  0.00    +0.000 A 
ATOM      7  C   LIG    1        9.410   1.846  -2.430  0.00  0.00    +0.050 C 
ATOM      8  C   LIG    1        8.830   3.161  -2.926  0.00  0.00    -0.036 A 
ATOM      9  C   LIG    1        9.591   4.288  -3.226  0.00  0.00    +0.004 A 
ATOM     10  C   LIG    1        8.949   5.419  -3.715  0.00  0.00    +0.000 A 
ATOM     11  C   LIG    1        7.564   5.407  -3.933  0.00  0.00    +0.000 A 
ATOM     12  C   LIG    1        6.799   4.269  -3.641  0.00  0.00    +0.005 A 
ATOM     13  C   LIG    1        8.762   1.585  -1.056  0.00  0.00    +0.014 C 
ATOM     14  C   LIG    1        6.909  -0.296  -4.263  0.00  0.00    +0.005 A 
ATOM     15  C   LIG    1        7.413   3.150  -3.098  0.00  0.00    -0.033 A 
ATOM     16  C   LIG    1        7.210   1.581  -1.186  0.00  0.00    +0.017 C 
ENDROOT
BRANCH   1  17
ATOM     17  C   LIG    1        5.197   1.732  -2.790  0.00  0.00    +0.017 C 
BRANCH  17  18
ATOM     18  C   LIG    1        4.357   2.646  -1.869  0.00  0.00    +0.016 C 
BRANCH  18  19
ATOM     19  C   LIG    1        2.847   2.416  -2.082  0.00  0.00    +0.080 C 
BRANCH  19  21
ATOM     20  C   LIG    1        0.622   3.038  -1.365  0.00  0.00    +0.101 C 
ATOM     21  N   LIG    1        2.051   3.309  -1.235  0.00  0.00    -0.319 NA
ATOM     22  H   LIG    1        2.320   3.196  -0.258  0.00  0.00    +0.122 HD
ENDBRANCH  19  21
ENDBRANCH  18  19
ENDBRANCH  17  18
ENDBRANCH   1  17
TORSDOF 4
