REMARK  Name = *****
REMARK                            x       y       z     vdW  Elec       q    Type
REMARK                         _______ _______ _______ _____ _____    ______ ____
ROOT
ATOM      1  C   LIG    1        7.152  -0.145   2.213  0.00  0.00    +0.120 A 
ATOM      2  C   LIG    1        7.509  -1.248   1.458  0.00  0.00    +0.046 A 
ATOM      3  C   LIG    1        8.656  -1.956   1.772  0.00  0.00    +0.015 A 
ATOM      4  C   LIG    1        9.550  -1.520   2.725  0.00  0.00    +0.018 A 
ATOM      5  C   LIG    1        9.138  -0.503   3.596  0.00  0.00    +0.015 A 
ATOM      6  C   LIG    1        7.912   0.159   3.349  0.00  0.00    +0.046 A 
ENDROOT
BRANCH   4   7
ATOM      7  C   LIG    1       10.933  -2.118   2.814  0.00  0.00    +0.164 C 
ATOM      8  O   LIG    1       11.449  -2.230   3.906  0.00  0.00    -0.292 OA
BRANCH   7   9
ATOM      9  C   LIG    1       11.697  -2.528   1.514  0.00  0.00    +0.095 C 
BRANCH   9  10
ATOM     10  C   LIG    1       11.031  -2.257   0.159  0.00  0.00    +0.092 C 
BRANCH  10  11
ATOM     11  N   LIG    1       11.725  -2.674  -1.060  0.00  0.00    -0.302 NA
ATOM     12  C   LIG    1       10.838  -2.542  -2.239  0.00  0.00    +0.084 C 
ATOM     13  C   LIG    1       10.547  -1.093  -2.642  0.00  0.00    +0.015 C 
ATOM     14  C   LIG    1       11.845  -0.314  -2.820  0.00  0.00    +0.002 C 
ATOM     15  C   LIG    1       12.774  -0.483  -1.619  0.00  0.00    +0.015 C 
ATOM     16  C   LIG    1       12.978  -1.957  -1.271  0.00  0.00    +0.084 C 
ENDBRANCH  10  11
ENDBRANCH   9  10
ENDBRANCH   7   9
ENDBRANCH   4   7
BRANCH   1  17
ATOM     17  O   LIG    1        6.069   0.640   1.920  0.00  0.00    -0.492 OA
BRANCH  17  18
ATOM     18  C   LIG    1        5.676   0.688   0.534  0.00  0.00    +0.229 C 
BRANCH  18  19
ATOM     19  C   LIG    1        5.660   2.128   0.019  0.00  0.00    +0.041 C 
BRANCH  19  21
ATOM     20  C   LIG    1        7.045   4.229  -0.365  0.00  0.00    +0.004 C 
ATOM     21  C   LIG    1        7.029   2.801   0.159  0.00  0.00    +0.000 C 
ENDBRANCH  19  21
ENDBRANCH  18  19
ENDBRANCH  17  18
ENDBRANCH   1  17
TORSDOF 8
