REMARK  Name = *****
REMARK                            x       y       z     vdW  Elec       q    Type
REMARK                         _______ _______ _______ _____ _____    ______ ____
ROOT
ATOM      1  C   LIG    1        6.167   2.783   1.048  0.00  0.00    +0.121 A 
ATOM      2  C   LIG    1        7.160   1.858   1.389  0.00  0.00    +0.049 A 
ATOM      3  C   LIG    1        8.505   2.219   1.305  0.00  0.00    +0.049 A 
ATOM      4  C   LIG    1        8.862   3.498   0.892  0.00  0.00    +0.121 A 
ATOM      5  C   LIG    1        7.872   4.405   0.498  0.00  0.00    +0.049 A 
ATOM      6  C   LIG    1        6.529   4.047   0.588  0.00  0.00    +0.049 A 
ENDROOT
BRANCH   1   7
ATOM      7  O   LIG    1        4.821   2.565   1.132  0.00  0.00    -0.492 OA
BRANCH   7   8
ATOM      8  C   LIG    1        4.399   1.290   1.589  0.00  0.00    +0.229 C 
BRANCH   8   9
ATOM      9  C   LIG    1        2.874   1.242   1.597  0.00  0.00    +0.041 C 
BRANCH   9  11
ATOM     10  C   LIG    1        0.779   1.401   0.206  0.00  0.00    +0.004 C 
ATOM     11  C   LIG    1        2.295   1.496   0.205  0.00  0.00    +0.000 C 
ENDBRANCH   9  11
ENDBRANCH   8   9
ENDBRANCH   7   8
ENDBRANCH   1   7
BRANCH   4  12
ATOM     12  O   LIG    1       10.201   3.779   0.881  0.00  0.00    -0.492 OA
BRANCH  12  13
ATOM     13  C   LIG    1       10.525   5.153   1.095  0.00  0.00    +0.230 C 
BRANCH  13  14
ATOM     14  C   LIG    1       12.036   5.304   1.108  0.00  0.00    +0.056 C 
BRANCH  14  15
ATOM     15  C   LIG    1       12.665   4.838  -0.215  0.00  0.00    +0.088 C 
BRANCH  15  16
ATOM     16  N   LIG    1       14.124   5.037  -0.232  0.00  0.00    -0.298 NA
ATOM     17  C   LIG    1       14.821   4.256   0.816  0.00  0.00    +0.112 C 
ATOM     18  C   LIG    1       14.869   2.746   0.540  0.00  0.00    +0.175 C 
ATOM     19  O   LIG    1       15.488   2.471  -0.722  0.00  0.00    -0.377 OA
ATOM     20  C   LIG    1       14.792   3.138  -1.782  0.00  0.00    +0.175 C 
ATOM     21  C   LIG    1       14.715   4.657  -1.539  0.00  0.00    +0.112 C 
ENDBRANCH  15  16
ENDBRANCH  14  15
ENDBRANCH  13  14
ENDBRANCH  12  13
ENDBRANCH   4  12
TORSDOF 9
