REMARK  Name = *****
REMARK                            x       y       z     vdW  Elec       q    Type
REMARK                         _______ _______ _______ _____ _____    ______ ____
ROOT
ATOM      1  C   LIG    1       12.185 -12.057  -5.886  0.00  0.00    +0.001 C 
ENDROOT
BRANCH   1   2
ATOM      2  C   LIG    1       13.363 -11.248  -6.514  0.00  0.00    +0.001 C 
BRANCH   2   3
ATOM      3  C   LIG    1       13.109  -9.736  -6.665  0.00  0.00    +0.015 C 
BRANCH   3   4
ATOM      4  C   LIG    1       14.282  -8.933  -7.283  0.00  0.00    +0.081 C 
BRANCH   4   5
ATOM      5  N   LIG    1       15.499  -8.876  -6.459  0.00  0.00    -0.313 NA
ATOM      6  H   LIG    1       15.758  -9.832  -6.213  0.00  0.00    +0.122 HD
BRANCH   5   7
ATOM      7  C   LIG    1       16.662  -8.300  -7.190  0.00  0.00    +0.117 C 
BRANCH   7   8
ATOM      8  C   LIG    1       16.584  -6.800  -7.601  0.00  0.00    +0.158 C 
BRANCH   8   9
ATOM      9  C   LIG    1       17.804  -6.219  -8.272  0.00  0.00    -0.014 A 
ATOM     10  C   LIG    1       18.605  -6.961  -9.156  0.00  0.00    +0.055 A 
ATOM     11  C   LIG    1       19.628  -6.339  -9.858  0.00  0.00    +0.159 A 
ATOM     12  C   LIG    1       19.875  -4.978  -9.709  0.00  0.00    +0.158 A 
ATOM     13  C   LIG    1       19.092  -4.215  -8.855  0.00  0.00    +0.049 A 
ATOM     14  C   LIG    1       18.068  -4.837  -8.134  0.00  0.00    +0.010 A 
BRANCH  12  15
ATOM     15  O   LIG    1       20.892  -4.427 -10.437  0.00  0.00    -0.503 OA
ATOM     16  H   LIG    1       20.981  -3.498 -10.165  0.00  0.00    +0.292 HD
ENDBRANCH  12  15
BRANCH  11  17
ATOM     17  O   LIG    1       20.381  -7.079 -10.726  0.00  0.00    -0.503 OA
ATOM     18  H   LIG    1       20.998  -6.431 -11.123  0.00  0.00    +0.292 HD
ENDBRANCH  11  17
ENDBRANCH   8   9
BRANCH   8  19
ATOM     19  O   LIG    1       15.558  -6.593  -8.569  0.00  0.00    -0.386 OA
ATOM     20  H   LIG    1       14.795  -6.228  -8.078  0.00  0.00    +0.210 HD
ENDBRANCH   8  19
ENDBRANCH   7   8
ENDBRANCH   5   7
ENDBRANCH   4   5
ENDBRANCH   3   4
ENDBRANCH   2   3
ENDBRANCH   1   2
BRANCH   1  21
ATOM     21  C   LIG    1       12.551 -13.556  -5.746  0.00  0.00    +0.015 C 
BRANCH  21  22
ATOM     22  C   LIG    1       11.690 -14.481  -4.840  0.00  0.00    +0.081 C 
BRANCH  22  23
ATOM     23  N   LIG    1       10.272 -14.651  -5.187  0.00  0.00    -0.313 NA
ATOM     24  H   LIG    1        9.790 -13.752  -5.157  0.00  0.00    +0.122 HD
BRANCH  23  25
ATOM     25  C   LIG    1        9.585 -15.610  -4.264  0.00  0.00    +0.117 C 
BRANCH  25  26
ATOM     26  C   LIG    1        8.050 -15.807  -4.534  0.00  0.00    +0.158 C 
BRANCH  26  30
ATOM     27  C   LIG    1        5.991 -18.152  -1.441  0.00  0.00    +0.158 A 
ATOM     28  C   LIG    1        5.736 -16.795  -1.624  0.00  0.00    +0.159 A 
ATOM     29  C   LIG    1        6.364 -16.085  -2.641  0.00  0.00    +0.055 A 
ATOM     30  C   LIG    1        7.317 -16.675  -3.492  0.00  0.00    -0.014 A 
ATOM     31  C   LIG    1        7.535 -18.055  -3.320  0.00  0.00    +0.010 A 
ATOM     32  C   LIG    1        6.883 -18.791  -2.305  0.00  0.00    +0.049 A 
BRANCH  27  33
ATOM     33  O   LIG    1        5.367 -18.790  -0.411  0.00  0.00    -0.503 OA
ATOM     34  H   LIG    1        5.494 -19.751  -0.467  0.00  0.00    +0.292 HD
ENDBRANCH  27  33
BRANCH  28  35
ATOM     35  O   LIG    1        4.865 -16.159  -0.783  0.00  0.00    -0.503 OA
ATOM     36  H   LIG    1        4.833 -15.223  -1.027  0.00  0.00    +0.292 HD
ENDBRANCH  28  35
ENDBRANCH  26  30
BRANCH  26  37
ATOM     37  O   LIG    1        7.450 -14.496  -4.578  0.00  0.00    -0.386 OA
ATOM     38  H   LIG    1        7.762 -14.025  -3.789  0.00  0.00    +0.210 HD
ENDBRANCH  26  37
ENDBRANCH  25  26
ENDBRANCH  23  25
ENDBRANCH  22  23
ENDBRANCH  21  22
ENDBRANCH   1  21
TORSDOF 19
