REMARK  Name = *****
REMARK                            x       y       z     vdW  Elec       q    Type
REMARK                         _______ _______ _______ _____ _____    ______ ____
ROOT
ATOM      1  C   LIG    1        0.927  -1.199   0.172  0.00  0.00    +0.129 C 
ATOM      2  N   LIG    1        2.296  -0.843  -0.160  0.00  0.00    -0.330 N 
ATOM      3  C   LIG    1        2.829   0.431  -0.096  0.00  0.00    +0.039 C 
ATOM      4  C   LIG    1        4.275   0.333  -0.110  0.00  0.00    +0.006 C 
ATOM      5  C   LIG    1        5.105   1.375  -0.029  0.00  0.00    +0.041 C 
ATOM      6  C   LIG    1        4.534   2.741   0.052  0.00  0.00    +0.129 C 
ATOM      7  C   LIG    1        3.004   2.854   0.060  0.00  0.00    +0.207 C 
ATOM      8  O   LIG    1        2.450   3.944   0.134  0.00  0.00    -0.285 OA
ATOM      9  N   LIG    1        5.360   3.751   0.105  0.00  0.00    -0.175 NA
ATOM     10  C   LIG    1        4.650  -1.121  -0.235  0.00  0.00    +0.164 C 
ATOM     11  C   LIG    1        2.207   1.611  -0.021  0.00  0.00    +0.076 C 
ATOM     12  C   LIG    1        3.334  -1.860   0.097  0.00  0.00    +0.140 C 
ENDROOT
BRANCH   9  13
ATOM     13  N   LIG    1        4.829   5.011   0.179  0.00  0.00    -0.190 N 
ATOM     14  H   LIG    1        3.815   5.147   0.176  0.00  0.00    +0.179 HD
ATOM     15  C   LIG    1        5.616   6.134   0.219  0.00  0.00    +0.317 C 
ATOM     16  O   LIG    1        5.172   7.275   0.240  0.00  0.00    -0.251 OA
ATOM     17  N   LIG    1        6.949   5.877   0.236  0.00  0.00    -0.312 N 
ATOM     18  H   LIG    1        7.581   6.651   0.105  0.00  0.00    +0.146 HD
ATOM     19  H   LIG    1        7.212   4.941  -0.038  0.00  0.00    +0.146 HD
ENDBRANCH   9  13
BRANCH  10  20
ATOM     20  O   LIG    1        5.041  -1.369  -1.585  0.00  0.00    -0.386 OA
ATOM     21  H   LIG    1        4.280  -1.112  -2.139  0.00  0.00    +0.210 HD
ENDBRANCH  10  20
TORSDOF 2
