REMARK  Name = *****
REMARK                            x       y       z     vdW  Elec       q    Type
REMARK                         _______ _______ _______ _____ _____    ______ ____
ROOT
ATOM      1  C   LIG    1       12.386   1.251  -8.065  0.00  0.00    +0.133 C 
ENDROOT
BRANCH   1   2
ATOM      2  N   LIG    1       12.585   2.810  -8.177  0.00  0.00    +0.241 N 
ATOM      3  C   LIG    1       11.241   3.510  -8.320  0.00  0.00    +0.192 C 
ATOM      4  C   LIG    1       13.395   3.085  -9.461  0.00  0.00    +0.192 C 
BRANCH   2   5
ATOM      5  C   LIG    1       13.394   3.347  -6.952  0.00  0.00    +0.174 C 
BRANCH   5   6
ATOM      6  C   LIG    1       13.682   4.871  -6.940  0.00  0.00    +0.279 C 
BRANCH   6   7
ATOM      7  O   LIG    1       14.501   5.221  -8.054  0.00  0.00    -0.487 OA
BRANCH   7   8
ATOM      8  C   LIG    1       14.931   6.504  -8.194  0.00  0.00    +0.121 A 
ATOM      9  C   LIG    1       15.627   6.783  -9.367  0.00  0.00    +0.045 A 
ATOM     10  C   LIG    1       16.218   8.028  -9.581  0.00  0.00    +0.004 A 
ATOM     11  C   LIG    1       16.117   9.012  -8.587  0.00  0.00    +0.000 A 
ATOM     12  C   LIG    1       15.384   8.755  -7.440  0.00  0.00    +0.004 A 
ATOM     13  C   LIG    1       14.765   7.519  -7.239  0.00  0.00    +0.045 A 
ENDBRANCH   7   8
ENDBRANCH   6   7
ENDBRANCH   5   6
ENDBRANCH   2   5
ENDBRANCH   1   2
BRANCH   1  14
ATOM     14  C   LIG    1       11.504   0.817  -6.872  0.00  0.00    +0.051 C 
BRANCH  14  15
ATOM     15  C   LIG    1       11.268  -0.705  -6.794  0.00  0.00    +0.005 C 
BRANCH  15  16
ATOM     16  C   LIG    1       10.398  -1.108  -5.587  0.00  0.00    +0.000 C 
BRANCH  16  17
ATOM     17  C   LIG    1       10.196  -2.630  -5.470  0.00  0.00    -0.000 C 
BRANCH  17  18
ATOM     18  C   LIG    1        9.523  -3.314  -6.675  0.00  0.00    -0.000 C 
BRANCH  18  19
ATOM     19  C   LIG    1        8.069  -2.870  -6.897  0.00  0.00    -0.000 C 
BRANCH  19  20
ATOM     20  C   LIG    1        7.406  -3.535  -8.119  0.00  0.00    -0.000 C 
BRANCH  20  21
ATOM     21  C   LIG    1        5.972  -3.014  -8.348  0.00  0.00    -0.000 C 
BRANCH  21  22
ATOM     22  C   LIG    1        5.265  -3.693  -9.536  0.00  0.00    -0.000 C 
BRANCH  22  24
ATOM     23  C   LIG    1        3.127  -3.839 -10.916  0.00  0.00    +0.004 C 
ATOM     24  C   LIG    1        3.817  -3.208  -9.711  0.00  0.00    -0.003 C 
ENDBRANCH  22  24
ENDBRANCH  21  22
ENDBRANCH  20  21
ENDBRANCH  19  20
ENDBRANCH  18  19
ENDBRANCH  17  18
ENDBRANCH  16  17
ENDBRANCH  15  16
ENDBRANCH  14  15
ENDBRANCH   1  14
TORSDOF 15
