REMARK  Name = *****
REMARK                            x       y       z     vdW  Elec       q    Type
REMARK                         _______ _______ _______ _____ _____    ______ ____
ROOT
ATOM      1  C   LIG    1        0.450  12.715  -5.612  0.00  0.00    +0.015 C 
ATOM      2  C   LIG    1        0.004  13.981  -6.403  0.00  0.00    +0.018 C 
ATOM      3  C   LIG    1       -0.637  12.396  -4.515  0.00  0.00    +0.128 C 
ATOM      4  C   LIG    1       -1.903  11.684  -5.080  0.00  0.00    +0.022 C 
ATOM      5  C   LIG    1       -3.216  12.418  -4.720  0.00  0.00    +0.010 C 
ATOM      6  C   LIG    1       -1.976  10.133  -4.769  0.00  0.00    -0.014 C 
ATOM      7  C   LIG    1       -0.615   9.362  -4.621  0.00  0.00    +0.071 C 
ATOM      8  C   LIG    1       -1.025   8.212  -3.679  0.00  0.00    +0.138 C 
ATOM      9  O   LIG    1       -0.339   7.239  -3.392  0.00  0.00    -0.297 OA
ATOM     10  C   LIG    1       -2.344   8.457  -3.005  0.00  0.00    +0.075 C 
ATOM     11  C   LIG    1        0.171   9.026  -5.937  0.00  0.00    +0.018 C 
ATOM     12  C   LIG    1        1.089   7.774  -5.698  0.00  0.00    +0.016 C 
ATOM     13  C   LIG    1       -0.794   8.601  -7.114  0.00  0.00    -0.004 C 
ATOM     14  C   LIG    1       -0.165   8.564  -8.514  0.00  0.00    +0.008 C 
ATOM     15  C   LIG    1       -2.127   9.352  -7.202  0.00  0.00    +0.004 C 
ATOM     16  C   LIG    1        1.202  10.213  -6.227  0.00  0.00    +0.184 C 
ATOM     17  C   LIG    1       -2.832   9.429  -5.858  0.00  0.00    +0.008 C 
ATOM     18  C   LIG    1       -2.626   9.900  -3.381  0.00  0.00    +0.015 C 
ATOM     19  C   LIG    1        0.669  11.586  -6.678  0.00  0.00    +0.058 C 
ENDROOT
BRANCH   1  21
ATOM     20  C   LIG    1        2.725  13.881  -5.230  0.00  0.00    +0.004 C 
ATOM     21  C   LIG    1        1.781  12.989  -4.894  0.00  0.00    -0.025 C 
ENDBRANCH   1  21
BRANCH   3  22
ATOM     22  O   LIG    1       -0.997  13.618  -3.854  0.00  0.00    -0.391 OA
ATOM     23  H   LIG    1       -1.379  13.394  -2.989  0.00  0.00    +0.210 HD
ENDBRANCH   3  22
BRANCH  16  24
ATOM     24  O   LIG    1        2.113   9.753  -7.269  0.00  0.00    -0.460 OA
BRANCH  24  25
ATOM     25  C   LIG    1        3.406  10.181  -7.218  0.00  0.00    +0.317 C 
ATOM     26  O   LIG    1        3.838  11.034  -6.456  0.00  0.00    -0.250 OA
BRANCH  25  27
ATOM     27  C   LIG    1        4.255   9.427  -8.212  0.00  0.00    +0.189 C 
BRANCH  27  28
ATOM     28  S   LIG    1        4.271  10.192  -9.861  0.00  0.00    -0.146 S 
BRANCH  28  29
ATOM     29  C   LIG    1        4.971  11.846  -9.470  0.00  0.00    +0.050 C 
ATOM     30  C   LIG    1        6.287  11.770  -8.677  0.00  0.00    +0.033 C 
ATOM     31  C   LIG    1        7.037  13.114  -8.667  0.00  0.00    +0.058 C 
ATOM     32  N   LIG    1        7.325  13.595 -10.020  0.00  0.00    -0.299 NA
ATOM     33  C   LIG    1        8.157  12.727 -10.834  0.00  0.00    +0.105 C 
ATOM     34  C   LIG    1        6.001  13.915 -10.565  0.00  0.00    +0.058 C 
ATOM     35  C   LIG    1        5.459  14.793  -9.429  0.00  0.00    +0.020 C 
ATOM     36  C   LIG    1        6.137  14.250  -8.163  0.00  0.00    +0.020 C 
ATOM     37  C   LIG    1        5.129  12.658 -10.771  0.00  0.00    +0.033 C 
ENDBRANCH  28  29
ENDBRANCH  27  28
ENDBRANCH  25  27
ENDBRANCH  24  25
ENDBRANCH  16  24
TORSDOF 7
