REMARK  Name = *****
REMARK                            x       y       z     vdW  Elec       q    Type
REMARK                         _______ _______ _______ _____ _____    ______ ____
ROOT
ATOM      1  C   LIG    1        0.193  -2.403   2.837  0.00  0.00    +0.148 C 
ENDROOT
BRANCH   1   2
ATOM      2  C   LIG    1       -0.958  -1.409   2.645  0.00  0.00    -0.020 A 
ATOM      3  C   LIG    1       -2.269  -1.821   2.335  0.00  0.00    +0.006 A 
ATOM      4  C   LIG    1       -3.288  -0.887   2.131  0.00  0.00    +0.000 A 
ATOM      5  C   LIG    1       -3.025   0.473   2.251  0.00  0.00    +0.000 A 
ATOM      6  C   LIG    1       -1.741   0.902   2.587  0.00  0.00    +0.000 A 
ATOM      7  C   LIG    1       -0.718  -0.028   2.783  0.00  0.00    +0.006 A 
ENDBRANCH   1   2
BRANCH   1   8
ATOM      8  C   LIG    1        0.066  -3.712   2.039  0.00  0.00    -0.020 A 
ATOM      9  C   LIG    1        0.011  -3.670   0.635  0.00  0.00    +0.006 A 
ATOM     10  C   LIG    1       -0.211  -4.835  -0.120  0.00  0.00    +0.009 A 
ATOM     11  C   LIG    1       -0.376  -6.090   0.490  0.00  0.00    -0.018 A 
ATOM     12  C   LIG    1       -0.255  -6.127   1.887  0.00  0.00    +0.009 A 
ATOM     13  C   LIG    1       -0.035  -4.971   2.645  0.00  0.00    +0.006 A 
BRANCH  11  14
ATOM     14  C   LIG    1       -0.671  -7.323  -0.285  0.00  0.00    -0.018 A 
ATOM     15  C   LIG    1       -1.458  -8.360   0.261  0.00  0.00    +0.008 A 
ATOM     16  C   LIG    1       -1.727  -9.535  -0.449  0.00  0.00    +0.001 A 
ATOM     17  C   LIG    1       -1.225  -9.699  -1.735  0.00  0.00    +0.000 A 
ATOM     18  C   LIG    1       -0.457  -8.690  -2.306  0.00  0.00    +0.001 A 
ATOM     19  C   LIG    1       -0.181  -7.520  -1.588  0.00  0.00    +0.008 A 
ENDBRANCH  11  14
ENDBRANCH   1   8
BRANCH   1  23
ATOM     20  C   LIG    1        0.334  -3.141   6.388  0.00  0.00    +0.130 A 
ATOM     21  N   LIG    1        1.669  -3.046   6.093  0.00  0.00    -0.244 NA
ATOM     22  C   LIG    1        1.721  -2.736   4.817  0.00  0.00    +0.200 A 
ATOM     23  N   LIG    1        0.467  -2.632   4.269  0.00  0.00    -0.325 N 
ATOM     24  C   LIG    1       -0.431  -2.873   5.278  0.00  0.00    +0.108 A 
ENDBRANCH   1  23
TORSDOF 4
