REMARK  Name = *****
REMARK                            x       y       z     vdW  Elec       q    Type
REMARK                         _______ _______ _______ _____ _____    ______ ____
ROOT
ATOM      1  C   LIG    1       12.339   8.547  -0.215  0.00  0.00    +0.165 C 
ATOM      2  C   LIG    1       11.957   7.311  -1.100  0.00  0.00    +0.012 C 
ATOM      3  C   LIG    1       13.113   7.232  -2.141  0.00  0.00    +0.004 C 
ATOM      4  C   LIG    1       14.270   6.272  -1.802  0.00  0.00    -0.000 C 
ATOM      5  C   LIG    1       13.770   4.885  -1.347  0.00  0.00    +0.035 C 
ATOM      6  C   LIG    1       12.901   5.072  -0.087  0.00  0.00    +0.120 C 
ATOM      7  C   LIG    1       13.203   3.941  -2.489  0.00  0.00    +0.013 C 
ATOM      8  C   LIG    1       14.066   4.024  -3.778  0.00  0.00    -0.056 C 
ATOM      9  C   LIG    1       13.673   3.293  -4.850  0.00  0.00    +0.051 C 
ATOM     10  C   LIG    1       12.302   3.752  -5.294  0.00  0.00    +0.179 C 
ATOM     11  C   LIG    1       11.351   4.127  -4.209  0.00  0.00    +0.047 C 
ATOM     12  O   LIG    1       11.958   3.720  -6.467  0.00  0.00    -0.288 OA
ATOM     13  C   LIG    1       14.694   5.360  -4.129  0.00  0.00    +0.032 C 
ATOM     14  C   LIG    1       13.241   2.489  -1.934  0.00  0.00    +0.020 C 
ATOM     15  C   LIG    1       11.758   4.174  -2.927  0.00  0.00    -0.012 C 
ATOM     16  C   LIG    1       15.285   6.088  -2.937  0.00  0.00    +0.008 C 
ATOM     17  C   LIG    1       13.560   8.701  -2.342  0.00  0.00    +0.039 C 
ATOM     18  C   LIG    1       10.660   7.545  -1.931  0.00  0.00    +0.015 C 
ATOM     19  C   LIG    1       11.735   6.050  -0.231  0.00  0.00    +0.042 C 
ATOM     20  C   LIG    1       12.979   9.529  -1.183  0.00  0.00    +0.162 C 
ATOM     21  O   LIG    1       14.022  10.141  -0.424  0.00  0.00    -0.344 OA
ATOM     22  C   LIG    1       14.489   9.113   0.445  0.00  0.00    +0.255 C 
ATOM     23  O   LIG    1       13.396   8.220   0.710  0.00  0.00    -0.334 OA
ENDROOT
BRANCH  22  24
ATOM     24  C   LIG    1       15.102   9.707   1.726  0.00  0.00    +0.045 C 
ATOM     25  C   LIG    1       15.523   8.633   2.745  0.00  0.00    +0.008 C 
ATOM     26  C   LIG    1       16.757   7.840   2.311  0.00  0.00    +0.000 C 
ATOM     27  C   LIG    1       17.927   8.748   1.938  0.00  0.00    +0.000 C 
ATOM     28  C   LIG    1       17.529   9.822   0.931  0.00  0.00    +0.000 C 
ATOM     29  C   LIG    1       16.308  10.613   1.403  0.00  0.00    +0.008 C 
ENDBRANCH  22  24
BRANCH   1  30
ATOM     30  C   LIG    1       11.122   9.170   0.518  0.00  0.00    +0.205 C 
ATOM     31  O   LIG    1       10.124   9.570  -0.093  0.00  0.00    -0.291 OA
BRANCH  30  32
ATOM     32  C   LIG    1       11.194   9.306   2.039  0.00  0.00    +0.309 C 
BRANCH  32  33
ATOM     33  O   LIG    1        9.893   9.254   2.637  0.00  0.00    -0.457 OA
BRANCH  33  34
ATOM     34  C   LIG    1        9.344   8.002   2.696  0.00  0.00    +0.310 C 
ATOM     35  O   LIG    1        9.945   6.964   2.491  0.00  0.00    -0.251 OA
BRANCH  34  37
ATOM     36  C   LIG    1        7.145   8.264   1.598  0.00  0.00    +0.019 C 
ATOM     37  C   LIG    1        7.850   8.114   2.943  0.00  0.00    +0.092 C 
ATOM     38  C   LIG    1        7.335   6.899   3.708  0.00  0.00    +0.019 C 
ENDBRANCH  34  37
ENDBRANCH  33  34
ENDBRANCH  32  33
ENDBRANCH  30  32
ENDBRANCH   1  30
BRANCH   6  39
ATOM     39  O   LIG    1       13.755   5.508   0.982  0.00  0.00    -0.391 OA
ATOM     40  H   LIG    1       13.658   6.475   1.087  0.00  0.00    +0.210 HD
ENDBRANCH   6  39
TORSDOF 7
