REMARK  Name = *****
REMARK                            x       y       z     vdW  Elec       q    Type
REMARK                         _______ _______ _______ _____ _____    ______ ____
ROOT
ATOM      1  C   LIG    1       14.714   3.832  -2.306  0.00  0.00    +0.134 C 
ATOM      2  C   LIG    1       13.495   2.862  -2.437  0.00  0.00    +0.079 C 
ATOM      3  C   LIG    1       12.199   3.385  -1.759  0.00  0.00    +0.158 C 
ATOM      4  C   LIG    1       12.647   3.798  -0.364  0.00  0.00    +0.030 A 
ATOM      5  C   LIG    1       13.538   4.873  -0.297  0.00  0.00    +0.007 A 
ATOM      6  C   LIG    1       13.850   5.443   0.938  0.00  0.00    +0.132 A 
ATOM      7  C   LIG    1       13.618   4.720   2.114  0.00  0.00    +0.078 A 
ATOM      8  C   LIG    1       14.415   5.099   3.292  0.00  0.00    +0.198 C 
ATOM      9  O   LIG    1       14.507   6.279   3.599  0.00  0.00    -0.286 OA
ATOM     10  C   LIG    1       15.289   4.024   3.845  0.00  0.00    +0.037 A 
ATOM     11  C   LIG    1       14.894   2.667   3.736  0.00  0.00    +0.075 A 
ATOM     12  C   LIG    1       15.797   1.627   4.152  0.00  0.00    +0.132 A 
ATOM     13  C   LIG    1       17.093   1.996   4.559  0.00  0.00    +0.046 A 
ATOM     14  C   LIG    1       17.476   3.348   4.638  0.00  0.00    +0.004 A 
ATOM     15  C   LIG    1       13.594   2.401   2.991  0.00  0.00    +0.202 C 
ATOM     16  O   LIG    1       13.037   1.310   2.986  0.00  0.00    -0.286 OA
ATOM     17  C   LIG    1       16.581   4.365   4.287  0.00  0.00    +0.012 A 
ATOM     18  C   LIG    1       13.091   3.435   2.019  0.00  0.00    +0.078 A 
ATOM     19  C   LIG    1       12.490   3.028   0.797  0.00  0.00    +0.135 A 
ATOM     20  C   LIG    1       14.363   5.157  -1.550  0.00  0.00    +0.082 C 
ENDROOT
BRANCH   1  21
ATOM     21  O   LIG    1       15.151   4.129  -3.657  0.00  0.00    -0.381 OA
ATOM     22  H   LIG    1       15.342   3.261  -4.075  0.00  0.00    +0.211 HD
ENDBRANCH   1  21
BRANCH  19  23
ATOM     23  O   LIG    1       11.979   1.768   0.604  0.00  0.00    -0.506 OA
ATOM     24  H   LIG    1       12.218   1.213   1.381  0.00  0.00    +0.292 HD
ENDBRANCH  19  23
BRANCH   6  25
ATOM     25  O   LIG    1       14.625   6.572   0.914  0.00  0.00    -0.506 OA
ATOM     26  H   LIG    1       14.792   6.875   1.833  0.00  0.00    +0.292 HD
ENDBRANCH   6  25
BRANCH  12  27
ATOM     27  O   LIG    1       15.440   0.298   4.018  0.00  0.00    -0.494 OA
ATOM     28  C   LIG    1       16.081  -0.753   4.778  0.00  0.00    +0.277 C 
ENDBRANCH  12  27
BRANCH   1  29
ATOM     29  C   LIG    1       16.002   3.125  -1.771  0.00  0.00    +0.202 C 
ATOM     30  O   LIG    1       16.359   2.034  -2.243  0.00  0.00    -0.291 OA
BRANCH  29  31
ATOM     31  C   LIG    1       16.953   3.921  -0.871  0.00  0.00    +0.309 C 
BRANCH  31  32
ATOM     32  O   LIG    1       17.872   3.062  -0.201  0.00  0.00    -0.457 OA
BRANCH  32  33
ATOM     33  C   LIG    1       19.167   3.296  -0.527  0.00  0.00    +0.307 C 
ATOM     34  O   LIG    1       19.645   4.500  -0.727  0.00  0.00    -0.251 OA
BRANCH  33  35
ATOM     35  C   LIG    1       19.917   1.988  -0.682  0.00  0.00    +0.120 C 
BRANCH  35  36
ATOM     36  C   LIG    1       20.553   1.817  -2.164  0.00  0.00    +0.011 C 
BRANCH  36  38
ATOM     37  C   LIG    1       21.418   0.219  -4.411  0.00  0.00    +0.004 C 
ATOM     38  C   LIG    1       21.005   0.386  -2.865  0.00  0.00    -0.003 C 
ENDBRANCH  36  38
ENDBRANCH  35  36
ENDBRANCH  33  35
ENDBRANCH  32  33
ENDBRANCH  31  32
ENDBRANCH  29  31
ENDBRANCH   1  29
BRANCH   3  39
ATOM     39  O   LIG    1       11.620   4.479  -2.541  0.00  0.00    -0.343 OA
BRANCH  39  40
ATOM     40  C   LIG    1       10.326   4.931  -2.067  0.00  0.00    +0.253 C 
ATOM     41  O   LIG    1       10.465   5.505  -0.768  0.00  0.00    -0.346 OA
ATOM     42  C   LIG    1        9.249   5.950  -0.169  0.00  0.00    +0.148 C 
ATOM     43  C   LIG    1        9.561   6.512   1.223  0.00  0.00    +0.040 C 
ATOM     44  C   LIG    1        8.630   7.046  -1.020  0.00  0.00    +0.163 C 
ATOM     45  C   LIG    1        8.369   6.545  -2.449  0.00  0.00    +0.109 C 
ATOM     46  C   LIG    1        9.661   5.939  -3.057  0.00  0.00    +0.086 C 
BRANCH  45  47
ATOM     47  N   LIG    1        7.710   7.550  -3.323  0.00  0.00    -0.302 N 
ATOM     48  H   LIG    1        7.234   7.190  -4.149  0.00  0.00    +0.149 HD
ATOM     49  C   LIG    1        7.469   8.895  -3.009  0.00  0.00    +0.318 C 
ATOM     50  O   LIG    1        7.754   9.435  -1.923  0.00  0.00    -0.266 OA
BRANCH  49  51
ATOM     51  C   LIG    1        6.720   9.710  -4.059  0.00  0.00    +0.469 C 
ATOM     52  F   LIG    1        7.330   9.686  -5.275  0.00  0.00    -0.162 F 
ATOM     53  F   LIG    1        6.571  11.018  -3.715  0.00  0.00    -0.162 F 
ATOM     54  F   LIG    1        5.463   9.214  -4.252  0.00  0.00    -0.162 F 
ENDBRANCH  49  51
ENDBRANCH  45  47
BRANCH  44  55
ATOM     55  O   LIG    1        9.589   8.111  -1.052  0.00  0.00    -0.387 OA
ATOM     56  H   LIG    1        9.417   8.667  -0.271  0.00  0.00    +0.210 HD
ENDBRANCH  44  55
ENDBRANCH  39  40
ENDBRANCH   3  39
TORSDOF 16
