REMARK  Name = *****
REMARK                            x       y       z     vdW  Elec       q    Type
REMARK                         _______ _______ _______ _____ _____    ______ ____
ROOT
ATOM      1  N   LIG    1       -1.127   0.984   4.974  0.00  0.00    -0.311 NA
ATOM      2  H   LIG    1       -2.092   0.894   4.656  0.00  0.00    +0.122 HD
ENDROOT
BRANCH   1   3
ATOM      3  C   LIG    1       -0.470   2.110   4.292  0.00  0.00    +0.115 C 
BRANCH   3   4
ATOM      4  C   LIG    1       -1.149   3.474   4.590  0.00  0.00    +0.169 C 
BRANCH   4   5
ATOM      5  C   LIG    1       -0.402   4.611   3.861  0.00  0.00    +0.203 C 
ATOM      6  O   LIG    1       -0.413   4.285   2.460  0.00  0.00    -0.486 OA
ATOM      7  C   LIG    1       -0.057   5.282   1.605  0.00  0.00    +0.124 A 
ATOM      8  C   LIG    1        0.032   6.631   1.974  0.00  0.00    -0.003 A 
ATOM      9  C   LIG    1        0.391   7.574   1.009  0.00  0.00    +0.045 A 
ATOM     10  C   LIG    1        0.627   7.176  -0.308  0.00  0.00    +0.124 A 
ATOM     11  C   LIG    1        0.520   5.834  -0.674  0.00  0.00    +0.042 A 
ATOM     12  F   LIG    1        0.953   8.085  -1.225  0.00  0.00    -0.205 F 
ATOM     13  C   LIG    1       -0.229   7.046   3.394  0.00  0.00    +0.042 C 
ATOM     14  C   LIG    1        0.178   4.891   0.283  0.00  0.00    +0.049 A 
ATOM     15  C   LIG    1       -1.037   5.979   4.122  0.00  0.00    +0.052 C 
ENDBRANCH   4   5
BRANCH   4  16
ATOM     16  O   LIG    1       -1.186   3.726   5.998  0.00  0.00    -0.387 OA
ATOM     17  H   LIG    1       -1.649   2.957   6.383  0.00  0.00    +0.210 HD
ENDBRANCH   4  16
ENDBRANCH   3   4
ENDBRANCH   1   3
BRANCH   1  18
ATOM     18  C   LIG    1       -0.425  -0.286   4.691  0.00  0.00    +0.115 C 
BRANCH  18  19
ATOM     19  C   LIG    1       -1.055  -1.537   5.360  0.00  0.00    +0.169 C 
BRANCH  19  20
ATOM     20  C   LIG    1       -1.067  -1.453   6.902  0.00  0.00    +0.203 C 
ATOM     21  O   LIG    1       -1.903  -0.341   7.267  0.00  0.00    -0.486 OA
ATOM     22  C   LIG    1       -2.174  -0.215   8.596  0.00  0.00    +0.124 A 
ATOM     23  C   LIG    1       -2.035  -1.269   9.505  0.00  0.00    -0.003 A 
ATOM     24  C   LIG    1       -2.383  -1.054  10.841  0.00  0.00    +0.045 A 
ATOM     25  C   LIG    1       -2.880   0.185  11.240  0.00  0.00    +0.124 A 
ATOM     26  C   LIG    1       -3.026   1.228  10.331  0.00  0.00    +0.042 A 
ATOM     27  F   LIG    1       -3.229   0.374  12.518  0.00  0.00    -0.205 F 
ATOM     28  C   LIG    1       -1.501  -2.598   9.054  0.00  0.00    +0.042 C 
ATOM     29  C   LIG    1       -2.671   1.025   9.002  0.00  0.00    +0.049 A 
ATOM     30  C   LIG    1       -1.612  -2.732   7.539  0.00  0.00    +0.052 C 
ENDBRANCH  19  20
BRANCH  19  31
ATOM     31  O   LIG    1       -2.380  -1.742   4.848  0.00  0.00    -0.387 OA
ATOM     32  H   LIG    1       -2.974  -1.243   5.440  0.00  0.00    +0.210 HD
ENDBRANCH  19  31
ENDBRANCH  18  19
ENDBRANCH   1  18
TORSDOF 8
