REMARK  Name = *****
REMARK                            x       y       z     vdW  Elec       q    Type
REMARK                         _______ _______ _______ _____ _____    ______ ____
ROOT
ATOM      1  C   LIG    1        3.107   1.213  -0.754  0.00  0.00    +0.052 C 
ATOM      2  C   LIG    1        2.620   0.053   0.113  0.00  0.00    +0.021 C 
ATOM      3  C   LIG    1        2.469   2.522  -0.322  0.00  0.00    +0.226 C 
ATOM      4  O   LIG    1        1.302   2.693  -0.010  0.00  0.00    -0.275 OA
ATOM      5  N   LIG    1        3.412   3.495  -0.355  0.00  0.00    -0.256 N 
ATOM      6  H   LIG    1        3.218   4.455  -0.114  0.00  0.00    +0.158 HD
ATOM      7  C   LIG    1        4.671   2.998  -0.382  0.00  0.00    +0.220 C 
ATOM      8  O   LIG    1        5.692   3.652  -0.244  0.00  0.00    -0.275 OA
ATOM      9  C   LIG    1        4.603   1.503  -0.509  0.00  0.00    +0.112 C 
ENDROOT
BRANCH   1  11
ATOM     10  C   LIG    1        1.423   0.662  -2.648  0.00  0.00    +0.005 C 
ATOM     11  C   LIG    1        2.863   0.980  -2.264  0.00  0.00    +0.013 C 
ENDBRANCH   1  11
TORSDOF 1
