REMARK  Name = *****
REMARK                            x       y       z     vdW  Elec       q    Type
REMARK                         _______ _______ _______ _____ _____    ______ ____
ROOT
ATOM      1  C   LIG    1        7.911  -7.699  -4.644  0.00  0.00    +0.046 C 
ATOM      2  C   LIG    1        8.860  -7.559  -3.405  0.00  0.00    +0.031 C 
ATOM      3  C   LIG    1        9.509  -8.965  -3.248  0.00  0.00    +0.121 C 
ATOM      4  C   LIG    1        8.641  -9.930  -4.033  0.00  0.00    +0.063 C 
ATOM      5  C   LIG    1        8.178  -9.113  -5.212  0.00  0.00    +0.124 C 
ENDROOT
BRANCH   5   6
ATOM      6  O   LIG    1        7.018  -9.700  -5.781  0.00  0.00    -0.391 OA
ATOM      7  H   LIG    1        6.736  -9.131  -6.519  0.00  0.00    +0.210 HD
ENDBRANCH   5   6
BRANCH   3   8
ATOM      8  O   LIG    1        9.633  -9.415  -1.912  0.00  0.00    -0.391 OA
ATOM      9  H   LIG    1       10.012 -10.312  -1.946  0.00  0.00    +0.210 HD
ENDBRANCH   3   8
BRANCH   1  11
ATOM     10  C   LIG    1        8.950  -6.639  -6.756  0.00  0.00    -0.000 C 
ATOM     11  C   LIG    1        8.116  -6.598  -5.692  0.00  0.00    -0.022 C 
BRANCH  10  12
ATOM     12  C   LIG    1        9.265  -5.487  -7.685  0.00  0.00    +0.137 C 
BRANCH  12  13
ATOM     13  O   LIG    1       10.352  -4.790  -7.085  0.00  0.00    -0.388 OA
ATOM     14  H   LIG    1       10.300  -4.908  -6.124  0.00  0.00    +0.210 HD
ENDBRANCH  12  13
BRANCH  12  15
ATOM     15  C   LIG    1        9.715  -5.922  -9.097  0.00  0.00    +0.035 C 
BRANCH  15  16
ATOM     16  C   LIG    1       10.006  -4.771 -10.087  0.00  0.00    +0.003 C 
BRANCH  16  17
ATOM     17  C   LIG    1       11.126  -3.780  -9.727  0.00  0.00    -0.000 C 
BRANCH  17  19
ATOM     18  C   LIG    1       13.567  -3.356  -9.229  0.00  0.00    +0.004 C 
ATOM     19  C   LIG    1       12.515  -4.406  -9.573  0.00  0.00    -0.003 C 
ENDBRANCH  17  19
ENDBRANCH  16  17
ENDBRANCH  15  16
ENDBRANCH  12  15
ENDBRANCH  10  12
ENDBRANCH   1  11
BRANCH   2  20
ATOM     20  C   LIG    1        8.221  -7.007  -2.088  0.00  0.00    +0.033 C 
BRANCH  20  21
ATOM     21  C   LIG    1        7.673  -5.589  -2.174  0.00  0.00    -0.031 C 
ATOM     22  C   LIG    1        6.488  -5.008  -1.874  0.00  0.00    -0.031 C 
BRANCH  22  23
ATOM     23  C   LIG    1        5.173  -5.583  -1.387  0.00  0.00    +0.027 C 
BRANCH  23  24
ATOM     24  C   LIG    1        3.877  -4.779  -1.732  0.00  0.00    +0.015 C 
BRANCH  24  25
ATOM     25  C   LIG    1        3.666  -3.422  -1.051  0.00  0.00    +0.121 C 
BRANCH  25  26
ATOM     26  C   LIG    1        2.317  -2.798  -1.471  0.00  0.00    +0.305 C 
ATOM     27  O   LIG    1        1.244  -3.332  -1.340  0.00  0.00    -0.251 OA
BRANCH  26  28
ATOM     28  O   LIG    1        2.463  -1.546  -2.008  0.00  0.00    -0.481 OA
ATOM     29  H   LIG    1        3.368  -1.206  -2.041  0.00  0.00    +0.295 HD
ENDBRANCH  26  28
ENDBRANCH  25  26
ENDBRANCH  24  25
ENDBRANCH  23  24
ENDBRANCH  22  23
ENDBRANCH  20  21
ENDBRANCH   2  20
TORSDOF 16
