REMARK  Name = *****
REMARK                            x       y       z     vdW  Elec       q    Type
REMARK                         _______ _______ _______ _____ _____    ______ ____
ROOT
ATOM      1  C   LIG    1       -9.431   0.726   2.129  0.00  0.00    -0.024 A 
ATOM      2  C   LIG    1       -9.092   1.976   1.593  0.00  0.00    +0.044 A 
ATOM      3 CL   LIG    1       -7.982   2.151   0.281  0.00  0.00    -0.083 Cl
ATOM      4  C   LIG    1       -9.653   3.148   2.112  0.00  0.00    +0.021 A 
ATOM      5  C   LIG    1      -10.556   3.095   3.176  0.00  0.00    +0.010 A 
ATOM      6  C   LIG    1      -10.920   1.866   3.743  0.00  0.00    +0.014 A 
ATOM      7  C   LIG    1      -10.350   0.695   3.201  0.00  0.00    +0.014 A 
ENDROOT
BRANCH   6   8
ATOM      8  C   LIG    1      -11.888   1.800   4.912  0.00  0.00    +0.227 C 
ATOM      9  C   LIG    1      -13.297   2.430   4.630  0.00  0.00    +0.209 C 
ATOM     10  C   LIG    1      -14.383   1.601   5.346  0.00  0.00    +0.180 C 
ATOM     11  C   LIG    1      -13.917   1.194   6.770  0.00  0.00    +0.182 C 
ATOM     12  C   LIG    1      -12.459   0.629   6.738  0.00  0.00    +0.147 C 
ATOM     13  C   LIG    1      -11.390   1.634   7.139  0.00  0.00    +0.203 C 
ATOM     14  O   LIG    1      -12.088   0.438   5.354  0.00  0.00    -0.329 OA
ATOM     15  O   LIG    1      -11.323   2.542   6.028  0.00  0.00    -0.340 OA
BRANCH   9  16
ATOM     16  O   LIG    1      -13.373   3.793   5.105  0.00  0.00    -0.383 OA
ATOM     17  H   LIG    1      -12.496   3.997   5.492  0.00  0.00    +0.210 HD
ENDBRANCH   9  16
BRANCH  10  18
ATOM     18  O   LIG    1      -14.700   0.440   4.565  0.00  0.00    -0.386 OA
ATOM     19  H   LIG    1      -13.927  -0.160   4.602  0.00  0.00    +0.210 HD
ENDBRANCH  10  18
BRANCH  11  20
ATOM     20  O   LIG    1      -14.018   2.291   7.688  0.00  0.00    -0.386 OA
ATOM     21  H   LIG    1      -14.076   3.119   7.172  0.00  0.00    +0.210 HD
ENDBRANCH  11  20
BRANCH  12  22
ATOM     22  C   LIG    1      -12.323  -0.683   7.515  0.00  0.00    +0.196 C 
BRANCH  22  23
ATOM     23  O   LIG    1      -13.305  -1.627   7.087  0.00  0.00    -0.392 OA
ATOM     24  H   LIG    1      -13.246  -2.396   7.680  0.00  0.00    +0.209 HD
ENDBRANCH  22  23
ENDBRANCH  12  22
ENDBRANCH   6   8
BRANCH   1  25
ATOM     25  C   LIG    1       -8.896  -0.584   1.575  0.00  0.00    +0.071 C 
BRANCH  25  29
ATOM     26  C   LIG    1       -6.872  -3.084   4.483  0.00  0.00    +0.120 A 
ATOM     27  C   LIG    1       -6.380  -1.816   4.180  0.00  0.00    +0.046 A 
ATOM     28  C   LIG    1       -7.018  -1.010   3.232  0.00  0.00    +0.007 A 
ATOM     29  C   LIG    1       -8.181  -1.460   2.583  0.00  0.00    -0.043 A 
ATOM     30  C   LIG    1       -8.652  -2.740   2.875  0.00  0.00    +0.007 A 
ATOM     31  C   LIG    1       -8.013  -3.543   3.822  0.00  0.00    +0.046 A 
BRANCH  26  32
ATOM     32  O   LIG    1       -6.199  -3.769   5.457  0.00  0.00    -0.492 OA
BRANCH  32  34
ATOM     33  C   LIG    1       -5.480  -5.775   6.546  0.00  0.00    +0.048 C 
ATOM     34  C   LIG    1       -6.316  -5.191   5.422  0.00  0.00    +0.226 C 
ENDBRANCH  32  34
ENDBRANCH  26  32
ENDBRANCH  25  29
ENDBRANCH   1  25
TORSDOF 10
