REMARK  Name = *****
REMARK                            x       y       z     vdW  Elec       q    Type
REMARK                         _______ _______ _______ _____ _____    ______ ____
ROOT
ATOM      1  C   LIG    1        4.647   4.120  -0.218  0.00  0.00    +0.011 C 
ENDROOT
BRANCH   1   2
ATOM      2  C   LIG    1        3.896   2.820  -0.540  0.00  0.00    +0.000 C 
BRANCH   2   3
ATOM      3  C   LIG    1        4.772   1.569  -0.391  0.00  0.00    -0.000 C 
BRANCH   3   4
ATOM      4  C   LIG    1        3.978   0.293  -0.712  0.00  0.00    -0.000 C 
BRANCH   4   6
ATOM      5  C   LIG    1        4.045  -2.236  -0.884  0.00  0.00    +0.004 C 
ATOM      6  C   LIG    1        4.838  -0.969  -0.590  0.00  0.00    -0.003 C 
ENDBRANCH   4   6
ENDBRANCH   3   4
ENDBRANCH   2   3
ENDBRANCH   1   2
BRANCH   1   7
ATOM      7  C   LIG    1        3.734   5.342  -0.380  0.00  0.00    +0.120 C 
BRANCH   7   8
ATOM      8  C   LIG    1        4.449   6.638  -0.051  0.00  0.00    +0.305 C 
ATOM      9  O   LIG    1        5.641   6.833  -0.218  0.00  0.00    -0.251 OA
BRANCH   8  10
ATOM     10  O   LIG    1        3.613   7.597   0.406  0.00  0.00    -0.481 OA
ATOM     11  H   LIG    1        2.680   7.321   0.474  0.00  0.00    +0.295 HD
ENDBRANCH   8  10
ENDBRANCH   7   8
ENDBRANCH   1   7
TORSDOF 7
