REMARK  Name = *****
REMARK                            x       y       z     vdW  Elec       q    Type
REMARK                         _______ _______ _______ _____ _____    ______ ____
ROOT
ATOM      1  S   LIG    1       -0.588  -1.225  -0.855  0.00  0.00    +0.074 S 
ATOM      2  O   LIG    1        0.326  -1.448  -1.956  0.00  0.00    -0.150 OA
ATOM      3  O   LIG    1       -0.265  -0.323   0.227  0.00  0.00    -0.150 OA
ENDROOT
BRANCH   1   4
ATOM      4  C   LIG    1       -2.140  -0.692  -1.546  0.00  0.00    +0.109 A 
ATOM      5  C   LIG    1       -2.471  -1.015  -2.862  0.00  0.00    +0.030 A 
ATOM      6  C   LIG    1       -3.680  -0.560  -3.398  0.00  0.00    +0.024 A 
ATOM      7  C   LIG    1       -4.574   0.189  -2.624  0.00  0.00    +0.025 A 
ATOM      8  C   LIG    1       -4.192   0.568  -1.334  0.00  0.00    +0.024 A 
ATOM      9  C   LIG    1       -2.988   0.119  -0.784  0.00  0.00    +0.030 A 
BRANCH   7  10
ATOM     10  N   LIG    1       -5.717   0.744  -3.210  0.00  0.00    -0.358 N 
ATOM     11  H   LIG    1       -6.081   0.208  -3.992  0.00  0.00    +0.142 HD
ATOM     12  H   LIG    1       -6.444   0.991  -2.545  0.00  0.00    +0.142 HD
ENDBRANCH   7  10
ENDBRANCH   1   4
BRANCH   1  13
ATOM     13  N   LIG    1       -1.042  -2.696  -0.149  0.00  0.00    -0.195 N 
ATOM     14  H   LIG    1       -1.317  -2.476   0.810  0.00  0.00    +0.175 HD
BRANCH  13  16
ATOM     15  C   LIG    1        0.549  -4.413  -1.035  0.00  0.00    +0.257 A 
ATOM     16  C   LIG    1        0.054  -3.592  -0.014  0.00  0.00    +0.201 A 
ATOM     17  N   LIG    1        0.596  -3.545   1.222  0.00  0.00    -0.233 NA
ATOM     18  C   LIG    1        1.660  -4.361   1.405  0.00  0.00    +0.133 A 
ATOM     19  C   LIG    1        2.145  -5.197   0.409  0.00  0.00    +0.134 A 
ATOM     20  N   LIG    1        1.600  -5.248  -0.829  0.00  0.00    -0.217 NA
BRANCH  15  22
ATOM     21  C   LIG    1        0.707  -4.915  -3.302  0.00  0.00    +0.279 C 
ATOM     22  O   LIG    1       -0.125  -4.468  -2.237  0.00  0.00    -0.477 OA
ENDBRANCH  15  22
ENDBRANCH  13  16
ENDBRANCH   1  13
TORSDOF 5
