REMARK  Name = *****
REMARK                            x       y       z     vdW  Elec       q    Type
REMARK                         _______ _______ _______ _____ _____    ______ ____
ROOT
ATOM      1  C   LIG    1        3.947  -0.067  -1.479  0.00  0.00    +0.132 C 
ENDROOT
BRANCH   1   2
ATOM      2  C   LIG    1        4.156  -0.668  -2.885  0.00  0.00    +0.023 A 
ATOM      3  C   LIG    1        4.547   0.103  -3.994  0.00  0.00    +0.132 A 
ATOM      4  F   LIG    1        4.843   1.398  -3.850  0.00  0.00    -0.205 F 
ATOM      5  C   LIG    1        4.631  -0.438  -5.282  0.00  0.00    +0.077 A 
ATOM      6  C   LIG    1        4.361  -1.777  -5.474  0.00  0.00    +0.126 A 
ATOM      7  F   LIG    1        4.408  -2.293  -6.713  0.00  0.00    -0.205 F 
ATOM      8  C   LIG    1        4.034  -2.597  -4.405  0.00  0.00    +0.039 A 
ATOM      9  C   LIG    1        3.936  -2.045  -3.118  0.00  0.00    +0.012 A 
ENDBRANCH   1   2
BRANCH   1  10
ATOM     10  O   LIG    1        2.868  -0.862  -0.908  0.00  0.00    -0.380 OA
ATOM     11  H   LIG    1        2.712  -0.523   0.002  0.00  0.00    +0.211 HD
ENDBRANCH   1  10
BRANCH   1  12
ATOM     12  C   LIG    1        5.181  -0.278  -0.569  0.00  0.00    +0.186 C 
BRANCH  12  13
ATOM     13  N   LIG    1        6.394   0.415  -0.919  0.00  0.00    -0.249 N 
ATOM     14  N   LIG    1        7.400  -0.253  -1.504  0.00  0.00    -0.158 NA
ATOM     15  C   LIG    1        8.419   0.594  -1.332  0.00  0.00    +0.244 A 
ATOM     16  N   LIG    1        8.098   1.770  -0.721  0.00  0.00    -0.223 NA
ATOM     17  C   LIG    1        6.817   1.628  -0.458  0.00  0.00    +0.219 A 
ENDBRANCH  12  13
ENDBRANCH   1  12
BRANCH   1  18
ATOM     18  C   LIG    1        3.447   1.411  -1.491  0.00  0.00    +0.186 C 
BRANCH  18  19
ATOM     19  N   LIG    1        3.162   1.988  -0.184  0.00  0.00    -0.249 N 
ATOM     20  N   LIG    1        2.960   1.220   0.907  0.00  0.00    -0.158 NA
ATOM     21  C   LIG    1        2.974   2.135   1.882  0.00  0.00    +0.244 A 
ATOM     22  N   LIG    1        3.128   3.422   1.464  0.00  0.00    -0.223 NA
ATOM     23  C   LIG    1        3.216   3.305   0.155  0.00  0.00    +0.219 A 
ENDBRANCH  18  19
ENDBRANCH   1  18
TORSDOF 6
