REMARK  Name = *****
REMARK                            x       y       z     vdW  Elec       q    Type
REMARK                         _______ _______ _______ _____ _____    ______ ____
ROOT
ATOM      1  C   LIG    1        2.828   0.823  -4.053  0.00  0.00    +0.172 C 
ATOM      2  C   LIG    1        3.756   2.159  -4.101  0.00  0.00    +0.175 C 
ATOM      3  C   LIG    1        4.015   2.443  -5.540  0.00  0.00    +0.170 C 
ATOM      4  C   LIG    1        4.090   1.063  -6.274  0.00  0.00    +0.084 C 
ATOM      5  C   LIG    1        4.482  -0.231  -5.435  0.00  0.00    +0.046 C 
ATOM      6  C   LIG    1        3.462  -0.572  -4.344  0.00  0.00    +0.106 C 
ENDROOT
BRANCH   6   7
ATOM      7  N   LIG    1        4.103  -1.310  -2.999  0.00  0.00    -0.308 N 
ATOM      8  H   LIG    1        5.095  -1.167  -2.875  0.00  0.00    +0.149 HD
ATOM      9  C   LIG    1        3.456  -1.662  -1.902  0.00  0.00    +0.242 C 
ATOM     10  O   LIG    1        4.225  -2.271  -0.896  0.00  0.00    -0.273 OA
BRANCH   9  11
ATOM     11  C   LIG    1        2.087  -1.408  -1.459  0.00  0.00    +0.201 C 
BRANCH  11  12
ATOM     12  O   LIG    1        1.489  -1.300  -0.203  0.00  0.00    -0.383 OA
ATOM     13  H   LIG    1        2.053  -1.824   0.352  0.00  0.00    +0.210 HD
ENDBRANCH  11  12
BRANCH  11  14
ATOM     14  C   LIG    1        2.010  -0.041  -1.977  0.00  0.00    +0.056 C 
BRANCH  14  15
ATOM     15  C   LIG    1        2.376   1.495  -1.634  0.00  0.00    +0.080 C 
BRANCH  15  16
ATOM     16  N   LIG    1        1.817   1.982  -0.410  0.00  0.00    -0.330 NA
ATOM     17  H   LIG    1        0.807   2.059  -0.567  0.00  0.00    +0.118 HD
ATOM     18  H   LIG    1        1.937   1.164   0.180  0.00  0.00    +0.118 HD
ENDBRANCH  15  16
ENDBRANCH  14  15
ENDBRANCH  11  14
ENDBRANCH   9  11
ENDBRANCH   6   7
BRANCH   4  19
ATOM     19  N   LIG    1        5.037   1.162  -7.381  0.00  0.00    -0.325 NA
ATOM     20  H   LIG    1        4.776   1.974  -7.941  0.00  0.00    +0.118 HD
ATOM     21  H   LIG    1        5.962   1.375  -7.000  0.00  0.00    +0.118 HD
ENDBRANCH   4  19
BRANCH   2  22
ATOM     22  O   LIG    1        5.089   1.875  -3.478  0.00  0.00    -0.387 OA
ATOM     23  H   LIG    1        5.280   2.533  -2.776  0.00  0.00    +0.210 HD
ENDBRANCH   2  22
BRANCH   3  24
ATOM     24  O   LIG    1        3.173   3.430  -6.164  0.00  0.00    -0.333 OA
BRANCH  24  25
ATOM     25  C   LIG    1        1.731   3.301  -6.225  0.00  0.00    +0.324 C 
ATOM     26  C   LIG    1        1.131   4.495  -7.089  0.00  0.00    +0.124 C 
ATOM     27  C   LIG    1        1.572   5.778  -6.381  0.00  0.00    +0.055 C 
ATOM     28  C   LIG    1        1.423   5.687  -4.899  0.00  0.00    +0.017 C 
ATOM     29  C   LIG    1        1.198   4.544  -4.231  0.00  0.00    +0.111 C 
ATOM     30  O   LIG    1        1.146   3.324  -4.896  0.00  0.00    -0.465 OA
BRANCH  26  31
ATOM     31  N   LIG    1        1.529   4.646  -8.519  0.00  0.00    -0.322 NA
ATOM     32  H   LIG    1        1.118   5.522  -8.867  0.00  0.00    +0.119 HD
ATOM     33  H   LIG    1        2.534   4.819  -8.559  0.00  0.00    +0.119 HD
ENDBRANCH  26  31
BRANCH  29  34
ATOM     34  C   LIG    1        0.891   4.536  -2.728  0.00  0.00    +0.155 C 
BRANCH  34  35
ATOM     35  N   LIG    1        0.011   5.590  -2.223  0.00  0.00    -0.307 NA
ATOM     36  H   LIG    1        0.342   6.490  -2.550  0.00  0.00    +0.122 HD
BRANCH  35  37
ATOM     37  C   LIG    1       -1.411   5.413  -2.558  0.00  0.00    +0.109 C 
BRANCH  37  38
ATOM     38  C   LIG    1       -1.763   5.475  -4.059  0.00  0.00    +0.171 C 
BRANCH  38  39
ATOM     39  O   LIG    1       -1.410   4.345  -4.832  0.00  0.00    -0.394 OA
ATOM     40  H   LIG    1       -1.233   3.618  -4.199  0.00  0.00    +0.209 HD
ENDBRANCH  38  39
ENDBRANCH  37  38
ENDBRANCH  35  37
ENDBRANCH  34  35
ENDBRANCH  29  34
ENDBRANCH  24  25
ENDBRANCH   3  24
BRANCH   1  41
ATOM     41  O   LIG    1        1.121   0.987  -4.072  0.00  0.00    -0.341 OA
BRANCH  41  47
ATOM     42  C   LIG    1       -2.831   0.608  -2.862  0.00  0.00    +0.121 C 
ATOM     43  C   LIG    1       -2.641   0.291  -1.295  0.00  0.00    +0.104 C 
ATOM     44  C   LIG    1       -2.555   1.564  -0.402  0.00  0.00    +0.045 C 
ATOM     45  C   LIG    1       -1.349  -0.457  -1.155  0.00  0.00    +0.199 C 
ATOM     46  O   LIG    1       -0.509   0.444  -1.868  0.00  0.00    -0.346 OA
ATOM     47  C   LIG    1       -0.238   0.210  -3.303  0.00  0.00    +0.281 C 
ATOM     48  C   LIG    1       -1.514   0.952  -3.708  0.00  0.00    +0.190 C 
BRANCH  42  50
ATOM     49  C   LIG    1       -4.037  -0.028  -4.855  0.00  0.00    +0.101 C 
ATOM     50  N   LIG    1       -3.610  -0.455  -3.529  0.00  0.00    -0.311 NA
ATOM     51  H   LIG    1       -3.084  -1.325  -3.567  0.00  0.00    +0.122 HD
ENDBRANCH  42  50
BRANCH  48  52
ATOM     52  O   LIG    1       -1.272   2.330  -3.429  0.00  0.00    -0.385 OA
ATOM     53  H   LIG    1       -0.308   2.329  -3.256  0.00  0.00    +0.210 HD
ENDBRANCH  48  52
BRANCH  43  54
ATOM     54  O   LIG    1       -3.716  -0.482  -0.761  0.00  0.00    -0.385 OA
ATOM     55  H   LIG    1       -4.518   0.025  -0.980  0.00  0.00    +0.210 HD
ENDBRANCH  43  54
ENDBRANCH  41  47
ENDBRANCH   1  41
TORSDOF 21
