REMARK  Name = *****
REMARK                            x       y       z     vdW  Elec       q    Type
REMARK                         _______ _______ _______ _____ _____    ______ ____
ROOT
ATOM      1  C   LIG    1        4.351  -7.197  -6.731  0.00  0.00    +0.158 C 
ENDROOT
BRANCH   1   2
ATOM      2  C   LIG    1        5.725  -6.992  -7.342  0.00  0.00    -0.016 A 
ATOM      3  C   LIG    1        5.901  -6.385  -8.598  0.00  0.00    +0.033 A 
ATOM      4  C   LIG    1        7.176  -6.115  -9.117  0.00  0.00    +0.075 A 
ATOM      5  C   LIG    1        8.297  -6.526  -8.379  0.00  0.00    +0.138 A 
ATOM      6  C   LIG    1        8.139  -7.178  -7.154  0.00  0.00    +0.048 A 
ATOM      7  C   LIG    1        6.864  -7.404  -6.638  0.00  0.00    +0.010 A 
BRANCH   4   8
ATOM      8  N   LIG    1        7.216  -5.449 -10.355  0.00  0.00    -0.285 N 
ATOM      9  H   LIG    1        6.355  -5.364 -10.883  0.00  0.00    +0.155 HD
ATOM     10  C   LIG    1        8.264  -4.798 -10.944  0.00  0.00    +0.330 C 
ATOM     11  O   LIG    1        8.168  -4.257 -12.026  0.00  0.00    -0.279 OA
ENDBRANCH   4   8
BRANCH   5  12
ATOM     12  O   LIG    1        9.562  -6.346  -8.860  0.00  0.00    -0.505 OA
ATOM     13  H   LIG    1       10.198  -6.753  -8.249  0.00  0.00    +0.292 HD
ENDBRANCH   5  12
ENDBRANCH   1   2
BRANCH   1  14
ATOM     14  O   LIG    1        3.321  -6.779  -7.633  0.00  0.00    -0.386 OA
ATOM     15  H   LIG    1        3.171  -5.835  -7.427  0.00  0.00    +0.210 HD
ENDBRANCH   1  14
BRANCH   1  16
ATOM     16  C   LIG    1        4.154  -6.465  -5.372  0.00  0.00    +0.117 C 
BRANCH  16  17
ATOM     17  N   LIG    1        4.229  -4.997  -5.517  0.00  0.00    -0.310 NA
ATOM     18  H   LIG    1        5.150  -4.762  -5.901  0.00  0.00    +0.122 HD
BRANCH  17  19
ATOM     19  C   LIG    1        4.075  -4.269  -4.236  0.00  0.00    +0.055 C 
ATOM     20  C   LIG    1        4.264  -2.777  -4.555  0.00  0.00    +0.024 C 
BRANCH  19  21
ATOM     21  C   LIG    1        2.707  -4.537  -3.567  0.00  0.00    +0.053 C 
BRANCH  21  25
ATOM     22  C   LIG    1        2.228  -2.473   0.186  0.00  0.00    +0.120 A 
ATOM     23  C   LIG    1        2.768  -3.759   0.144  0.00  0.00    +0.046 A 
ATOM     24  C   LIG    1        2.927  -4.423  -1.067  0.00  0.00    +0.007 A 
ATOM     25  C   LIG    1        2.515  -3.820  -2.256  0.00  0.00    -0.046 A 
ATOM     26  C   LIG    1        1.933  -2.546  -2.213  0.00  0.00    +0.007 A 
ATOM     27  C   LIG    1        1.787  -1.876  -0.996  0.00  0.00    +0.046 A 
BRANCH  22  29
ATOM     28  C   LIG    1        3.026  -2.069   2.356  0.00  0.00    +0.277 C 
ATOM     29  O   LIG    1        2.078  -1.748   1.338  0.00  0.00    -0.495 OA
ENDBRANCH  22  29
ENDBRANCH  21  25
ENDBRANCH  19  21
ENDBRANCH  17  19
ENDBRANCH  16  17
ENDBRANCH   1  16
TORSDOF 10
