REMARK  Name = *****
REMARK                            x       y       z     vdW  Elec       q    Type
REMARK                         _______ _______ _______ _____ _____    ______ ____
ROOT
ATOM      1  C   LIG    1        4.843   0.635  -3.200  0.00  0.00    +0.158 C 
ENDROOT
BRANCH   1   2
ATOM      2  C   LIG    1        3.909   1.423  -4.097  0.00  0.00    -0.011 A 
ATOM      3  C   LIG    1        3.273   2.597  -3.649  0.00  0.00    +0.051 A 
ATOM      4  C   LIG    1        2.434   3.315  -4.490  0.00  0.00    +0.121 A 
ATOM      5  C   LIG    1        2.217   2.921  -5.805  0.00  0.00    +0.090 A 
ATOM      6  C   LIG    1        2.867   1.780  -6.268  0.00  0.00    +0.121 A 
ATOM      7  C   LIG    1        3.700   1.038  -5.434  0.00  0.00    +0.051 A 
BRANCH   4   8
ATOM      8  O   LIG    1        1.830   4.427  -3.977  0.00  0.00    -0.507 OA
ATOM      9  H   LIG    1        1.280   4.825  -4.668  0.00  0.00    +0.292 HD
ENDBRANCH   4   8
BRANCH   6  10
ATOM     10  O   LIG    1        2.655   1.424  -7.567  0.00  0.00    -0.507 OA
ATOM     11  H   LIG    1        3.189   0.631  -7.755  0.00  0.00    +0.292 HD
ENDBRANCH   6  10
ENDBRANCH   1   2
BRANCH   1  12
ATOM     12  O   LIG    1        4.862  -0.741  -3.604  0.00  0.00    -0.386 OA
ATOM     13  H   LIG    1        4.293  -1.201  -2.956  0.00  0.00    +0.210 HD
ENDBRANCH   1  12
BRANCH   1  14
ATOM     14  C   LIG    1        4.552   0.684  -1.673  0.00  0.00    +0.117 C 
BRANCH  14  15
ATOM     15  N   LIG    1        3.259   0.057  -1.313  0.00  0.00    -0.308 NA
ATOM     16  H   LIG    1        2.524   0.483  -1.887  0.00  0.00    +0.122 HD
BRANCH  15  18
ATOM     17  C   LIG    1        2.770   1.679   0.525  0.00  0.00    +0.027 C 
ATOM     18  C   LIG    1        2.880   0.200   0.113  0.00  0.00    +0.011 C 
ATOM     19  C   LIG    1        1.491  -0.448   0.292  0.00  0.00    +0.027 C 
ATOM     20  C   LIG    1        3.875  -0.518   1.039  0.00  0.00    +0.027 C 
ENDBRANCH  15  18
ENDBRANCH  14  15
ENDBRANCH   1  14
TORSDOF 7
