REMARK  Name = *****
REMARK                            x       y       z     vdW  Elec       q    Type
REMARK                         _______ _______ _______ _____ _____    ______ ____
ROOT
ATOM      1  C   LIG    1        5.042   5.159  -4.048  0.00  0.00    +0.162 A 
ATOM      2  C   LIG    1        6.422   5.321  -3.894  0.00  0.00    +0.159 A 
ATOM      3  C   LIG    1        7.084   4.692  -2.845  0.00  0.00    +0.053 A 
ATOM      4  C   LIG    1        6.379   3.886  -1.942  0.00  0.00    -0.037 A 
ATOM      5  C   LIG    1        7.183   3.203  -0.853  0.00  0.00    +0.051 C 
ATOM      6  C   LIG    1        6.366   2.543   0.258  0.00  0.00    +0.087 C 
ATOM      7  N   LIG    1        4.952   2.833   0.192  0.00  0.00    -0.297 NA
ATOM      8  H   LIG    1        4.421   2.292   0.881  0.00  0.00    +0.123 HD
ATOM      9  C   LIG    1        4.303   2.668  -1.166  0.00  0.00    +0.152 C 
ATOM     10  C   LIG    1        2.767   2.798  -0.768  0.00  0.00    +0.333 C 
ATOM     11  O   LIG    1        2.388   2.529   0.377  0.00  0.00    -0.248 OA
ATOM     12  O   LIG    1        1.883   3.043  -1.769  0.00  0.00    -0.461 OA
ATOM     13  C   LIG    1        0.478   2.701  -1.530  0.00  0.00    +0.256 C 
ATOM     14  C   LIG    1       -0.035   1.370  -2.262  0.00  0.00    +0.131 C 
ATOM     15  N   LIG    1        0.441   0.002  -1.869  0.00  0.00    -0.260 NA
ATOM     16  C   LIG    1        0.576  -0.165  -0.429  0.00  0.00    +0.204 C 
ATOM     17  C   LIG    1        1.578  -1.239   0.138  0.00  0.00    +0.105 C 
ATOM     18  N   LIG    1        2.783  -1.335  -0.716  0.00  0.00    -0.290 NA
ATOM     19  C   LIG    1        2.349  -1.761  -2.072  0.00  0.00    +0.109 C 
ATOM     20  C   LIG    1        1.547  -3.073  -2.026  0.00  0.00    +0.019 A 
ATOM     21  C   LIG    1        1.487  -3.948  -3.115  0.00  0.00    +0.164 A 
ATOM     22  C   LIG    1        0.804  -5.191  -3.067  0.00  0.00    +0.165 A 
ATOM     23  C   LIG    1        0.126  -5.559  -1.896  0.00  0.00    -0.005 A 
ATOM     24  C   LIG    1       -0.669  -6.817  -1.698  0.00  0.00    +0.048 C 
ATOM     25  C   LIG    1        0.169  -4.673  -0.806  0.00  0.00    +0.011 A 
ATOM     26  C   LIG    1        0.858  -3.452  -0.864  0.00  0.00    -0.037 A 
ATOM     27  C   LIG    1        3.843  -2.175  -0.164  0.00  0.00    +0.106 C 
ATOM     28  C   LIG    1        0.929  -2.612   0.382  0.00  0.00    +0.058 C 
ATOM     29  C   LIG    1        1.526  -0.596  -2.743  0.00  0.00    +0.099 C 
ATOM     30  C   LIG    1        2.345   0.590  -3.384  0.00  0.00    +0.099 C 
ATOM     31  C   LIG    1        1.414   1.354  -4.348  0.00  0.00    +0.018 A 
ATOM     32  C   LIG    1        1.629   1.794  -5.685  0.00  0.00    +0.143 A 
ATOM     33  C   LIG    1        0.608   2.475  -6.405  0.00  0.00    +0.038 A 
ATOM     34  C   LIG    1       -0.643   2.559  -5.802  0.00  0.00    +0.173 A 
ATOM     35  O   LIG    1       -1.766   3.103  -6.359  0.00  0.00    -0.452 OA
ATOM     36  C   LIG    1       -2.728   2.901  -5.309  0.00  0.00    +0.466 C 
ATOM     37  O   LIG    1       -2.136   2.407  -4.095  0.00  0.00    -0.452 OA
ATOM     38  C   LIG    1       -0.867   2.153  -4.514  0.00  0.00    +0.172 A 
ATOM     39  C   LIG    1        0.762   3.124  -7.749  0.00  0.00    +0.051 C 
ATOM     40  S   LIG    1        4.143   0.701  -3.522  0.00  0.00    -0.148 S 
ATOM     41  C   LIG    1        0.141   1.602  -3.754  0.00  0.00    +0.026 A 
ATOM     42  C   LIG    1        4.584   1.222  -1.753  0.00  0.00    +0.108 C 
ATOM     43  C   LIG    1        4.977   3.696  -2.080  0.00  0.00    -0.009 A 
ATOM     44  C   LIG    1        4.330   4.361  -3.132  0.00  0.00    +0.055 A 
ENDROOT
BRANCH   1  46
ATOM     45  C   LIG    1        4.872   5.971  -6.271  0.00  0.00    +0.277 C 
ATOM     46  O   LIG    1        4.254   5.733  -5.012  0.00  0.00    -0.491 OA
ENDBRANCH   1  46
BRANCH   2  47
ATOM     47  O   LIG    1        7.157   6.096  -4.747  0.00  0.00    -0.503 OA
ATOM     48  H   LIG    1        8.082   6.101  -4.452  0.00  0.00    +0.292 HD
ENDBRANCH   2  47
BRANCH  16  49
ATOM     49  O   LIG    1       -0.734  -0.379   0.063  0.00  0.00    -0.376 OA
ATOM     50  H   LIG    1       -1.176  -0.802  -0.696  0.00  0.00    +0.211 HD
ENDBRANCH  16  49
BRANCH  21  51
ATOM     51  O   LIG    1        2.137  -3.597  -4.274  0.00  0.00    -0.503 OA
ATOM     52  H   LIG    1        1.950  -4.329  -4.895  0.00  0.00    +0.292 HD
ENDBRANCH  21  51
BRANCH  22  53
ATOM     53  O   LIG    1        0.861  -5.876  -4.258  0.00  0.00    -0.491 OA
ATOM     54  C   LIG    1        0.810  -7.295  -4.222  0.00  0.00    +0.277 C 
ENDBRANCH  22  53
BRANCH  32  55
ATOM     55  O   LIG    1        2.942   1.644  -6.200  0.00  0.00    -0.425 OA
BRANCH  55  56
ATOM     56  C   LIG    1        3.269   1.268  -7.511  0.00  0.00    +0.309 C 
ATOM     57  O   LIG    1        2.498   0.997  -8.412  0.00  0.00    -0.251 OA
ATOM     58  C   LIG    1        4.763   1.175  -7.631  0.00  0.00    +0.136 C 
ENDBRANCH  55  56
ENDBRANCH  32  55
TORSDOF 7
