REMARK  Name = *****
REMARK                            x       y       z     vdW  Elec       q    Type
REMARK                         _______ _______ _______ _____ _____    ______ ____
ROOT
ATOM      1  N   LIG    1        3.477  -6.066  -0.518  0.00  0.00    -0.302 NA
ATOM      2  C   LIG    1        4.138  -7.174   0.183  0.00  0.00    +0.086 C 
ATOM      3  C   LIG    1        4.638  -8.276  -0.748  0.00  0.00    +0.041 C 
ATOM      4  C   LIG    1        5.489  -7.769  -1.929  0.00  0.00    +0.095 C 
ATOM      5  C   LIG    1        4.708  -6.626  -2.598  0.00  0.00    +0.041 C 
ATOM      6  C   LIG    1        4.327  -5.534  -1.597  0.00  0.00    +0.086 C 
ENDROOT
BRANCH   4   7
ATOM      7  N   LIG    1        6.894  -7.508  -1.600  0.00  0.00    -0.291 N 
ATOM      8  C   LIG    1        7.775  -8.424  -1.033  0.00  0.00    +0.072 A 
ATOM      9  C   LIG    1        8.987  -7.733  -0.947  0.00  0.00    +0.094 A 
ATOM     10  C   LIG    1       10.108  -8.346  -0.366  0.00  0.00    +0.050 A 
ATOM     11  C   LIG    1        9.980  -9.650   0.108  0.00  0.00    +0.043 A 
ATOM     12  C   LIG    1        8.778 -10.346  -0.010  0.00  0.00    +0.022 A 
ATOM     13 CL   LIG    1       11.336 -10.419   0.841  0.00  0.00    -0.084 Cl
ATOM     14  N   LIG    1        8.892  -6.489  -1.496  0.00  0.00    -0.195 NA
ATOM     15  C   LIG    1        7.655  -9.752  -0.600  0.00  0.00    +0.029 A 
ATOM     16  C   LIG    1        7.652  -6.407  -1.913  0.00  0.00    +0.297 A 
BRANCH  16  17
ATOM     17  O   LIG    1        7.259  -5.346  -2.578  0.00  0.00    -0.479 OA
ATOM     18  H   LIG    1        8.085  -4.829  -2.622  0.00  0.00    +0.295 HD
ENDBRANCH  16  17
ENDBRANCH   4   7
BRANCH   1  19
ATOM     19  C   LIG    1        3.138  -4.969   0.414  0.00  0.00    +0.086 C 
BRANCH  19  20
ATOM     20  C   LIG    1        2.228  -5.364   1.583  0.00  0.00    +0.037 C 
BRANCH  20  21
ATOM     21  C   LIG    1        0.886  -5.922   1.117  0.00  0.00    +0.128 C 
BRANCH  21  23
ATOM     22  C   LIG    1        0.012  -7.536   2.822  0.00  0.00    +0.297 A 
ATOM     23  N   LIG    1        0.047  -6.304   2.234  0.00  0.00    -0.294 N 
ATOM     24  C   LIG    1       -0.854  -5.508   2.903  0.00  0.00    +0.072 A 
ATOM     25  C   LIG    1       -1.375  -6.349   3.890  0.00  0.00    +0.093 A 
ATOM     26  C   LIG    1       -2.337  -5.847   4.781  0.00  0.00    +0.030 A 
ATOM     27  C   LIG    1       -2.745  -4.513   4.655  0.00  0.00    +0.002 A 
ATOM     28  C   LIG    1       -2.210  -3.694   3.659  0.00  0.00    +0.002 A 
ATOM     29  C   LIG    1       -1.252  -4.174   2.758  0.00  0.00    +0.028 A 
ATOM     30  N   LIG    1       -0.826  -7.606   3.819  0.00  0.00    -0.195 NA
BRANCH  22  31
ATOM     31  O   LIG    1        0.744  -8.566   2.450  0.00  0.00    -0.479 OA
ATOM     32  H   LIG    1        0.441  -9.246   3.079  0.00  0.00    +0.295 HD
ENDBRANCH  22  31
ENDBRANCH  21  23
ENDBRANCH  20  21
ENDBRANCH  19  20
ENDBRANCH   1  19
TORSDOF 7
