REMARK  Name = *****
REMARK                            x       y       z     vdW  Elec       q    Type
REMARK                         _______ _______ _______ _____ _____    ______ ____
ROOT
ATOM      1  C   LIG    1        3.619  -0.499   1.708  0.00  0.00    +0.008 C 
ATOM      2  C   LIG    1        3.294   0.524   2.793  0.00  0.00    -0.003 C 
ATOM      3  C   LIG    1        2.000   1.304   2.479  0.00  0.00    +0.067 C 
ATOM      4  C   LIG    1        1.332   1.529   3.863  0.00  0.00    -0.017 C 
ATOM      5  C   LIG    1        1.611   0.181   4.580  0.00  0.00    +0.001 C 
ATOM      6  C   LIG    1        0.646  -0.986   4.200  0.00  0.00    +0.020 C 
ATOM      7  C   LIG    1       -0.874  -0.612   4.207  0.00  0.00    +0.087 C 
ATOM      8  C   LIG    1       -1.048   0.673   3.334  0.00  0.00    +0.137 C 
ATOM      9 CL   LIG    1       -1.346  -0.152   5.928  0.00  0.00    -0.114 Cl
ATOM     10  C   LIG    1       -1.787  -1.864   3.747  0.00  0.00    +0.032 C 
ATOM     11  C   LIG    1       -1.360  -3.187   4.454  0.00  0.00    -0.021 C 
ATOM     12  C   LIG    1       -2.052  -4.314   4.153  0.00  0.00    +0.054 C 
ATOM     13  C   LIG    1       -1.991  -4.596   2.666  0.00  0.00    +0.179 C 
ATOM     14  C   LIG    1       -1.784  -3.428   1.756  0.00  0.00    +0.047 C 
ATOM     15  O   LIG    1       -2.206  -5.718   2.226  0.00  0.00    -0.288 OA
ATOM     16  C   LIG    1        0.130  -3.411   4.636  0.00  0.00    +0.194 C 
ATOM     17  F   LIG    1        0.693  -3.787   3.449  0.00  0.00    -0.241 F 
ATOM     18  C   LIG    1       -3.302  -1.612   4.032  0.00  0.00    +0.022 C 
ATOM     19  C   LIG    1       -1.713  -2.173   2.241  0.00  0.00    -0.010 C 
ATOM     20  C   LIG    1        0.900  -2.200   5.118  0.00  0.00    +0.047 C 
ATOM     21  C   LIG    1        2.000   2.686   4.648  0.00  0.00    +0.012 C 
ATOM     22  C   LIG    1       -0.165   1.846   3.772  0.00  0.00    +0.040 C 
ATOM     23  C   LIG    1        3.068  -0.131   4.167  0.00  0.00    +0.008 C 
ENDROOT
BRANCH   3  24
ATOM     24  C   LIG    1        2.288   2.577   1.683  0.00  0.00    +0.162 C 
ATOM     25  O   LIG    1        3.233   3.328   1.938  0.00  0.00    -0.295 OA
BRANCH  24  26
ATOM     26  C   LIG    1        1.338   2.909   0.537  0.00  0.00    +0.230 C 
BRANCH  26  27
ATOM     27  O   LIG    1        1.756   4.066  -0.172  0.00  0.00    -0.388 OA
ATOM     28  H   LIG    1        2.493   4.454   0.343  0.00  0.00    +0.210 HD
ENDBRANCH  26  27
ENDBRANCH  24  26
ENDBRANCH   3  24
BRANCH   8  29
ATOM     29  O   LIG    1       -2.388   1.158   3.307  0.00  0.00    -0.390 OA
ATOM     30  H   LIG    1       -2.640   1.385   4.223  0.00  0.00    +0.210 HD
ENDBRANCH   8  29
TORSDOF 4
