REMARK  Name = *****
REMARK                            x       y       z     vdW  Elec       q    Type
REMARK                         _______ _______ _______ _____ _____    ______ ____
ROOT
ATOM      1  C   LIG    1        8.310   1.177   0.525  0.00  0.00    +0.066 A 
ATOM      2  C   LIG    1        7.926  -0.133   0.263  0.00  0.00    +0.040 A 
ATOM      3  I   LIG    1        9.915  -1.661   0.433  0.00  0.00    -0.042 I 
ATOM      4  C   LIG    1        7.371  -0.471  -0.946  0.00  0.00    +0.066 A 
ATOM      5  C   LIG    1        8.002   0.253  -1.987  0.00  0.00    +0.049 A 
ATOM      6  I   LIG    1        7.256   0.303  -3.960  0.00  0.00    -0.041 I 
ATOM      7  C   LIG    1        9.170   1.090  -1.677  0.00  0.00    +0.061 A 
ATOM      8  C   LIG    1        9.335   1.510  -0.331  0.00  0.00    +0.049 A 
ATOM      9  I   LIG    1       10.739   2.681   0.687  0.00  0.00    -0.041 I 
ENDROOT
BRANCH   4  10
ATOM     10  C   LIG    1        6.316  -1.580  -0.877  0.00  0.00    +0.248 C 
ATOM     11  N   LIG    1        5.860  -2.177   0.372  0.00  0.00    -0.298 N 
ATOM     12  C   LIG    1        4.742  -3.102   0.349  0.00  0.00    +0.132 C 
ATOM     13  O   LIG    1        5.842  -1.995  -1.967  0.00  0.00    -0.270 OA
BRANCH  11  14
ATOM     14  C   LIG    1        5.885  -1.507   1.653  0.00  0.00    +0.141 C 
BRANCH  14  15
ATOM     15  C   LIG    1        7.117  -1.750   2.555  0.00  0.00    +0.157 C 
BRANCH  15  16
ATOM     16  O   LIG    1        7.166  -0.913   3.716  0.00  0.00    -0.388 OA
ATOM     17  H   LIG    1        8.085  -0.581   3.787  0.00  0.00    +0.210 HD
ENDBRANCH  15  16
BRANCH  15  18
ATOM     18  C   LIG    1        7.368  -3.204   2.910  0.00  0.00    +0.188 C 
BRANCH  18  19
ATOM     19  O   LIG    1        6.307  -3.688   3.712  0.00  0.00    -0.392 OA
ATOM     20  H   LIG    1        6.555  -4.587   3.979  0.00  0.00    +0.209 HD
ENDBRANCH  18  19
ENDBRANCH  15  18
ENDBRANCH  14  15
ENDBRANCH  11  14
ENDBRANCH   4  10
BRANCH   1  23
ATOM     21  C   LIG    1        5.979   1.363   2.493  0.00  0.00    +0.132 C 
ATOM     22  N   LIG    1        6.147   2.366   1.488  0.00  0.00    -0.298 N 
ATOM     23  C   LIG    1        7.230   2.307   0.600  0.00  0.00    +0.248 C 
ATOM     24  O   LIG    1        7.413   3.241  -0.255  0.00  0.00    -0.270 OA
BRANCH  22  25
ATOM     25  C   LIG    1        5.017   3.355   1.458  0.00  0.00    +0.141 C 
BRANCH  25  26
ATOM     26  C   LIG    1        5.360   4.857   1.280  0.00  0.00    +0.157 C 
BRANCH  26  27
ATOM     27  O   LIG    1        5.816   5.138  -0.044  0.00  0.00    -0.388 OA
ATOM     28  H   LIG    1        5.152   4.837  -0.680  0.00  0.00    +0.210 HD
ENDBRANCH  26  27
BRANCH  26  29
ATOM     29  C   LIG    1        4.176   5.827   1.500  0.00  0.00    +0.188 C 
BRANCH  29  30
ATOM     30  O   LIG    1        4.628   7.177   1.315  0.00  0.00    -0.392 OA
ATOM     31  H   LIG    1        4.103   7.585   0.605  0.00  0.00    +0.209 HD
ENDBRANCH  29  30
ENDBRANCH  26  29
ENDBRANCH  25  26
ENDBRANCH  22  25
ENDBRANCH   1  23
BRANCH   7  32
ATOM     32  N   LIG    1        9.986   1.580  -2.732  0.00  0.00    -0.283 N 
ATOM     33  H   LIG    1        9.471   1.782  -3.591  0.00  0.00    +0.155 HD
ATOM     34  C   LIG    1       11.263   1.205  -3.101  0.00  0.00    +0.225 C 
ATOM     35  O   LIG    1       11.721   1.699  -4.138  0.00  0.00    -0.275 OA
BRANCH  34  36
ATOM     36  C   LIG    1       12.015   0.082  -2.381  0.00  0.00    +0.126 C 
BRANCH  36  37
ATOM     37  C   LIG    1       12.867   0.528  -1.211  0.00  0.00    +0.170 C 
BRANCH  37  38
ATOM     38  O   LIG    1       13.425  -0.569  -0.491  0.00  0.00    -0.394 OA
ATOM     39  H   LIG    1       14.172  -0.937  -0.991  0.00  0.00    +0.209 HD
ENDBRANCH  37  38
ENDBRANCH  36  37
BRANCH  36  40
ATOM     40  C   LIG    1       12.938  -0.663  -3.346  0.00  0.00    +0.170 C 
BRANCH  40  41
ATOM     41  O   LIG    1       12.198  -1.354  -4.340  0.00  0.00    -0.394 OA
ATOM     42  H   LIG    1       11.683  -0.689  -4.830  0.00  0.00    +0.209 HD
ENDBRANCH  40  41
ENDBRANCH  36  40
ENDBRANCH  34  36
ENDBRANCH   7  32
TORSDOF 18
