REMARK  Name = *****
REMARK                            x       y       z     vdW  Elec       q    Type
REMARK                         _______ _______ _______ _____ _____    ______ ____
ROOT
ATOM      1  C   LIG    1        2.938  -0.362  -1.133  0.00  0.00    +0.095 C 
ENDROOT
BRANCH   1   2
ATOM      2  C   LIG    1        4.043   0.771  -1.215  0.00  0.00    +0.025 C 
ATOM      3  C   LIG    1        3.698   2.141  -0.583  0.00  0.00    +0.006 C 
ATOM      4  C   LIG    1        3.849   2.220   0.930  0.00  0.00    +0.000 C 
ATOM      5  C   LIG    1        5.231   1.790   1.400  0.00  0.00    +0.000 C 
ATOM      6  C   LIG    1        5.685   0.466   0.798  0.00  0.00    +0.000 C 
ATOM      7  C   LIG    1        5.452   0.358  -0.711  0.00  0.00    +0.006 C 
ENDBRANCH   1   2
BRANCH   1   8
ATOM      8  C   LIG    1        3.219  -1.606  -2.033  0.00  0.00    -0.016 A 
ATOM      9  C   LIG    1        2.712  -2.879  -1.706  0.00  0.00    +0.006 A 
ATOM     10  C   LIG    1        2.869  -3.973  -2.573  0.00  0.00    +0.000 A 
ATOM     11  C   LIG    1        3.551  -3.832  -3.774  0.00  0.00    +0.000 A 
ATOM     12  C   LIG    1        4.093  -2.597  -4.107  0.00  0.00    +0.000 A 
ATOM     13  C   LIG    1        3.913  -1.497  -3.248  0.00  0.00    +0.006 A 
ENDBRANCH   1   8
BRANCH   1  14
ATOM     14  O   LIG    1        2.897  -0.811   0.233  0.00  0.00    -0.384 OA
ATOM     15  H   LIG    1        3.609  -1.466   0.340  0.00  0.00    +0.211 HD
ENDBRANCH   1  14
BRANCH   1  16
ATOM     16  C   LIG    1        1.497   0.174  -1.442  0.00  0.00    +0.055 C 
BRANCH  16  17
ATOM     17  C   LIG    1        1.295   0.751  -2.857  0.00  0.00    +0.087 C 
BRANCH  17  18
ATOM     18  N   LIG    1       -0.055   1.278  -3.122  0.00  0.00    -0.302 NA
ATOM     19  C   LIG    1       -0.159   1.807  -4.489  0.00  0.00    +0.084 C 
ATOM     20  C   LIG    1       -1.654   2.007  -4.661  0.00  0.00    +0.017 C 
ATOM     21  C   LIG    1       -2.284   0.911  -3.811  0.00  0.00    +0.017 C 
ATOM     22  C   LIG    1       -1.125   0.279  -3.041  0.00  0.00    +0.084 C 
ENDBRANCH  17  18
ENDBRANCH  16  17
ENDBRANCH   1  16
TORSDOF 6
