REMARK  Name = *****
REMARK                            x       y       z     vdW  Elec       q    Type
REMARK                         _______ _______ _______ _____ _____    ______ ____
ROOT
ATOM      1  O   LIG    1        1.333   0.269   0.357  0.00  0.00    -0.291 OA
ATOM      2  C   LIG    1        2.540   0.137   0.255  0.00  0.00    +0.179 C 
ATOM      3  C   LIG    1        3.344  -1.155   0.259  0.00  0.00    +0.161 C 
ATOM      4  C   LIG    1        4.776  -0.662   0.098  0.00  0.00    +0.179 C 
ATOM      5  O   LIG    1        5.793  -1.329   0.018  0.00  0.00    -0.291 OA
ATOM      6  C   LIG    1        4.763   0.797   0.013  0.00  0.00    +0.029 A 
ATOM      7  C   LIG    1        5.834   1.660  -0.133  0.00  0.00    +0.012 A 
ATOM      8  C   LIG    1        5.557   3.029  -0.192  0.00  0.00    +0.001 A 
ATOM      9  C   LIG    1        4.233   3.501  -0.105  0.00  0.00    +0.001 A 
ATOM     10  C   LIG    1        3.164   2.612   0.043  0.00  0.00    +0.012 A 
ATOM     11  C   LIG    1        3.460   1.262   0.100  0.00  0.00    +0.029 A 
ENDROOT
BRANCH   3  12
ATOM     12  C   LIG    1        3.165  -2.040   1.475  0.00  0.00    -0.029 A 
ATOM     13  C   LIG    1        3.546  -3.393   1.387  0.00  0.00    +0.007 A 
ATOM     14  C   LIG    1        3.421  -4.244   2.487  0.00  0.00    +0.038 A 
ATOM     15  C   LIG    1        2.920  -3.748   3.682  0.00  0.00    +0.123 A 
ATOM     16  F   LIG    1        2.800  -4.563   4.738  0.00  0.00    -0.205 F 
ATOM     17  C   LIG    1        2.546  -2.416   3.799  0.00  0.00    +0.038 A 
ATOM     18  C   LIG    1        2.671  -1.562   2.700  0.00  0.00    +0.007 A 
ENDBRANCH   3  12
TORSDOF 1
