REMARK  Name = *****
REMARK                            x       y       z     vdW  Elec       q    Type
REMARK                         _______ _______ _______ _____ _____    ______ ____
ROOT
ATOM      1  C   LIG    1        2.953  -0.609  -1.246  0.00  0.00    +0.155 C 
ENDROOT
BRANCH   1   3
ATOM      2  C   LIG    1        0.924   0.051   0.091  0.00  0.00    +0.006 C 
ATOM      3  C   LIG    1        2.441   0.040   0.032  0.00  0.00    +0.024 C 
ENDBRANCH   1   3
BRANCH   1   4
ATOM      4  O   LIG    1        4.374  -0.611  -1.250  0.00  0.00    -0.395 OA
ATOM      5  H   LIG    1        4.668   0.315  -1.203  0.00  0.00    +0.209 HD
ENDBRANCH   1   4
TORSDOF 2
