REMARK  Name = *****
REMARK                            x       y       z     vdW  Elec       q    Type
REMARK                         _______ _______ _______ _____ _____    ______ ____
ROOT
ATOM      1  C   LIG    1       -0.942  -3.637   2.719  0.00  0.00    +0.256 C 
ATOM      2  N   LIG    1       -1.135  -2.220   3.021  0.00  0.00    -0.180 N 
ATOM      3  C   LIG    1       -1.345  -1.487   1.884  0.00  0.00    +0.318 C 
ATOM      4  N   LIG    1       -1.164  -0.199   1.909  0.00  0.00    -0.079 NA
ATOM      5  C   LIG    1       -0.736   0.004   3.339  0.00  0.00    +0.334 C 
ATOM      6  C   LIG    1       -1.542  -2.353   0.748  0.00  0.00    +0.075 A 
ATOM      7  C   LIG    1       -1.777  -2.036  -0.574  0.00  0.00    +0.016 A 
ATOM      8  C   LIG    1       -1.694  -3.076  -1.498  0.00  0.00    +0.001 A 
ATOM      9  C   LIG    1       -1.331  -4.370  -1.083  0.00  0.00    +0.001 A 
ATOM     10  C   LIG    1       -1.066  -4.652   0.265  0.00  0.00    +0.012 A 
ATOM     11  C   LIG    1       -0.323  -1.392   3.874  0.00  0.00    +0.279 C 
ATOM     12  C   LIG    1       -1.215  -3.640   1.205  0.00  0.00    +0.045 A 
ENDROOT
BRANCH   1  13
ATOM     13  C   LIG    1       -1.859  -4.516   3.583  0.00  0.00    +0.031 A 
ATOM     14  C   LIG    1       -2.369  -5.751   3.138  0.00  0.00    +0.012 A 
ATOM     15  C   LIG    1       -3.171  -6.559   3.956  0.00  0.00    +0.020 A 
ATOM     16  C   LIG    1       -3.473  -6.155   5.250  0.00  0.00    +0.041 A 
ATOM     17 CL   LIG    1       -4.453  -7.148   6.255  0.00  0.00    -0.084 Cl
ATOM     18  C   LIG    1       -2.975  -4.954   5.733  0.00  0.00    +0.020 A 
ATOM     19  C   LIG    1       -2.174  -4.152   4.910  0.00  0.00    +0.012 A 
ENDBRANCH   1  13
BRANCH   1  20
ATOM     20  O   LIG    1        0.403  -4.003   2.961  0.00  0.00    -0.346 OA
ATOM     21  H   LIG    1        0.911  -3.602   2.238  0.00  0.00    +0.215 HD
ENDBRANCH   1  20
TORSDOF 2
