REMARK  Name = *****
REMARK                            x       y       z     vdW  Elec       q    Type
REMARK                         _______ _______ _______ _____ _____    ______ ____
ROOT
ATOM      1  C   LIG    1        3.908   1.720   1.545  0.00  0.00    +0.056 C 
ENDROOT
BRANCH   1   2
ATOM      2  C   LIG    1        3.918   2.859   2.545  0.00  0.00    -0.046 A 
ATOM      3  C   LIG    1        3.790   4.188   2.122  0.00  0.00    +0.003 A 
ATOM      4  C   LIG    1        3.784   5.232   3.051  0.00  0.00    +0.000 A 
ATOM      5  C   LIG    1        3.914   4.957   4.412  0.00  0.00    +0.000 A 
ATOM      6  C   LIG    1        4.055   3.641   4.843  0.00  0.00    +0.000 A 
ATOM      7  C   LIG    1        4.060   2.598   3.917  0.00  0.00    +0.003 A 
ENDBRANCH   1   2
BRANCH   1   8
ATOM      8  C   LIG    1        2.518   1.084   1.221  0.00  0.00    +0.017 C 
ATOM      9  C   LIG    1        1.826   0.538   2.484  0.00  0.00    +0.027 C 
ATOM     10  C   LIG    1        1.586   2.136   0.581  0.00  0.00    +0.027 C 
BRANCH   8  12
ATOM     11  C   LIG    1        3.434  -1.150   0.574  0.00  0.00    +0.101 C 
ATOM     12  N   LIG    1        2.647   0.015   0.194  0.00  0.00    -0.314 NA
ATOM     13  H   LIG    1        1.715  -0.302  -0.074  0.00  0.00    +0.122 HD
ENDBRANCH   8  12
ENDBRANCH   1   8
TORSDOF 3
