REMARK  Name = *****
REMARK                            x       y       z     vdW  Elec       q    Type
REMARK                         _______ _______ _______ _____ _____    ______ ____
ROOT
ATOM      1  O   LIG    1        5.384  10.006   1.536  0.00  0.00    -0.489 OA
ENDROOT
BRANCH   1   5
ATOM      2  C   LIG    1        3.181   7.483   4.070  0.00  0.00    -0.045 A 
ATOM      3  C   LIG    1        4.511   7.175   3.772  0.00  0.00    +0.007 A 
ATOM      4  C   LIG    1        5.256   8.008   2.936  0.00  0.00    +0.046 A 
ATOM      5  C   LIG    1        4.699   9.163   2.378  0.00  0.00    +0.121 A 
ATOM      6  C   LIG    1        3.378   9.490   2.693  0.00  0.00    +0.046 A 
ATOM      7  C   LIG    1        2.625   8.646   3.528  0.00  0.00    +0.007 A 
BRANCH   2   8
ATOM      8  C   LIG    1        2.396   6.570   4.979  0.00  0.00    +0.063 C 
BRANCH   8   9
ATOM      9  C   LIG    1        1.175   5.953   4.298  0.00  0.00    +0.164 C 
BRANCH   9  11
ATOM     10  C   LIG    1       -0.647   4.505   4.671  0.00  0.00    +0.193 C 
ATOM     11  O   LIG    1        0.503   5.115   5.241  0.00  0.00    -0.383 OA
ENDBRANCH   9  11
ENDBRANCH   8   9
ENDBRANCH   2   8
ENDBRANCH   1   5
BRANCH   1  12
ATOM     12  C   LIG    1        6.487   9.371   0.859  0.00  0.00    +0.261 C 
BRANCH  12  13
ATOM     13  C   LIG    1        6.897  10.157  -0.395  0.00  0.00    +0.166 C 
BRANCH  13  14
ATOM     14  O   LIG    1        5.753  10.290  -1.253  0.00  0.00    -0.387 OA
ATOM     15  H   LIG    1        5.069  10.720  -0.706  0.00  0.00    +0.210 HD
ENDBRANCH  13  14
BRANCH  13  16
ATOM     16  C   LIG    1        8.003   9.376  -1.143  0.00  0.00    +0.115 C 
BRANCH  16  17
ATOM     17  N   LIG    1        8.436  10.053  -2.373  0.00  0.00    -0.311 NA
ATOM     18  H   LIG    1        7.608  10.191  -2.961  0.00  0.00    +0.122 HD
BRANCH  17  19
ATOM     19  C   LIG    1        9.476   9.318  -3.107  0.00  0.00    +0.048 C 
ATOM     20  C   LIG    1        9.897  10.149  -4.323  0.00  0.00    +0.024 C 
ATOM     21  C   LIG    1        9.043   7.919  -3.557  0.00  0.00    +0.024 C 
ENDBRANCH  17  19
ENDBRANCH  16  17
ENDBRANCH  13  16
ENDBRANCH  12  13
ENDBRANCH   1  12
TORSDOF 10
