REMARK  Name = *****
REMARK                            x       y       z     vdW  Elec       q    Type
REMARK                         _______ _______ _______ _____ _____    ______ ____
ROOT
ATOM      1  C   LIG    1        2.389  -0.228   0.346  0.00  0.00    +0.037 A 
ATOM      2  C   LIG    1        3.107  -1.371   0.035  0.00  0.00    +0.070 A 
ATOM      3  C   LIG    1        2.713  -2.781   0.067  0.00  0.00    +0.256 C 
ATOM      4  N   LIG    1        3.794  -3.506  -0.359  0.00  0.00    -0.222 N 
ATOM      5  C   LIG    1        4.879  -2.702  -0.575  0.00  0.00    +0.255 C 
ATOM      6  O   LIG    1        6.018  -3.014  -0.868  0.00  0.00    -0.270 OA
ATOM      7  O   LIG    1        1.626  -3.188   0.434  0.00  0.00    -0.269 OA
ATOM      8  C   LIG    1        4.437  -1.329  -0.350  0.00  0.00    +0.051 A 
ATOM      9  C   LIG    1        5.131  -0.142  -0.471  0.00  0.00    +0.014 A 
ATOM     10  C   LIG    1        4.425   1.033  -0.208  0.00  0.00    +0.003 A 
ATOM     11  C   LIG    1        3.067   0.989   0.175  0.00  0.00    +0.023 A 
ENDROOT
BRANCH   4  12
ATOM     12  C   LIG    1        3.827  -4.960  -0.340  0.00  0.00    +0.171 C 
ATOM     13  C   LIG    1        4.553  -5.434   0.924  0.00  0.00    +0.240 C 
ATOM     14  O   LIG    1        4.622  -4.777   1.960  0.00  0.00    -0.273 OA
ATOM     15  N   LIG    1        5.066  -6.712   0.873  0.00  0.00    -0.255 N 
ATOM     16  H   LIG    1        5.518  -7.041   1.716  0.00  0.00    +0.158 HD
ATOM     17  C   LIG    1        5.073  -7.578  -0.192  0.00  0.00    +0.219 C 
ATOM     18  O   LIG    1        5.544  -8.707  -0.085  0.00  0.00    -0.275 OA
ATOM     19  C   LIG    1        4.401  -7.102  -1.459  0.00  0.00    +0.098 C 
ATOM     20  C   LIG    1        4.458  -5.586  -1.581  0.00  0.00    +0.042 C 
ENDBRANCH   4  12
BRANCH   1  21
ATOM     21  N   LIG    1        1.012  -0.242   0.580  0.00  0.00    -0.357 N 
ATOM     22  H   LIG    1        0.666  -1.151   0.900  0.00  0.00    +0.142 HD
ATOM     23  H   LIG    1        0.665   0.525   1.147  0.00  0.00    +0.142 HD
ENDBRANCH   1  21
TORSDOF 2
