REMARK  Name = *****
REMARK                            x       y       z     vdW  Elec       q    Type
REMARK                         _______ _______ _______ _____ _____    ______ ____
ROOT
ATOM      1  C   LIG    1        4.933   3.123   0.372  0.00  0.00    +0.162 C 
ENDROOT
BRANCH   1   2
ATOM      2  C   LIG    1        6.017   2.603   1.313  0.00  0.00    -0.007 A 
ATOM      3  C   LIG    1        6.105   3.025   2.676  0.00  0.00    +0.009 A 
ATOM      4  C   LIG    1        7.150   2.473   3.457  0.00  0.00    +0.071 A 
ATOM      5  C   LIG    1        7.266   2.830   4.791  0.00  0.00    +0.032 A 
ATOM      6  C   LIG    1        6.387   3.727   5.400  0.00  0.00    +0.048 A 
ATOM      7  C   LIG    1        5.365   4.299   4.657  0.00  0.00    +0.121 A 
ATOM      8  N   LIG    1        8.059   1.614   2.979  0.00  0.00    -0.255 NA
ATOM      9  C   LIG    1        7.968   1.255   1.687  0.00  0.00    +0.112 A 
ATOM     10  C   LIG    1        5.233   3.953   3.306  0.00  0.00    +0.056 A 
ATOM     11  C   LIG    1        6.991   1.718   0.830  0.00  0.00    +0.026 A 
BRANCH   7  12
ATOM     12  O   LIG    1        4.442   5.193   5.125  0.00  0.00    -0.495 OA
ATOM     13  C   LIG    1        4.564   5.574   6.494  0.00  0.00    +0.277 C 
ENDBRANCH   7  12
ENDBRANCH   1   2
BRANCH   1  17
ATOM     14  C   LIG    1        2.598   0.447  -2.332  0.00  0.00    +0.028 C 
ATOM     15  C   LIG    1        2.135   1.799  -1.733  0.00  0.00    -0.000 C 
ATOM     16  C   LIG    1        3.313   2.786  -1.615  0.00  0.00    +0.026 C 
ATOM     17  C   LIG    1        4.454   2.152  -0.770  0.00  0.00    +0.090 C 
ATOM     18  N   LIG    1        4.065   0.783  -0.314  0.00  0.00    -0.296 NA
ATOM     19  C   LIG    1        2.819   0.837   0.481  0.00  0.00    +0.085 C 
ATOM     20  C   LIG    1        1.676   1.515  -0.290  0.00  0.00    +0.019 C 
ATOM     21  C   LIG    1        3.821  -0.051  -1.518  0.00  0.00    +0.092 C 
BRANCH  14  23
ATOM     22  C   LIG    1        2.222  -0.180  -4.740  0.00  0.00    +0.004 C 
ATOM     23  C   LIG    1        2.900   0.506  -3.812  0.00  0.00    -0.029 C 
ENDBRANCH  14  23
ENDBRANCH   1  17
BRANCH   1  24
ATOM     24  O   LIG    1        5.409   4.331  -0.240  0.00  0.00    -0.386 OA
ATOM     25  H   LIG    1        6.371   4.377  -0.104  0.00  0.00    +0.210 HD
ENDBRANCH   1  24
TORSDOF 5
