REMARK  Name = *****
REMARK                            x       y       z     vdW  Elec       q    Type
REMARK                         _______ _______ _______ _____ _____    ______ ____
ROOT
ATOM      1  C   LIG    1       11.170  -7.114  -0.114  0.00  0.00    -0.027 C 
ATOM      2  C   LIG    1       12.269  -7.639  -0.677  0.00  0.00    -0.027 C 
ENDROOT
BRANCH   1   3
ATOM      3  C   LIG    1       10.401  -5.863  -0.394  0.00  0.00    +0.054 C 
BRANCH   3   5
ATOM      4  C   LIG    1       11.682  -4.019   0.842  0.00  0.00    -0.027 C 
ATOM      5  C   LIG    1       11.137  -4.564  -0.260  0.00  0.00    -0.027 C 
BRANCH   4   6
ATOM      6  C   LIG    1       11.769  -4.606   2.224  0.00  0.00    +0.054 C 
BRANCH   6   8
ATOM      7  C   LIG    1        9.965  -5.938   3.442  0.00  0.00    -0.027 C 
ATOM      8  C   LIG    1       10.430  -4.810   2.871  0.00  0.00    -0.027 C 
BRANCH   7   9
ATOM      9  C   LIG    1       10.705  -7.249   3.576  0.00  0.00    +0.054 C 
BRANCH   9  11
ATOM     10  C   LIG    1        9.861  -9.602   4.177  0.00  0.00    -0.031 C 
ATOM     11  C   LIG    1        9.912  -8.269   4.346  0.00  0.00    -0.027 C 
BRANCH  10  13
ATOM     12  C   LIG    1        9.711 -10.792   1.985  0.00  0.00    +0.008 C 
ATOM     13  C   LIG    1       10.582 -10.485   3.195  0.00  0.00    +0.023 C 
ENDBRANCH  10  13
ENDBRANCH   9  11
ENDBRANCH   7   9
ENDBRANCH   6   8
ENDBRANCH   4   6
ENDBRANCH   3   5
ENDBRANCH   1   3
BRANCH   2  14
ATOM     14  C   LIG    1       13.153  -7.102  -1.768  0.00  0.00    +0.054 C 
BRANCH  14  15
ATOM     15  C   LIG    1       14.568  -7.010  -1.258  0.00  0.00    -0.027 C 
ATOM     16  C   LIG    1       15.644  -6.479  -1.857  0.00  0.00    -0.031 C 
BRANCH  16  17
ATOM     17  C   LIG    1       15.720  -5.840  -3.209  0.00  0.00    +0.027 C 
BRANCH  17  18
ATOM     18  C   LIG    1       16.774  -6.496  -4.111  0.00  0.00    +0.015 C 
BRANCH  18  19
ATOM     19  C   LIG    1       16.495  -7.955  -4.476  0.00  0.00    +0.121 C 
BRANCH  19  20
ATOM     20  C   LIG    1       15.209  -8.150  -5.228  0.00  0.00    +0.305 C 
ATOM     21  O   LIG    1       14.248  -8.809  -4.799  0.00  0.00    -0.251 OA
BRANCH  20  22
ATOM     22  O   LIG    1       15.188  -7.573  -6.441  0.00  0.00    -0.481 OA
ATOM     23  H   LIG    1       16.026  -7.125  -6.680  0.00  0.00    +0.295 HD
ENDBRANCH  20  22
ENDBRANCH  19  20
ENDBRANCH  18  19
ENDBRANCH  17  18
ENDBRANCH  16  17
ENDBRANCH  14  15
ENDBRANCH   2  14
TORSDOF 14
