REMARK  Name = *****
REMARK                            x       y       z     vdW  Elec       q    Type
REMARK                         _______ _______ _______ _____ _____    ______ ____
ROOT
ATOM      1  C   LIG    1        6.154  -2.946   0.499  0.00  0.00    +0.267 C 
ENDROOT
BRANCH   1   2
ATOM      2  C   LIG    1        7.272  -2.841   1.510  0.00  0.00    -0.007 A 
ATOM      3  C   LIG    1        7.104  -3.199   2.862  0.00  0.00    +0.053 A 
ATOM      4  C   LIG    1        8.196  -3.165   3.741  0.00  0.00    +0.129 A 
ATOM      5  C   LIG    1        9.465  -2.838   3.249  0.00  0.00    +0.046 A 
ATOM      6  C   LIG    1        9.626  -2.413   1.936  0.00  0.00    +0.004 A 
ATOM      7  C   LIG    1        8.537  -2.416   1.072  0.00  0.00    +0.007 A 
BRANCH   4   8
ATOM      8  O   LIG    1        7.967  -3.493   5.067  0.00  0.00    -0.456 OA
BRANCH   8   9
ATOM      9  C   LIG    1        8.747  -2.905   6.049  0.00  0.00    +0.128 A 
ATOM     10  C   LIG    1        9.281  -1.614   5.941  0.00  0.00    +0.046 A 
ATOM     11  C   LIG    1       10.123  -1.107   6.928  0.00  0.00    +0.004 A 
ATOM     12  C   LIG    1       10.365  -1.848   8.079  0.00  0.00    +0.000 A 
ATOM     13  C   LIG    1        9.779  -3.105   8.232  0.00  0.00    +0.004 A 
ATOM     14  C   LIG    1        8.980  -3.640   7.214  0.00  0.00    +0.046 A 
ENDBRANCH   8   9
ENDBRANCH   4   8
ENDBRANCH   1   2
BRANCH   1  15
ATOM     15  O   LIG    1        5.059  -2.088   0.838  0.00  0.00    -0.460 OA
BRANCH  15  16
ATOM     16  C   LIG    1        4.732  -1.170  -0.119  0.00  0.00    +0.312 C 
ATOM     17  O   LIG    1        5.327  -0.995  -1.161  0.00  0.00    -0.251 OA
BRANCH  16  20
ATOM     18  C   LIG    1        2.852   1.980   0.967  0.00  0.00    +0.012 C 
ATOM     19  C   LIG    1        3.329   1.063  -0.136  0.00  0.00    -0.014 C 
ATOM     20  C   LIG    1        3.524  -0.394   0.277  0.00  0.00    +0.111 C 
ATOM     21  C   LIG    1        2.390  -0.021  -0.657  0.00  0.00    +0.035 C 
ATOM     22  C   LIG    1        4.288   1.761  -1.076  0.00  0.00    +0.012 C 
BRANCH  21  23
ATOM     23  C   LIG    1        2.393  -0.440  -2.071  0.00  0.00    +0.010 C 
ATOM     24  C   LIG    1        2.080  -1.643  -2.578  0.00  0.00    +0.103 C 
ATOM     25 CL   LIG    1        2.144  -1.910  -4.286  0.00  0.00    -0.071 Cl
ATOM     26 CL   LIG    1        1.595  -2.967  -1.584  0.00  0.00    -0.071 Cl
ENDBRANCH  21  23
ENDBRANCH  16  20
ENDBRANCH  15  16
ENDBRANCH   1  15
TORSDOF 7
