REMARK  Name = *****
REMARK                            x       y       z     vdW  Elec       q    Type
REMARK                         _______ _______ _______ _____ _____    ______ ____
ROOT
ATOM      1  C   LIG    1        1.979   1.092   0.627  0.00  0.00    +0.027 C 
ATOM      2  C   LIG    1        2.334  -0.311   0.131  0.00  0.00    +0.084 C 
ENDROOT
BRANCH   2   3
ATOM      3  N   LIG    1        2.878  -0.150  -1.237  0.00  0.00    -0.305 NA
ATOM      4  H   LIG    1        3.881  -0.331  -1.211  0.00  0.00    +0.123 HD
BRANCH   3   5
ATOM      5  C   LIG    1        2.249  -1.020  -2.258  0.00  0.00    +0.088 C 
ATOM      6  C   LIG    1        0.744  -0.752  -2.394  0.00  0.00    +0.027 C 
BRANCH   5   7
ATOM      7  C   LIG    1        2.943  -0.779  -3.625  0.00  0.00    +0.247 C 
BRANCH   7   8
ATOM      8  O   LIG    1        2.387  -1.617  -4.652  0.00  0.00    -0.490 OA
BRANCH   8   9
ATOM      9  C   LIG    1        2.914  -1.427  -5.906  0.00  0.00    +0.121 A 
ATOM     10  C   LIG    1        2.109  -1.818  -6.981  0.00  0.00    +0.045 A 
ATOM     11  C   LIG    1        2.561  -1.663  -8.300  0.00  0.00    +0.004 A 
ATOM     12  C   LIG    1        3.826  -1.133  -8.546  0.00  0.00    +0.000 A 
ATOM     13  C   LIG    1        4.640  -0.766  -7.479  0.00  0.00    +0.004 A 
ATOM     14  C   LIG    1        4.189  -0.920  -6.166  0.00  0.00    +0.045 A 
ENDBRANCH   8   9
ENDBRANCH   7   8
ENDBRANCH   5   7
ENDBRANCH   3   5
ENDBRANCH   2   3
BRANCH   2  15
ATOM     15  C   LIG    1        3.225  -1.094   1.149  0.00  0.00    +0.161 C 
BRANCH  15  16
ATOM     16  C   LIG    1        4.514  -0.424   1.570  0.00  0.00    -0.018 A 
ATOM     17  C   LIG    1        4.527   0.443   2.677  0.00  0.00    +0.010 A 
ATOM     18  C   LIG    1        5.701   1.077   3.079  0.00  0.00    +0.046 A 
ATOM     19  C   LIG    1        6.881   0.841   2.377  0.00  0.00    +0.117 A 
ATOM     20  C   LIG    1        6.897  -0.014   1.283  0.00  0.00    +0.046 A 
ATOM     21  C   LIG    1        5.720  -0.640   0.876  0.00  0.00    +0.010 A 
BRANCH  19  22
ATOM     22  O   LIG    1        8.014   1.472   2.812  0.00  0.00    -0.507 OA
ATOM     23  H   LIG    1        8.746   1.208   2.232  0.00  0.00    +0.292 HD
ENDBRANCH  19  22
ENDBRANCH  15  16
BRANCH  15  24
ATOM     24  O   LIG    1        3.497  -2.407   0.638  0.00  0.00    -0.386 OA
ATOM     25  H   LIG    1        4.097  -2.832   1.276  0.00  0.00    +0.210 HD
ENDBRANCH  15  24
ENDBRANCH   2  15
TORSDOF 9
