REMARK  Name = *****
REMARK                            x       y       z     vdW  Elec       q    Type
REMARK                         _______ _______ _______ _____ _____    ______ ____
ROOT
ATOM      1  N   LIG    1        3.135   1.056   0.337  0.00  0.00    -0.221 N 
ATOM      2  C   LIG    1        2.588   2.419   0.476  0.00  0.00    +0.223 C 
ATOM      3  C   LIG    1        3.568   3.498   0.052  0.00  0.00    -0.013 A 
ATOM      4  C   LIG    1        4.930   3.220  -0.163  0.00  0.00    -0.039 A 
ATOM      5  C   LIG    1        5.801   4.249  -0.549  0.00  0.00    +0.004 A 
ATOM      6  C   LIG    1        5.330   5.553  -0.693  0.00  0.00    +0.000 A 
ATOM      7  C   LIG    1        3.987   5.839  -0.460  0.00  0.00    +0.000 A 
ATOM      8  C   LIG    1        5.438   1.808  -0.040  0.00  0.00    +0.070 C 
ATOM      9  C   LIG    1        3.111   4.818  -0.089  0.00  0.00    +0.007 A 
ATOM     10  C   LIG    1        4.516   0.949   0.827  0.00  0.00    +0.192 C 
ENDROOT
BRANCH   1  13
ATOM     11  N   LIG    1        1.039   0.159   0.888  0.00  0.00    -0.134 NA
ATOM     12  H   LIG    1        0.592  -0.756   0.943  0.00  0.00    +0.306 HD
ATOM     13  C   LIG    1        2.258   0.019   0.500  0.00  0.00    +0.362 C 
BRANCH  13  14
ATOM     14  N   LIG    1        2.754  -1.192   0.165  0.00  0.00    -0.252 N 
ATOM     15  H   LIG    1        3.399  -1.129  -0.613  0.00  0.00    +0.241 HD
ATOM     16  H   LIG    1        2.056  -1.904  -0.001  0.00  0.00    +0.241 HD
ENDBRANCH  13  14
ENDBRANCH   1  13
TORSDOF 2
