REMARK  Name = *****
REMARK                            x       y       z     vdW  Elec       q    Type
REMARK                         _______ _______ _______ _____ _____    ______ ____
ROOT
ATOM      1  C   LIG    1        4.702  -1.534  -0.019  0.00  0.00    +0.067 C 
ENDROOT
BRANCH   1   2
ATOM      2  C   LIG    1        5.235  -2.908  -0.489  0.00  0.00    +0.087 C 
ATOM      3  C   LIG    1        6.511  -3.124  -0.854  0.00  0.00    +0.138 C 
ATOM      4  C   LIG    1        6.987  -4.452  -1.276  0.00  0.00    +0.059 A 
ATOM      5  C   LIG    1        6.028  -5.437  -1.487  0.00  0.00    +0.143 A 
ATOM      6  C   LIG    1        6.346  -6.737  -1.881  0.00  0.00    +0.047 A 
ATOM      7  C   LIG    1        7.678  -7.084  -2.057  0.00  0.00    +0.004 A 
ATOM      8  C   LIG    1        8.669  -6.127  -1.837  0.00  0.00    +0.001 A 
ATOM      9  O   LIG    1        4.674  -5.183  -1.263  0.00  0.00    -0.422 OA
ATOM     10  C   LIG    1        8.327  -4.821  -1.448  0.00  0.00    +0.015 A 
ATOM     11  C   LIG    1        4.266  -4.043  -0.595  0.00  0.00    +0.345 C 
ATOM     12  O   LIG    1        3.123  -3.984  -0.178  0.00  0.00    -0.245 OA
BRANCH   3  13
ATOM     13  O   LIG    1        7.433  -2.090  -0.842  0.00  0.00    -0.505 OA
ATOM     14  H   LIG    1        8.135  -2.284  -1.485  0.00  0.00    +0.292 HD
ENDBRANCH   3  13
ENDBRANCH   1   2
BRANCH   1  15
ATOM     15  C   LIG    1        4.954  -1.306   1.481  0.00  0.00    -0.039 A 
ATOM     16  C   LIG    1        4.268  -2.030   2.470  0.00  0.00    +0.011 A 
ATOM     17  C   LIG    1        4.476  -1.763   3.830  0.00  0.00    +0.084 A 
ATOM     18  C   LIG    1        5.397  -0.782   4.218  0.00  0.00    +0.273 A 
ATOM     19  C   LIG    1        6.122  -0.078   3.253  0.00  0.00    +0.084 A 
ATOM     20  C   LIG    1        5.896  -0.342   1.895  0.00  0.00    +0.011 A 
BRANCH  18  21
ATOM     21  N   LIG    1        5.596  -0.491   5.645  0.00  0.00    +0.080 N 
ATOM     22  O   LIG    1        4.923  -1.134   6.465  0.00  0.00    -0.576 OA
ATOM     23  O   LIG    1        6.423   0.381   5.949  0.00  0.00    +0.041 OA
ENDBRANCH  18  21
ENDBRANCH   1  15
BRANCH   1  24
ATOM     24  C   LIG    1        3.232  -1.269  -0.435  0.00  0.00    +0.087 C 
BRANCH  24  26
ATOM     25  C   LIG    1        1.200   0.222   0.038  0.00  0.00    +0.086 C 
ATOM     26  C   LIG    1        2.692   0.128  -0.212  0.00  0.00    +0.131 C 
ATOM     27  O   LIG    1        3.402   1.131  -0.270  0.00  0.00    -0.298 OA
ENDBRANCH  24  26
ENDBRANCH   1  24
TORSDOF 6
