REMARK  Name = *****
REMARK                            x       y       z     vdW  Elec       q    Type
REMARK                         _______ _______ _______ _____ _____    ______ ____
ROOT
ATOM      1  C   LIG    1        2.700   3.828  -8.494  0.00  0.00    +0.185 C 
ATOM      2  C   LIG    1        2.581   2.291  -8.597  0.00  0.00    +0.063 C 
ATOM      3  C   LIG    1        1.166   1.909  -8.984  0.00  0.00    -0.044 C 
ATOM      4  C   LIG    1        0.939   1.070 -10.135  0.00  0.00    -0.000 C 
ATOM      5  C   LIG    1        1.906   0.837 -11.034  0.00  0.00    -0.023 C 
ATOM      6  C   LIG    1        3.285   1.439 -10.896  0.00  0.00    +0.012 C 
ATOM      7  C   LIG    1        4.321   0.704 -11.750  0.00  0.00    +0.012 C 
ATOM      8  C   LIG    1        0.166   2.414  -8.244  0.00  0.00    -0.020 C 
ATOM      9  C   LIG    1        0.481   3.396  -7.142  0.00  0.00    +0.012 C 
ATOM     10  C   LIG    1       -0.768   4.160  -6.708  0.00  0.00    +0.012 C 
ATOM     11  C   LIG    1        3.699   1.570  -9.400  0.00  0.00    +0.007 C 
ATOM     12  C   LIG    1        1.610   4.390  -7.539  0.00  0.00    +0.052 C 
ENDROOT
BRANCH   1  13
ATOM     13  O   LIG    1        2.606   4.436  -9.800  0.00  0.00    -0.461 OA
BRANCH  13  14
ATOM     14  C   LIG    1        3.147   5.684  -9.924  0.00  0.00    +0.310 C 
ATOM     15  O   LIG    1        3.704   6.294  -9.028  0.00  0.00    -0.251 OA
BRANCH  14  16
ATOM     16  C   LIG    1        3.052   6.206 -11.356  0.00  0.00    +0.094 C 
ATOM     17  C   LIG    1        4.261   5.702 -12.143  0.00  0.00    +0.019 C 
BRANCH  16  19
ATOM     18  C   LIG    1        0.503   6.367 -11.377  0.00  0.00    +0.004 C 
ATOM     19  C   LIG    1        1.748   5.832 -12.073  0.00  0.00    +0.011 C 
ENDBRANCH  16  19
ENDBRANCH  14  16
ENDBRANCH  13  14
ENDBRANCH   1  13
BRANCH  11  20
ATOM     20  C   LIG    1        4.061   0.185  -8.759  0.00  0.00    +0.008 C 
BRANCH  20  21
ATOM     21  C   LIG    1        4.510   0.257  -7.281  0.00  0.00    +0.045 C 
BRANCH  21  22
ATOM     22  C   LIG    1        4.886  -1.106  -6.673  0.00  0.00    +0.179 C 
ATOM     23  O   LIG    1        5.897  -1.692  -7.520  0.00  0.00    -0.461 OA
ATOM     24  C   LIG    1        6.943  -2.423  -7.080  0.00  0.00    +0.310 C 
ATOM     25  O   LIG    1        7.657  -3.035  -7.865  0.00  0.00    -0.251 OA
ATOM     26  C   LIG    1        7.162  -2.468  -5.603  0.00  0.00    +0.152 C 
ATOM     27  C   LIG    1        6.765  -1.145  -4.991  0.00  0.00    +0.129 C 
ATOM     28  C   LIG    1        5.279  -0.949  -5.200  0.00  0.00    +0.076 C 
BRANCH  27  29
ATOM     29  O   LIG    1        7.052  -1.167  -3.596  0.00  0.00    -0.391 OA
ATOM     30  H   LIG    1        6.835  -0.292  -3.229  0.00  0.00    +0.210 HD
ENDBRANCH  27  29
ENDBRANCH  21  22
ENDBRANCH  20  21
ENDBRANCH  11  20
TORSDOF 8
