REMARK  Name = *****
REMARK                            x       y       z     vdW  Elec       q    Type
REMARK                         _______ _______ _______ _____ _____    ______ ____
ROOT
ATOM      1  C   LIG    1        2.285  -0.018  -0.019  0.00  0.00    +0.027 A 
ATOM      2  C   LIG    1        3.013  -1.204  -0.037  0.00  0.00    +0.042 A 
ATOM      3  C   LIG    1        4.392  -1.140  -0.160  0.00  0.00    +0.112 A 
ATOM      4  N   LIG    1        5.088   0.013  -0.231  0.00  0.00    -0.263 NA
ATOM      5  C   LIG    1        4.368   1.152  -0.146  0.00  0.00    +0.112 A 
ATOM      6  C   LIG    1        2.988   1.185  -0.019  0.00  0.00    +0.042 A 
ENDROOT
BRANCH   1   7
ATOM      7  N   LIG    1        0.907  -0.034   0.230  0.00  0.00    -0.358 N 
ATOM      8  H   LIG    1        0.440  -0.875  -0.095  0.00  0.00    +0.142 HD
ATOM      9  H   LIG    1        0.424   0.809  -0.067  0.00  0.00    +0.142 HD
ENDBRANCH   1   7
TORSDOF 1
