REMARK  Name = *****
REMARK                            x       y       z     vdW  Elec       q    Type
REMARK                         _______ _______ _______ _____ _____    ______ ____
ROOT
ATOM      1  C   LIG    1        5.458   1.689   1.207  0.00  0.00    +0.027 C 
ENDROOT
BRANCH   1   3
ATOM      2  C   LIG    1        7.969   1.339   1.359  0.00  0.00    -0.027 C 
ATOM      3  C   LIG    1        6.874   2.108   1.547  0.00  0.00    -0.031 C 
BRANCH   2   4
ATOM      4  C   LIG    1        8.033  -0.053   0.774  0.00  0.00    +0.054 C 
BRANCH   4   6
ATOM      5  C   LIG    1        9.166   0.255  -1.550  0.00  0.00    -0.027 C 
ATOM      6  C   LIG    1        9.071  -0.249  -0.304  0.00  0.00    -0.027 C 
BRANCH   5   7
ATOM      7  C   LIG    1        8.285   1.269  -2.220  0.00  0.00    +0.054 C 
BRANCH   7   9
ATOM      8  C   LIG    1        7.824   0.211  -4.570  0.00  0.00    -0.031 C 
ATOM      9  C   LIG    1        8.240   1.165  -3.723  0.00  0.00    -0.027 C 
BRANCH   8  11
ATOM     10  C   LIG    1        6.263  -1.384  -5.565  0.00  0.00    +0.008 C 
ATOM     11  C   LIG    1        7.115  -1.088  -4.326  0.00  0.00    +0.023 C 
ENDBRANCH   8  11
ENDBRANCH   7   9
ENDBRANCH   5   7
ENDBRANCH   4   6
ENDBRANCH   2   4
ENDBRANCH   1   3
BRANCH   1  12
ATOM     12  C   LIG    1        4.347   2.733   1.458  0.00  0.00    +0.004 C 
BRANCH  12  13
ATOM     13  C   LIG    1        2.886   2.179   1.460  0.00  0.00    +0.000 C 
BRANCH  13  14
ATOM     14  C   LIG    1        2.424   1.626   0.118  0.00  0.00    +0.000 C 
BRANCH  14  15
ATOM     15  C   LIG    1        0.967   1.145  -0.027  0.00  0.00    +0.000 C 
BRANCH  15  16
ATOM     16  C   LIG    1        0.617   0.635  -1.449  0.00  0.00    +0.011 C 
BRANCH  16  17
ATOM     17  C   LIG    1        0.880   1.631  -2.585  0.00  0.00    +0.120 C 
BRANCH  17  18
ATOM     18  C   LIG    1        2.324   1.892  -2.887  0.00  0.00    +0.305 C 
ATOM     19  O   LIG    1        3.062   1.077  -3.483  0.00  0.00    -0.251 OA
BRANCH  18  20
ATOM     20  O   LIG    1        2.790   3.077  -2.474  0.00  0.00    -0.481 OA
ATOM     21  H   LIG    1        2.148   3.559  -1.903  0.00  0.00    +0.295 HD
ENDBRANCH  18  20
ENDBRANCH  17  18
ENDBRANCH  16  17
ENDBRANCH  15  16
ENDBRANCH  14  15
ENDBRANCH  13  14
ENDBRANCH  12  13
ENDBRANCH   1  12
TORSDOF 14
