REMARK  Name = *****
REMARK                            x       y       z     vdW  Elec       q    Type
REMARK                         _______ _______ _______ _____ _____    ______ ____
ROOT
ATOM      1  C   LIG    1        9.899   6.080  -1.897  0.00  0.00    +0.000 C 
ENDROOT
BRANCH   1   2
ATOM      2  C   LIG    1        8.729   5.619  -0.965  0.00  0.00    -0.000 C 
BRANCH   2   3
ATOM      3  C   LIG    1        7.714   4.608  -1.590  0.00  0.00    +0.000 C 
BRANCH   3   4
ATOM      4  C   LIG    1        6.385   4.256  -0.856  0.00  0.00    +0.000 C 
BRANCH   4   5
ATOM      5  C   LIG    1        5.409   3.467  -1.777  0.00  0.00    +0.011 C 
BRANCH   5   6
ATOM      6  C   LIG    1        5.905   2.118  -2.303  0.00  0.00    +0.120 C 
BRANCH   6   7
ATOM      7  C   LIG    1        4.926   1.474  -3.282  0.00  0.00    +0.307 C 
ATOM      8  O   LIG    1        5.175   1.152  -4.375  0.00  0.00    -0.251 OA
BRANCH   7   9
ATOM      9  O   LIG    1        3.749   1.236  -2.584  0.00  0.00    -0.465 OA
BRANCH   9  11
ATOM     10  C   LIG    1        2.175   0.655  -4.383  0.00  0.00    +0.048 C 
ATOM     11  C   LIG    1        2.921   0.210  -3.141  0.00  0.00    +0.228 C 
ENDBRANCH   9  11
ENDBRANCH   7   9
ENDBRANCH   6   7
ENDBRANCH   5   6
ENDBRANCH   4   5
ENDBRANCH   3   4
ENDBRANCH   2   3
ENDBRANCH   1   2
BRANCH   1  12
ATOM     12  C   LIG    1        9.450   6.853  -3.152  0.00  0.00    +0.001 C 
BRANCH  12  13
ATOM     13  C   LIG    1        8.541   8.098  -2.862  0.00  0.00    +0.008 C 
BRANCH  13  14
ATOM     14  C   LIG    1        8.034   8.836  -4.134  0.00  0.00    +0.017 C 
ATOM     15  C   LIG    1        7.189   7.814  -4.954  0.00  0.00    +0.012 C 
BRANCH  14  16
ATOM     16  C   LIG    1        7.374  10.281  -4.037  0.00  0.00    -0.031 A 
ATOM     17  C   LIG    1        7.578  11.273  -3.026  0.00  0.00    +0.017 A 
ATOM     18  I   LIG    1        6.016  11.471  -1.240  0.00  0.00    -0.043 I 
ATOM     19  C   LIG    1        7.650  12.663  -3.339  0.00  0.00    +0.014 A 
ATOM     20  C   LIG    1        7.220  13.115  -4.575  0.00  0.00    +0.001 A 
ATOM     21  C   LIG    1        6.941  12.194  -5.569  0.00  0.00    +0.000 A 
ATOM     22  C   LIG    1        7.080  10.821  -5.319  0.00  0.00    +0.005 A 
ENDBRANCH  14  16
ENDBRANCH  13  14
ENDBRANCH  12  13
ENDBRANCH   1  12
TORSDOF 12
