REMARK  Name = *****
REMARK                            x       y       z     vdW  Elec       q    Type
REMARK                         _______ _______ _______ _____ _____    ______ ____
ROOT
ATOM      1  O   LIG    1        0.745  -0.213  -0.314  0.00  0.00    -0.286 OA
ATOM      2  C   LIG    1        1.960  -0.128  -0.174  0.00  0.00    +0.200 C 
ATOM      3  C   LIG    1        2.678   1.178  -0.101  0.00  0.00    +0.064 C 
ATOM      4  C   LIG    1        4.008   1.131   0.072  0.00  0.00    +0.208 C 
ATOM      5  O   LIG    1        4.790   0.005   0.171  0.00  0.00    -0.462 OA
ATOM      6  C   LIG    1        4.164  -1.212   0.095  0.00  0.00    +0.138 A 
ATOM      7  C   LIG    1        4.967  -2.349   0.195  0.00  0.00    +0.047 A 
ATOM      8  C   LIG    1        4.387  -3.618   0.127  0.00  0.00    +0.004 A 
ATOM      9  C   LIG    1        3.008  -3.750  -0.040  0.00  0.00    +0.001 A 
ATOM     10  C   LIG    1        2.204  -2.613  -0.139  0.00  0.00    +0.015 A 
ATOM     11  C   LIG    1        2.788  -1.343  -0.071  0.00  0.00    +0.065 A 
ENDROOT
BRANCH   3  12
ATOM     12  C   LIG    1        1.976   2.474  -0.175  0.00  0.00    -0.011 A 
ATOM     13  C   LIG    1        2.424   3.490  -1.035  0.00  0.00    +0.009 A 
ATOM     14  C   LIG    1        1.761   4.719  -1.095  0.00  0.00    +0.001 A 
ATOM     15  C   LIG    1        0.641   4.946  -0.299  0.00  0.00    +0.000 A 
ATOM     16  C   LIG    1        0.180   3.945   0.553  0.00  0.00    +0.001 A 
ATOM     17  C   LIG    1        0.843   2.717   0.614  0.00  0.00    +0.009 A 
ENDBRANCH   3  12
TORSDOF 1
