REMARK  Name = *****
REMARK                            x       y       z     vdW  Elec       q    Type
REMARK                         _______ _______ _______ _____ _____    ______ ____
ROOT
ATOM      1  C   LIG    1        3.634  -6.710  -0.204  0.00  0.00    +0.086 C 
ENDROOT
BRANCH   1   2
ATOM      2  N   LIG    1        4.786  -6.603   0.719  0.00  0.00    -0.299 NA
ATOM      3  C   LIG    1        5.133  -7.887   1.364  0.00  0.00    +0.103 C 
ATOM      4  C   LIG    1        5.528  -9.012   0.390  0.00  0.00    +0.120 C 
ATOM      5  N   LIG    1        6.565  -8.616  -0.594  0.00  0.00    -0.327 N 
ATOM      6  C   LIG    1        6.489  -7.216  -1.093  0.00  0.00    +0.120 C 
ATOM      7  C   LIG    1        5.999  -6.199  -0.032  0.00  0.00    +0.103 C 
BRANCH   5   8
ATOM      8  C   LIG    1        6.893  -9.591  -1.568  0.00  0.00    +0.031 A 
ATOM      9  C   LIG    1        7.718  -9.290  -2.667  0.00  0.00    +0.043 A 
ATOM     10  C   LIG    1        8.032 -10.250  -3.635  0.00  0.00    +0.043 A 
ATOM     11 CL   LIG    1        9.025  -9.814  -4.974  0.00  0.00    -0.084 Cl
ATOM     12  C   LIG    1        7.550 -11.547  -3.535  0.00  0.00    +0.020 A 
ATOM     13  C   LIG    1        6.754 -11.887  -2.451  0.00  0.00    +0.003 A 
ATOM     14  C   LIG    1        6.445 -10.926  -1.481  0.00  0.00    +0.023 A 
ENDBRANCH   5   8
ENDBRANCH   1   2
BRANCH   1  15
ATOM     15  C   LIG    1        2.323  -7.130   0.472  0.00  0.00    +0.039 C 
BRANCH  15  16
ATOM     16  C   LIG    1        1.156  -7.219  -0.516  0.00  0.00    +0.150 C 
BRANCH  16  19
ATOM     17  O   LIG    1        0.416 -10.146  -0.676  0.00  0.00    -0.244 OA
ATOM     18  C   LIG    1        0.982  -9.540  -1.569  0.00  0.00    +0.351 C 
ATOM     19  N   LIG    1        1.362  -8.185  -1.574  0.00  0.00    -0.212 N 
ATOM     20  N   LIG    1        1.996  -7.860  -2.761  0.00  0.00    -0.149 NA
ATOM     21  C   LIG    1        1.983  -8.973  -3.429  0.00  0.00    +0.162 C 
ATOM     22  C   LIG    1        2.527  -9.218  -4.781  0.00  0.00    +0.049 C 
ATOM     23  C   LIG    1        2.393 -10.453  -5.295  0.00  0.00    +0.005 C 
ATOM     24  C   LIG    1        1.738 -11.515  -4.552  0.00  0.00    +0.018 C 
ATOM     25  C   LIG    1        1.259 -11.272  -3.321  0.00  0.00    +0.098 C 
ATOM     26  N   LIG    1        1.395 -10.019  -2.793  0.00  0.00    -0.251 N 
ENDBRANCH  16  19
ENDBRANCH  15  16
ENDBRANCH   1  15
TORSDOF 5
