REMARK  Name = *****
REMARK                            x       y       z     vdW  Elec       q    Type
REMARK                         _______ _______ _______ _____ _____    ______ ____
ROOT
ATOM      1  N   LIG    1        4.600   2.395  -5.699  0.00  0.00    -0.298 N 
ATOM      2  C   LIG    1        4.858   2.306  -7.096  0.00  0.00    +0.048 A 
ATOM      3  C   LIG    1        3.844   2.026  -8.030  0.00  0.00    +0.034 A 
ATOM      4  C   LIG    1        4.139   1.981  -9.402  0.00  0.00    +0.017 A 
ATOM      5  C   LIG    1        5.431   2.229  -9.866  0.00  0.00    +0.013 A 
ATOM      6  C   LIG    1        6.452   2.534  -8.963  0.00  0.00    +0.057 A 
ATOM      7  S   LIG    1        2.166   1.667  -7.553  0.00  0.00    -0.086 S 
ATOM      8  C   LIG    1        2.129   2.269  -5.878  0.00  0.00    +0.034 A 
ATOM      9  C   LIG    1        0.868   2.393  -5.274  0.00  0.00    +0.017 A 
ATOM     10  C   LIG    1        0.747   2.839  -3.959  0.00  0.00    +0.001 A 
ATOM     11  C   LIG    1        1.887   3.179  -3.242  0.00  0.00    +0.002 A 
ATOM     12  C   LIG    1        3.146   3.047  -3.833  0.00  0.00    +0.024 A 
ATOM     13  C   LIG    1        6.151   2.575  -7.590  0.00  0.00    +0.037 A 
ATOM     14  C   LIG    1        3.295   2.563  -5.147  0.00  0.00    +0.048 A 
ENDROOT
BRANCH   6  15
ATOM     15  C   LIG    1        7.854   2.825  -9.439  0.00  0.00    +0.417 C 
ATOM     16  F   LIG    1        8.765   1.953  -8.922  0.00  0.00    -0.166 F 
ATOM     17  F   LIG    1        8.281   4.067  -9.079  0.00  0.00    -0.166 F 
ATOM     18  F   LIG    1        7.999   2.756 -10.790  0.00  0.00    -0.166 F 
ENDBRANCH   6  15
BRANCH   1  19
ATOM     19  C   LIG    1        5.462   1.501  -4.867  0.00  0.00    +0.112 C 
BRANCH  19  20
ATOM     20  C   LIG    1        4.926   0.062  -4.848  0.00  0.00    +0.035 C 
BRANCH  20  21
ATOM     21  C   LIG    1        5.811  -0.909  -4.061  0.00  0.00    +0.086 C 
BRANCH  21  26
ATOM     22  C   LIG    1        4.980  -3.023   0.228  0.00  0.00    +0.105 C 
ATOM     23  N   LIG    1        4.886  -3.105  -1.227  0.00  0.00    -0.303 NA
ATOM     24  C   LIG    1        4.018  -2.042  -1.773  0.00  0.00    +0.099 C 
ATOM     25  C   LIG    1        4.683  -0.648  -1.877  0.00  0.00    +0.100 C 
ATOM     26  N   LIG    1        5.963  -0.629  -2.620  0.00  0.00    -0.300 NA
ATOM     27  C   LIG    1        6.848  -1.647  -1.997  0.00  0.00    +0.100 C 
ATOM     28  C   LIG    1        6.220  -3.061  -1.857  0.00  0.00    +0.099 C 
ENDBRANCH  21  26
ENDBRANCH  20  21
ENDBRANCH  19  20
ENDBRANCH   1  19
TORSDOF 5
