REMARK  Name = *****
REMARK                            x       y       z     vdW  Elec       q    Type
REMARK                         _______ _______ _______ _____ _____    ______ ____
ROOT
ATOM      1  C   LIG    1        2.396  -2.307   0.370  0.00  0.00    +0.179 C 
ENDROOT
BRANCH   1   4
ATOM      2  C   LIG    1        1.142  -5.082   0.796  0.00  0.00    +0.044 C 
ATOM      3  C   LIG    1        2.142  -4.483   1.753  0.00  0.00    -0.044 A 
ATOM      4  C   LIG    1        2.693  -3.189   1.589  0.00  0.00    -0.012 A 
ATOM      5  C   LIG    1        3.591  -2.718   2.572  0.00  0.00    +0.007 A 
ATOM      6  C   LIG    1        3.937  -3.495   3.677  0.00  0.00    +0.000 A 
ATOM      7  C   LIG    1        3.402  -4.762   3.824  0.00  0.00    +0.000 A 
ATOM      8  C   LIG    1        2.510  -5.255   2.872  0.00  0.00    +0.003 A 
ENDBRANCH   1   4
BRANCH   1   9
ATOM      9  C   LIG    1        0.951  -1.877   0.209  0.00  0.00    -0.015 A 
ATOM     10  C   LIG    1        0.226  -1.306   1.262  0.00  0.00    +0.006 A 
ATOM     11  C   LIG    1       -1.103  -0.917   1.083  0.00  0.00    +0.000 A 
ATOM     12  C   LIG    1       -1.718  -1.087  -0.160  0.00  0.00    +0.000 A 
ATOM     13  C   LIG    1       -1.005  -1.631  -1.220  0.00  0.00    +0.000 A 
ATOM     14  C   LIG    1        0.324  -2.018  -1.044  0.00  0.00    +0.006 A 
ENDBRANCH   1   9
BRANCH   1  15
ATOM     15  O   LIG    1        3.166  -1.087   0.392  0.00  0.00    -0.366 OA
BRANCH  15  16
ATOM     16  C   LIG    1        4.197  -1.104  -0.594  0.00  0.00    +0.176 C 
BRANCH  16  17
ATOM     17  C   LIG    1        5.037   0.185  -0.535  0.00  0.00    +0.112 C 
BRANCH  17  18
ATOM     18  N   LIG    1        6.131   0.282  -1.523  0.00  0.00    -0.306 NA
ATOM     19  C   LIG    1        5.628   0.329  -2.894  0.00  0.00    +0.104 C 
ATOM     20  C   LIG    1        7.108  -0.794  -1.364  0.00  0.00    +0.104 C 
ENDBRANCH  17  18
ENDBRANCH  16  17
ENDBRANCH  15  16
ENDBRANCH   1  15
TORSDOF 6
