REMARK  Name = *****
REMARK                            x       y       z     vdW  Elec       q    Type
REMARK                         _______ _______ _______ _____ _____    ______ ____
ROOT
ATOM      1  C   UNK    1        6.674  12.642   3.654  0.00  0.00    +0.129 C 
ATOM      2  C   UNK    1        7.181  13.252   5.012  0.00  0.00    +0.061 C 
ATOM      3  C   UNK    1        8.311  14.255   4.741  0.00  0.00    +0.190 C 
ATOM      4  C   UNK    1        8.827  14.844   6.027  0.00  0.00    +0.141 C 
ATOM      5  C   UNK    1        8.054  14.970   7.120  0.00  0.00    +0.047 C 
ATOM      6  C   UNK    1        6.590  14.594   7.186  0.00  0.00    +0.062 C 
ATOM      7  C   UNK    1        5.791  15.824   7.760  0.00  0.00    +0.096 C 
ATOM      8  C   UNK    1        4.281  15.541   7.804  0.00  0.00    +0.047 C 
ATOM      9  C   UNK    1        6.368  16.210   9.136  0.00  0.00    -0.002 A 
ATOM     10  C   UNK    1        7.748  16.051   9.397  0.00  0.00    +0.069 A 
ATOM     11  C   UNK    1        8.297  16.415  10.641  0.00  0.00    +0.128 A 
ATOM     12  C   UNK    1        7.496  16.944  11.641  0.00  0.00    +0.046 A 
ATOM     13  C   UNK    1        6.142  17.137  11.397  0.00  0.00    +0.004 A 
ATOM     14  C   UNK    1        5.586  16.782  10.160  0.00  0.00    +0.007 A 
ATOM     15  C   UNK    1        8.654  15.532   8.354  0.00  0.00    +0.197 C 
ATOM     16  O   UNK    1        9.875  15.560   8.511  0.00  0.00    -0.287 OA
ATOM     17  C   UNK    1        7.652  15.331   3.854  0.00  0.00    +0.210 C 
ATOM     18  O   UNK    1        7.217  16.393   4.308  0.00  0.00    -0.288 OA
ATOM     19  C   UNK    1        7.277  14.868   2.488  0.00  0.00    +0.121 C 
ATOM     20  C   UNK    1        6.056  13.968   5.849  0.00  0.00    +0.020 C 
ATOM     21  C   UNK    1        6.784  13.608   2.446  0.00  0.00    +0.127 C 
ENDROOT
BRANCH  19  22
ATOM     22  C   UNK    1        7.467  15.790   1.326  0.00  0.00    +0.252 C 
ATOM     23  N   UNK    1        7.114  15.293   0.100  0.00  0.00    -0.299 N 
ATOM     24  H   UNK    1        6.673  14.381   0.063  0.00  0.00    +0.150 HD
ATOM     25  O   UNK    1        7.929  16.919   1.472  0.00  0.00    -0.270 OA
BRANCH  23  26
ATOM     26  C   UNK    1        7.095  16.101  -1.069  0.00  0.00    +0.189 C 
BRANCH  26  27
ATOM     27  N   UNK    1        6.644  15.208  -2.111  0.00  0.00    -0.301 NA
ATOM     28  H   UNK    1        7.167  14.345  -2.065  0.00  0.00    +0.123 HD
BRANCH  27  29
ATOM     29  C   UNK    1        6.742  15.776  -3.450  0.00  0.00    +0.082 C 
BRANCH  29  30
ATOM     30  C   UNK    1        8.114  16.321  -3.879  0.00  0.00    +0.015 C 
BRANCH  30  31
ATOM     31  C   UNK    1        9.281  15.311  -3.936  0.00  0.00    +0.003 C 
BRANCH  31  32
ATOM     32  C   UNK    1        9.649  14.591  -2.623  0.00  0.00    +0.030 C 
BRANCH  32  33
ATOM     33  C   UNK    1       10.823  13.613  -2.686  0.00  0.00    +0.161 C 
BRANCH  33  34
ATOM     34  N   UNK    1       10.510  12.512  -3.648  0.00  0.00    -0.318 NA
ATOM     35  H   UNK    1       11.370  11.983  -3.814  0.00  0.00    +0.119 HD
ATOM     36  H   UNK    1       10.305  12.941  -4.554  0.00  0.00    +0.119 HD
ENDBRANCH  33  34
BRANCH  33  37
ATOM     37  C   UNK    1       11.042  12.966  -1.302  0.00  0.00    +0.322 C 
ATOM     38  O   UNK    1       11.487  13.549  -0.300  0.00  0.00    -0.249 OA
BRANCH  37  39
ATOM     39  O   UNK    1       10.665  11.665  -1.279  0.00  0.00    -0.479 OA
ATOM     40  H   UNK    1       10.289  11.480  -2.176  0.00  0.00    +0.295 HD
ENDBRANCH  37  39
ENDBRANCH  33  37
ENDBRANCH  32  33
ENDBRANCH  31  32
ENDBRANCH  30  31
ENDBRANCH  29  30
ENDBRANCH  27  29
ENDBRANCH  26  27
ENDBRANCH  23  26
ENDBRANCH  19  22
BRANCH   1  42
ATOM     41  C   UNK    1        7.032  10.257   4.268  0.00  0.00    +0.105 C 
ATOM     42  N   UNK    1        7.169  11.288   3.233  0.00  0.00    -0.298 NA
ATOM     43  C   UNK    1        8.523  11.216   2.664  0.00  0.00    +0.105 C 
ENDBRANCH   1  42
BRANCH  21  44
ATOM     44  O   UNK    1        6.405  13.021   1.237  0.00  0.00    -0.509 OA
ATOM     45  H   UNK    1        6.416  12.052   1.411  0.00  0.00    +0.292 HD
ENDBRANCH  21  44
BRANCH  11  46
ATOM     46  O   UNK    1        9.626  16.280  10.951  0.00  0.00    -0.506 OA
ATOM     47  H   UNK    1       10.104  16.009  10.135  0.00  0.00    +0.292 HD
ENDBRANCH  11  46
BRANCH   7  48
ATOM     48  O   UNK    1        5.959  16.992   6.950  0.00  0.00    -0.384 OA
ATOM     49  H   UNK    1        6.202  16.762   6.031  0.00  0.00    +0.211 HD
ENDBRANCH   7  48
BRANCH   4  50
ATOM     50  O   UNK    1       10.181  15.158   5.996  0.00  0.00    -0.507 OA
ATOM     51  H   UNK    1       10.456  15.433   6.901  0.00  0.00    +0.292 HD
ENDBRANCH   4  50
BRANCH   3  52
ATOM     52  O   UNK    1        9.404  13.607   4.112  0.00  0.00    -0.373 OA
ATOM     53  H   UNK    1       10.199  14.121   4.367  0.00  0.00    +0.211 HD
ENDBRANCH   3  52
TORSDOF 17
