REMARK  Name = *****
REMARK                            x       y       z     vdW  Elec       q    Type
REMARK                         _______ _______ _______ _____ _____    ______ ____
ROOT
ATOM      1  C   LIG    1        5.670   1.957  -2.601  0.00  0.00    +0.064 A 
ATOM      2  C   LIG    1        6.782   2.765  -2.309  0.00  0.00    +0.049 A 
ATOM      3  I   LIG    1        6.271   4.792  -3.367  0.00  0.00    -0.041 I 
ATOM      4  C   LIG    1        8.097   2.376  -2.647  0.00  0.00    +0.065 A 
ATOM      5  C   LIG    1        8.277   1.261  -3.493  0.00  0.00    +0.040 A 
ATOM      6  I   LIG    1        9.232   2.302  -5.419  0.00  0.00    -0.042 I 
ATOM      7  C   LIG    1        7.187   0.456  -3.858  0.00  0.00    +0.065 A 
ATOM      8  C   LIG    1        5.900   0.928  -3.539  0.00  0.00    +0.049 A 
ATOM      9  I   LIG    1        5.102   1.564  -5.748  0.00  0.00    -0.041 I 
ENDROOT
BRANCH   7  10
ATOM     10  C   LIG    1        7.349  -0.995  -4.209  0.00  0.00    +0.246 C 
ATOM     11  N   LIG    1        6.254  -1.853  -4.205  0.00  0.00    -0.309 N 
ATOM     12  H   LIG    1        6.497  -2.775  -4.552  0.00  0.00    +0.149 HD
ATOM     13  O   LIG    1        8.449  -1.444  -4.479  0.00  0.00    -0.270 OA
BRANCH  11  14
ATOM     14  C   LIG    1        4.845  -1.595  -3.889  0.00  0.00    +0.132 C 
BRANCH  14  15
ATOM     15  C   LIG    1        3.938  -2.794  -4.078  0.00  0.00    +0.174 C 
BRANCH  15  16
ATOM     16  O   LIG    1        4.249  -3.801  -3.132  0.00  0.00    -0.394 OA
ATOM     17  H   LIG    1        5.219  -3.853  -3.068  0.00  0.00    +0.209 HD
ENDBRANCH  15  16
ENDBRANCH  14  15
ENDBRANCH  11  14
ENDBRANCH   7  10
BRANCH   1  20
ATOM     18  C   LIG    1        6.410   1.226   0.228  0.00  0.00    +0.110 C 
ATOM     19  C   LIG    1        5.016   1.629  -0.178  0.00  0.00    +0.217 C 
ATOM     20  N   LIG    1        4.686   1.750  -1.545  0.00  0.00    -0.267 N 
ATOM     21  O   LIG    1        4.201   1.753   0.740  0.00  0.00    -0.276 OA
BRANCH  20  22
ATOM     22  C   LIG    1        3.268   2.065  -1.898  0.00  0.00    +0.147 C 
BRANCH  22  23
ATOM     23  C   LIG    1        2.547   3.079  -0.956  0.00  0.00    +0.158 C 
BRANCH  23  24
ATOM     24  O   LIG    1        3.294   4.305  -0.921  0.00  0.00    -0.388 OA
ATOM     25  H   LIG    1        2.851   4.898  -1.560  0.00  0.00    +0.210 HD
ENDBRANCH  23  24
BRANCH  23  26
ATOM     26  C   LIG    1        1.122   3.410  -1.401  0.00  0.00    +0.188 C 
BRANCH  26  27
ATOM     27  O   LIG    1        1.192   4.028  -2.683  0.00  0.00    -0.392 OA
ATOM     28  H   LIG    1        0.279   4.126  -3.005  0.00  0.00    +0.209 HD
ENDBRANCH  26  27
ENDBRANCH  23  26
ENDBRANCH  22  23
ENDBRANCH  20  22
ENDBRANCH   1  20
BRANCH   4  29
ATOM     29  C   LIG    1        9.217   2.667  -1.716  0.00  0.00    +0.246 C 
ATOM     30  N   LIG    1        9.269   3.881  -1.128  0.00  0.00    -0.309 N 
ATOM     31  H   LIG    1        8.561   4.594  -1.349  0.00  0.00    +0.149 HD
ATOM     32  O   LIG    1       10.059   1.757  -1.463  0.00  0.00    -0.270 OA
BRANCH  30  33
ATOM     33  C   LIG    1       10.354   4.333  -0.254  0.00  0.00    +0.138 C 
BRANCH  33  34
ATOM     34  C   LIG    1       10.106   5.745   0.303  0.00  0.00    +0.157 C 
BRANCH  34  35
ATOM     35  O   LIG    1       10.031   6.668  -0.795  0.00  0.00    -0.388 OA
ATOM     36  H   LIG    1        9.189   7.152  -0.726  0.00  0.00    +0.210 HD
ENDBRANCH  34  35
BRANCH  34  37
ATOM     37  C   LIG    1        8.831   5.813   1.160  0.00  0.00    +0.188 C 
BRANCH  37  38
ATOM     38  O   LIG    1        7.680   5.439   0.401  0.00  0.00    -0.392 OA
ATOM     39  H   LIG    1        7.567   4.477   0.527  0.00  0.00    +0.209 HD
ENDBRANCH  37  38
ENDBRANCH  34  37
ENDBRANCH  33  34
ENDBRANCH  30  33
ENDBRANCH   4  29
TORSDOF 16
