REMARK  Name = *****
REMARK                            x       y       z     vdW  Elec       q    Type
REMARK                         _______ _______ _______ _____ _____    ______ ____
ROOT
ATOM      1  N   LIG    1        6.545   2.407   3.977  0.00  0.00    -0.341 N 
ATOM      2  H   LIG    1        6.406   2.999   4.793  0.00  0.00    +0.146 HD
ENDROOT
BRANCH   1   3
ATOM      3  C   LIG    1        5.365   2.296   3.199  0.00  0.00    +0.038 A 
ATOM      4  C   LIG    1        4.252   3.177   3.362  0.00  0.00    +0.021 A 
ATOM      5  C   LIG    1        3.106   2.934   2.562  0.00  0.00    +0.074 A 
ATOM      6  C   LIG    1        1.961   3.700   2.723  0.00  0.00    +0.048 A 
ATOM      7  C   LIG    1        1.906   4.726   3.655  0.00  0.00    +0.043 A 
ATOM      8  C   LIG    1        3.020   5.029   4.424  0.00  0.00    +0.021 A 
ATOM      9 CL   LIG    1        0.450   5.620   3.855  0.00  0.00    -0.084 Cl
ATOM     10  N   LIG    1        3.054   1.980   1.621  0.00  0.00    -0.255 NA
ATOM     11  C   LIG    1        4.146   1.233   1.427  0.00  0.00    +0.113 A 
ATOM     12  C   LIG    1        4.184   4.267   4.277  0.00  0.00    +0.013 A 
ATOM     13  C   LIG    1        5.303   1.353   2.166  0.00  0.00    +0.043 A 
ENDBRANCH   1   3
BRANCH   1  14
ATOM     14  C   LIG    1        7.263   1.165   4.349  0.00  0.00    +0.067 C 
ATOM     15  C   LIG    1        8.706   1.517   4.719  0.00  0.00    +0.027 C 
BRANCH  14  16
ATOM     16  C   LIG    1        6.511   0.463   5.500  0.00  0.00    +0.023 C 
BRANCH  16  17
ATOM     17  C   LIG    1        7.113  -0.891   5.894  0.00  0.00    +0.017 C 
BRANCH  17  18
ATOM     18  C   LIG    1        6.297  -1.611   6.989  0.00  0.00    +0.084 C 
BRANCH  18  19
ATOM     19  N   LIG    1        6.162  -0.911   8.291  0.00  0.00    -0.300 NA
BRANCH  19  21
ATOM     20  C   LIG    1        3.914  -2.035   8.794  0.00  0.00    +0.020 C 
ATOM     21  C   LIG    1        5.345  -1.714   9.231  0.00  0.00    +0.081 C 
ENDBRANCH  19  21
BRANCH  19  22
ATOM     22  C   LIG    1        7.510  -0.636   8.861  0.00  0.00    +0.112 C 
BRANCH  22  23
ATOM     23  C   LIG    1        7.614   0.095  10.218  0.00  0.00    +0.171 C 
BRANCH  23  24
ATOM     24  O   LIG    1        7.193  -0.685  11.332  0.00  0.00    -0.394 OA
ATOM     25  H   LIG    1        7.477  -1.601  11.180  0.00  0.00    +0.209 HD
ENDBRANCH  23  24
ENDBRANCH  22  23
ENDBRANCH  19  22
ENDBRANCH  18  19
ENDBRANCH  17  18
ENDBRANCH  16  17
ENDBRANCH  14  16
ENDBRANCH   1  14
TORSDOF 10
