REMARK  Name = *****
REMARK                            x       y       z     vdW  Elec       q    Type
REMARK                         _______ _______ _______ _____ _____    ______ ____
ROOT
ATOM      1  O   LIG    1        3.888  -4.801  -2.926  0.00  0.00    -0.422 OA
ENDROOT
BRANCH   1   7
ATOM      2  C   LIG    1        2.411   0.696   0.002  0.00  0.00    +0.065 A 
ATOM      3  C   LIG    1        2.016  -0.620   0.272  0.00  0.00    +0.024 A 
ATOM      4  C   LIG    1        2.464  -1.683  -0.522  0.00  0.00    -0.017 A 
ATOM      5  C   LIG    1        3.331  -1.425  -1.609  0.00  0.00    -0.014 A 
ATOM      6  C   LIG    1        3.785  -2.494  -2.392  0.00  0.00    +0.055 A 
ATOM      7  C   LIG    1        3.369  -3.793  -2.103  0.00  0.00    +0.133 A 
ATOM      8  C   LIG    1        2.530  -4.054  -1.024  0.00  0.00    +0.047 A 
ATOM      9  C   LIG    1        3.716  -0.105  -1.881  0.00  0.00    +0.009 A 
ATOM     10  C   LIG    1        2.068  -2.998  -0.246  0.00  0.00    +0.012 A 
ATOM     11  C   LIG    1        3.256   0.947  -1.085  0.00  0.00    +0.016 A 
BRANCH   2  14
ATOM     12  N   LIG    1        1.140   1.518   1.880  0.00  0.00    -0.099 NA
ATOM     13  H   LIG    1        0.868   2.377   2.360  0.00  0.00    +0.363 HD
ATOM     14  C   LIG    1        1.918   1.800   0.885  0.00  0.00    +0.308 C 
BRANCH  14  15
ATOM     15  N   LIG    1        2.276   3.099   0.672  0.00  0.00    -0.247 N 
ATOM     16  H   LIG    1        3.122   3.275   0.147  0.00  0.00    +0.288 HD
ATOM     17  H   LIG    1        2.190   3.720   1.467  0.00  0.00    +0.288 HD
ENDBRANCH  14  15
ENDBRANCH   2  14
ENDBRANCH   1   7
BRANCH   1  18
ATOM     18  C   LIG    1        3.191  -5.966  -3.172  0.00  0.00    +0.344 C 
ATOM     19  O   LIG    1        2.085  -6.299  -2.761  0.00  0.00    -0.244 OA
BRANCH  18  20
ATOM     20  C   LIG    1        4.029  -6.840  -3.998  0.00  0.00    +0.060 A 
ATOM     21  C   LIG    1        3.908  -8.224  -3.846  0.00  0.00    +0.018 A 
ATOM     22  C   LIG    1        4.673  -9.077  -4.639  0.00  0.00    +0.046 A 
ATOM     23  C   LIG    1        5.603  -8.571  -5.558  0.00  0.00    +0.142 A 
ATOM     24  C   LIG    1        5.694  -7.183  -5.717  0.00  0.00    +0.046 A 
ATOM     25  C   LIG    1        4.912  -6.317  -4.952  0.00  0.00    +0.018 A 
BRANCH  23  26
ATOM     26  N   LIG    1        6.371  -9.371  -6.412  0.00  0.00    -0.073 NA
ATOM     27  C   LIG    1        6.862 -10.511  -6.071  0.00  0.00    +0.382 C 
BRANCH  27  28
ATOM     28  N   LIG    1        7.532 -11.242  -6.992  0.00  0.00    -0.289 N 
ATOM     29  H   LIG    1        7.178 -12.189  -7.050  0.00  0.00    +0.255 HD
ATOM     30  H   LIG    1        7.454 -10.788  -7.898  0.00  0.00    +0.255 HD
ENDBRANCH  27  28
BRANCH  27  31
ATOM     31  N   LIG    1        6.842 -11.178  -4.893  0.00  0.00    -0.289 N 
ATOM     32  H   LIG    1        7.643 -11.786  -4.774  0.00  0.00    +0.255 HD
ATOM     33  H   LIG    1        6.726 -10.570  -4.091  0.00  0.00    +0.255 HD
ENDBRANCH  27  31
ENDBRANCH  23  26
ENDBRANCH  18  20
ENDBRANCH   1  18
TORSDOF 8
