REMARK  Name = *****
REMARK                            x       y       z     vdW  Elec       q    Type
REMARK                         _______ _______ _______ _____ _____    ______ ____
ROOT
ATOM      1  C   LIG    1        3.244  -0.354  -1.484  0.00  0.00    -0.043 A 
ATOM      2  C   LIG    1        3.593  -0.496  -2.832  0.00  0.00    +0.021 A 
ATOM      3  C   LIG    1        2.695  -1.045  -3.761  0.00  0.00    +0.057 A 
ATOM      4  I   LIG    1        3.524  -1.618  -5.611  0.00  0.00    -0.040 I 
ATOM      5  C   LIG    1        1.366  -1.323  -3.396  0.00  0.00    +0.154 A 
ATOM      6  C   LIG    1        1.030  -1.224  -2.036  0.00  0.00    +0.057 A 
ATOM      7  I   LIG    1       -0.825  -1.884  -1.303  0.00  0.00    -0.040 I 
ATOM      8  C   LIG    1        1.958  -0.746  -1.089  0.00  0.00    +0.021 A 
ENDROOT
BRANCH   1   9
ATOM      9  C   LIG    1        4.283   0.119  -0.482  0.00  0.00    +0.065 C 
BRANCH   9  10
ATOM     10  CA  LIG    1        5.252  -0.994  -0.029  0.00  0.00    +0.165 C 
BRANCH  10  11
ATOM     11  N   LIG    1        4.555  -2.083   0.729  0.00  0.00    -0.318 NA
ATOM     12  H1  LIG    1        3.879  -1.654   1.371  0.00  0.00    +0.119 HD
ATOM     13  H2  LIG    1        3.965  -2.581   0.054  0.00  0.00    +0.119 HD
ENDBRANCH  10  11
BRANCH  10  14
ATOM     14  C   LIG    1        6.359  -0.408   0.874  0.00  0.00    +0.322 C 
ATOM     15  O   LIG    1        7.090   0.525   0.569  0.00  0.00    -0.249 OA
BRANCH  14  16
ATOM     16  OXT LIG    1        6.437  -1.063   2.055  0.00  0.00    -0.479 OA
ATOM     17  HXT LIG    1        5.809  -1.825   1.990  0.00  0.00    +0.295 HD
ENDBRANCH  14  16
ENDBRANCH  10  14
ENDBRANCH   9  10
ENDBRANCH   1   9
BRANCH   5  18
ATOM     18  O   LIG    1        0.413  -1.743  -4.311  0.00  0.00    -0.454 OA
BRANCH  18  19
ATOM     19  C   LIG    1        0.123  -0.906  -5.383  0.00  0.00    +0.131 A 
ATOM     20  C   LIG    1       -0.366  -1.510  -6.556  0.00  0.00    +0.064 A 
ATOM     21  C   LIG    1       -0.638  -0.738  -7.686  0.00  0.00    +0.059 A 
ATOM     22  I   LIG    1       -1.455  -1.691  -9.370  0.00  0.00    -0.040 I 
ATOM     23  C   LIG    1       -0.371   0.640  -7.687  0.00  0.00    +0.143 A 
ATOM     24  C   LIG    1        0.104   1.233  -6.523  0.00  0.00    +0.059 A 
ATOM     25  I   LIG    1        0.597   3.268  -6.463  0.00  0.00    -0.040 I 
ATOM     26  C   LIG    1        0.308   0.481  -5.360  0.00  0.00    +0.064 A 
BRANCH  23  27
ATOM     27  O   LIG    1       -0.567   1.365  -8.838  0.00  0.00    -0.505 OA
ATOM     28  H   LIG    1       -0.240   2.273  -8.676  0.00  0.00    +0.292 HD
ENDBRANCH  23  27
ENDBRANCH  18  19
ENDBRANCH   5  18
TORSDOF 8
