REMARK  Name = *****
REMARK                            x       y       z     vdW  Elec       q    Type
REMARK                         _______ _______ _______ _____ _____    ______ ____
ROOT
ATOM      1  O   LIG    1        3.113  -0.528   2.158  0.00  0.00    -0.270 OA
ATOM      2  C   LIG    1        2.401  -0.244   1.185  0.00  0.00    +0.248 C 
ATOM      3  N   LIG    1        1.020  -0.119   1.190  0.00  0.00    -0.279 N 
ATOM      4  H   LIG    1        0.576   0.243   0.355  0.00  0.00    +0.155 HD
ENDROOT
BRANCH   3   5
ATOM      5  C   LIG    1        0.142  -0.337   2.283  0.00  0.00    +0.077 A 
ATOM      6  C   LIG    1       -1.193   0.100   2.194  0.00  0.00    +0.161 A 
ATOM      7  C   LIG    1       -2.068  -0.112   3.264  0.00  0.00    +0.066 A 
ATOM      8  C   LIG    1       -3.466   0.342   3.162  0.00  0.00    +0.193 C 
ATOM      9  C   LIG    1       -3.879   0.871   1.856  0.00  0.00    +0.101 C 
ATOM     10  C   LIG    1       -2.958   1.031   0.901  0.00  0.00    +0.177 C 
ATOM     11  O   LIG    1       -4.252   0.264   4.089  0.00  0.00    -0.287 OA
ATOM     12  C   LIG    1       -1.645  -0.777   4.416  0.00  0.00    +0.015 A 
ATOM     13  C   LIG    1       -0.335  -1.232   4.497  0.00  0.00    +0.003 A 
ATOM     14  O   LIG    1       -1.605   0.739   1.038  0.00  0.00    -0.450 OA
ATOM     15  C   LIG    1        0.554  -1.006   3.442  0.00  0.00    +0.027 A 
BRANCH  10  16
ATOM     16  C   LIG    1       -3.363   1.483  -0.376  0.00  0.00    +0.215 A 
ATOM     17  N   LIG    1       -2.504   2.192  -1.167  0.00  0.00    -0.236 N 
ATOM     18  H   LIG    1       -1.560   2.505  -0.982  0.00  0.00    +0.192 HD
ATOM     19  N   LIG    1       -3.087   2.492  -2.334  0.00  0.00    -0.046 NA
ATOM     20  N   LIG    1       -4.310   1.990  -2.247  0.00  0.00    -0.023 NA
ATOM     21  N   LIG    1       -4.502   1.375  -1.033  0.00  0.00    -0.105 NA
ENDBRANCH  10  16
ENDBRANCH   3   5
BRANCH   2  22
ATOM     22  C   LIG    1        3.077   0.037  -0.112  0.00  0.00    +0.037 A 
ATOM     23  C   LIG    1        4.366   0.587  -0.141  0.00  0.00    +0.016 A 
ATOM     24  C   LIG    1        4.991   0.856  -1.367  0.00  0.00    +0.046 A 
ATOM     25  C   LIG    1        4.384   0.477  -2.567  0.00  0.00    +0.120 A 
ATOM     26  C   LIG    1        3.110  -0.086  -2.534  0.00  0.00    +0.046 A 
ATOM     27  C   LIG    1        2.443  -0.274  -1.322  0.00  0.00    +0.016 A 
BRANCH  25  28
ATOM     28  O   LIG    1        5.110   0.698  -3.707  0.00  0.00    -0.492 OA
BRANCH  28  29
ATOM     29  C   LIG    1        4.808  -0.119  -4.850  0.00  0.00    +0.229 C 
BRANCH  29  30
ATOM     30  C   LIG    1        5.287  -1.562  -4.634  0.00  0.00    +0.041 C 
BRANCH  30  31
ATOM     31  C   LIG    1        5.069  -2.443  -5.861  0.00  0.00    +0.008 C 
BRANCH  31  32
ATOM     32  C   LIG    1        5.440  -3.915  -5.617  0.00  0.00    +0.035 C 
BRANCH  32  33
ATOM     33  C   LIG    1        5.188  -4.754  -6.851  0.00  0.00    -0.047 A 
ATOM     34  C   LIG    1        6.224  -5.460  -7.477  0.00  0.00    +0.003 A 
ATOM     35  C   LIG    1        5.970  -6.213  -8.627  0.00  0.00    +0.000 A 
ATOM     36  C   LIG    1        4.683  -6.272  -9.159  0.00  0.00    +0.000 A 
ATOM     37  C   LIG    1        3.644  -5.586  -8.537  0.00  0.00    +0.000 A 
ATOM     38  C   LIG    1        3.894  -4.839  -7.388  0.00  0.00    +0.003 A 
ENDBRANCH  32  33
ENDBRANCH  31  32
ENDBRANCH  30  31
ENDBRANCH  29  30
ENDBRANCH  28  29
ENDBRANCH  25  28
ENDBRANCH   2  22
TORSDOF 9
