REMARK  Name = *****
REMARK                            x       y       z     vdW  Elec       q    Type
REMARK                         _______ _______ _______ _____ _____    ______ ____
ROOT
ATOM      1  F   LIG    1        0.947  -0.065   0.020  0.00  0.00    -0.072 F 
ATOM      2  S   LIG    1        2.693  -0.065   0.020  0.00  0.00    +0.433 S 
ATOM      3  F   LIG    1        2.693   1.271  -1.106  0.00  0.00    -0.072 F 
ATOM      4  F   LIG    1        2.693  -1.190  -1.316  0.00  0.00    -0.072 F 
ATOM      5  F   LIG    1        4.440  -0.065   0.020  0.00  0.00    -0.072 F 
ATOM      6  F   LIG    1        2.693  -1.401   1.145  0.00  0.00    -0.072 F 
ATOM      7  F   LIG    1        2.693   1.061   1.356  0.00  0.00    -0.072 F 
ENDROOT
TORSDOF 0
