REMARK  Name = *****
REMARK                            x       y       z     vdW  Elec       q    Type
REMARK                         _______ _______ _______ _____ _____    ______ ____
ROOT
ATOM      1  S   LIG    1        4.616  -3.994  -0.158  0.00  0.00    +0.075 S 
ATOM      2  O   LIG    1        3.594  -3.734  -1.158  0.00  0.00    -0.150 OA
ATOM      3  O   LIG    1        4.249  -4.438   1.167  0.00  0.00    -0.150 OA
ENDROOT
BRANCH   1   4
ATOM      4  C   LIG    1        5.698  -5.228  -0.859  0.00  0.00    +0.109 A 
ATOM      5  C   LIG    1        6.462  -6.036  -0.013  0.00  0.00    +0.030 A 
ATOM      6  C   LIG    1        7.298  -7.011  -0.563  0.00  0.00    +0.024 A 
ATOM      7  C   LIG    1        7.324  -7.237  -1.943  0.00  0.00    +0.025 A 
ATOM      8  C   LIG    1        6.575  -6.400  -2.778  0.00  0.00    +0.024 A 
ATOM      9  C   LIG    1        5.742  -5.414  -2.242  0.00  0.00    +0.030 A 
BRANCH   7  10
ATOM     10  N   LIG    1        8.252  -8.131  -2.491  0.00  0.00    -0.358 N 
ATOM     11  H   LIG    1        8.500  -8.893  -1.867  0.00  0.00    +0.142 HD
ATOM     12  H   LIG    1        7.997  -8.467  -3.415  0.00  0.00    +0.142 HD
ENDBRANCH   7  10
ENDBRANCH   1   4
BRANCH   1  13
ATOM     13  N   LIG    1        5.546  -2.604  -0.088  0.00  0.00    -0.184 N 
ATOM     14  H   LIG    1        5.786  -2.298  -1.022  0.00  0.00    +0.177 HD
BRANCH  13  18
ATOM     15  C   LIG    1       10.180  -3.480  -0.047  0.00  0.00    +0.066 C 
ATOM     16  C   LIG    1        8.945  -3.080   0.701  0.00  0.00    +0.043 A 
ATOM     17  N   LIG    1        7.797  -3.026  -0.006  0.00  0.00    -0.218 NA
ATOM     18  C   LIG    1        6.701  -2.703   0.683  0.00  0.00    +0.235 A 
ATOM     19  N   LIG    1        6.625  -2.416   1.981  0.00  0.00    -0.222 NA
ATOM     20  C   LIG    1        7.798  -2.428   2.637  0.00  0.00    +0.116 A 
ATOM     21  C   LIG    1        9.000  -2.748   2.041  0.00  0.00    +0.043 A 
ENDBRANCH  13  18
ENDBRANCH   1  13
TORSDOF 4
