REMARK  Name = *****
REMARK                            x       y       z     vdW  Elec       q    Type
REMARK                         _______ _______ _______ _____ _____    ______ ____
ROOT
ATOM      1  C   LIG    1        0.937   0.006   0.363  0.00  0.00    +0.045 C 
ATOM      2  C   LIG    1        2.405  -0.005   0.066  0.00  0.00    -0.034 C 
ATOM      3  C   LIG    1        3.112  -1.133  -0.108  0.00  0.00    +0.098 C 
ATOM      4  N   LIG    1        4.486  -1.144  -0.368  0.00  0.00    -0.284 N 
ATOM      5  C   LIG    1        5.190   0.079  -0.463  0.00  0.00    +0.256 C 
ATOM      6  O   LIG    1        6.378   0.238  -0.738  0.00  0.00    -0.267 OA
ATOM      7  C   LIG    1        4.391   1.320  -0.251  0.00  0.00    +0.071 C 
ATOM      8  C   LIG    1        3.078   1.266  -0.012  0.00  0.00    +0.010 C 
ENDROOT
BRANCH   4   9
ATOM      9  C   LIG    1        5.191  -2.397  -0.554  0.00  0.00    +0.049 A 
ATOM     10  C   LIG    1        4.525  -3.537  -1.044  0.00  0.00    +0.026 A 
ATOM     11  C   LIG    1        5.191  -4.757  -1.212  0.00  0.00    +0.002 A 
ATOM     12  C   LIG    1        6.538  -4.867  -0.891  0.00  0.00    +0.000 A 
ATOM     13  C   LIG    1        7.219  -3.757  -0.405  0.00  0.00    +0.002 A 
ATOM     14  C   LIG    1        6.552  -2.537  -0.239  0.00  0.00    +0.026 A 
ENDBRANCH   4   9
TORSDOF 1
