REMARK  Name = *****
REMARK                            x       y       z     vdW  Elec       q    Type
REMARK                         _______ _______ _______ _____ _____    ______ ____
ROOT
ATOM      1  C   LIG    1       -9.117   0.804  -5.520  0.00  0.00    +0.183 C 
ATOM      2  C   LIG    1      -10.488   1.001  -6.207  0.00  0.00    +0.008 C 
ATOM      3  C   LIG    1      -10.315   1.256  -7.731  0.00  0.00    +0.015 C 
ATOM      4  C   LIG    1      -11.018   2.292  -5.516  0.00  0.00    +0.002 C 
ATOM      5  C   LIG    1      -11.966   2.075  -4.313  0.00  0.00    -0.003 C 
ATOM      6  C   LIG    1      -12.989   0.936  -4.498  0.00  0.00    +0.002 C 
ATOM      7  C   LIG    1      -12.209  -0.348  -4.816  0.00  0.00    +0.005 C 
ATOM      8  C   LIG    1      -14.264   1.262  -5.373  0.00  0.00    -0.007 C 
ATOM      9  C   LIG    1      -15.294   0.122  -5.125  0.00  0.00    +0.016 C 
ATOM     10  C   LIG    1      -14.823   2.639  -4.977  0.00  0.00    -0.060 C 
ATOM     11  C   LIG    1      -16.054   2.998  -5.397  0.00  0.00    +0.046 C 
ATOM     12  C   LIG    1      -16.034   3.057  -6.908  0.00  0.00    +0.156 C 
ATOM     13  O   LIG    1      -16.730   3.886  -7.488  0.00  0.00    -0.293 OA
ATOM     14  C   LIG    1      -15.273   1.967  -7.656  0.00  0.00    +0.080 C 
ATOM     15  C   LIG    1      -13.807   3.755  -4.818  0.00  0.00    +0.032 C 
ATOM     16  C   LIG    1      -14.061   1.385  -6.904  0.00  0.00    +0.019 C 
ATOM     17  C   LIG    1      -12.677   3.366  -3.878  0.00  0.00    +0.008 C 
ATOM     18  C   LIG    1       -9.750   3.068  -5.056  0.00  0.00    +0.008 C 
ATOM     19  C   LIG    1      -11.357  -0.267  -6.070  0.00  0.00    +0.011 C 
ATOM     20  C   LIG    1       -8.551   2.213  -5.424  0.00  0.00    +0.045 C 
ENDROOT
BRANCH   1  21
ATOM     21  O   LIG    1       -8.245   0.029  -6.340  0.00  0.00    -0.461 OA
BRANCH  21  22
ATOM     22  C   LIG    1       -7.696  -1.097  -5.823  0.00  0.00    +0.307 C 
ATOM     23  O   LIG    1       -7.920  -1.541  -4.712  0.00  0.00    -0.251 OA
BRANCH  22  24
ATOM     24  C   LIG    1       -6.747  -1.743  -6.802  0.00  0.00    +0.120 C 
BRANCH  24  25
ATOM     25  C   LIG    1       -6.612  -0.972  -8.119  0.00  0.00    +0.011 C 
BRANCH  25  26
ATOM     26  C   LIG    1       -5.591  -1.561  -9.090  0.00  0.00    +0.000 C 
BRANCH  26  27
ATOM     27  C   LIG    1       -4.156  -1.631  -8.560  0.00  0.00    -0.000 C 
BRANCH  27  29
ATOM     28  C   LIG    1       -2.171  -0.371  -7.633  0.00  0.00    +0.004 C 
ATOM     29  C   LIG    1       -3.588  -0.264  -8.172  0.00  0.00    -0.003 C 
ENDBRANCH  27  29
ENDBRANCH  26  27
ENDBRANCH  25  26
ENDBRANCH  24  25
ENDBRANCH  22  24
ENDBRANCH  21  22
ENDBRANCH   1  21
TORSDOF 7
