REMARK  Name = *****
REMARK                            x       y       z     vdW  Elec       q    Type
REMARK                         _______ _______ _______ _____ _____    ______ ____
ROOT
ATOM      1  N   LIG    1        3.523  -4.811   0.091  0.00  0.00    -0.312 NA
ATOM      2  H   LIG    1        2.872  -4.971  -0.675  0.00  0.00    +0.122 HD
ENDROOT
BRANCH   1   3
ATOM      3  C   LIG    1        4.079  -3.452  -0.011  0.00  0.00    +0.086 C 
BRANCH   3   4
ATOM      4  C   LIG    1        2.989  -2.378   0.048  0.00  0.00    +0.052 C 
BRANCH   4   7
ATOM      5  C   LIG    1        3.472  -0.691  -2.677  0.00  0.00    +0.063 C 
ATOM      6  C   LIG    1        3.751  -0.300  -1.271  0.00  0.00    +0.017 C 
ATOM      7  C   LIG    1        3.561  -0.994  -0.085  0.00  0.00    -0.018 C 
ATOM      8  C   LIG    1        4.015  -0.141   0.978  0.00  0.00    +0.003 C 
ATOM      9  C   LIG    1        4.445   1.053   0.399  0.00  0.00    +0.047 C 
ATOM     10  C   LIG    1        4.938   2.131   1.145  0.00  0.00    +0.026 C 
ATOM     11  C   LIG    1        4.997   1.986   2.533  0.00  0.00    +0.002 C 
ATOM     12  C   LIG    1        4.586   0.805   3.145  0.00  0.00    +0.001 C 
ATOM     13  C   LIG    1        4.096  -0.265   2.382  0.00  0.00    +0.010 C 
ATOM     14  N   LIG    1        4.279   0.927  -0.959  0.00  0.00    -0.358 NA
ATOM     15  H   LIG    1        4.512   1.647  -1.627  0.00  0.00    +0.166 HD
ENDBRANCH   4   7
ENDBRANCH   3   4
ENDBRANCH   1   3
BRANCH   1  16
ATOM     16  C   LIG    1        4.587  -5.824   0.026  0.00  0.00    +0.116 C 
BRANCH  16  17
ATOM     17  C   LIG    1        5.378  -5.783  -1.262  0.00  0.00    -0.034 C 
ATOM     18  C   LIG    1        6.750  -5.494  -1.242  0.00  0.00    +0.005 C 
ATOM     19  C   LIG    1        7.477  -5.422  -2.434  0.00  0.00    +0.008 C 
ATOM     20  C   LIG    1        6.837  -5.636  -3.658  0.00  0.00    -0.025 C 
ATOM     21  C   LIG    1        5.466  -5.904  -3.684  0.00  0.00    +0.008 C 
ATOM     22  C   LIG    1        4.742  -5.982  -2.496  0.00  0.00    +0.005 C 
BRANCH  20  23
ATOM     23  C   LIG    1        7.569  -5.534  -4.917  0.00  0.00    +0.013 C 
ATOM     24  C   LIG    1        8.182  -6.527  -5.579  0.00  0.00    +0.070 C 
BRANCH  24  25
ATOM     25  C   LIG    1        8.256  -7.959  -5.179  0.00  0.00    +0.259 C 
ATOM     26  N   LIG    1        9.334  -8.589  -5.752  0.00  0.00    -0.194 N 
ATOM     27  H   LIG    1       10.014  -8.155  -6.364  0.00  0.00    +0.182 HD
ATOM     28  O   LIG    1        7.456  -8.531  -4.460  0.00  0.00    -0.269 OA
BRANCH  26  29
ATOM     29  O   LIG    1        9.495  -9.966  -5.492  0.00  0.00    -0.295 OA
ATOM     30  H   LIG    1        8.702 -10.172  -4.951  0.00  0.00    +0.241 HD
ENDBRANCH  26  29
ENDBRANCH  24  25
ENDBRANCH  20  23
ENDBRANCH  16  17
ENDBRANCH   1  16
TORSDOF 8
