REMARK  Name = *****
REMARK                            x       y       z     vdW  Elec       q    Type
REMARK                         _______ _______ _______ _____ _____    ______ ____
ROOT
ATOM      1  C   LIG    1        3.794   3.938  -2.772  0.00  0.00    +0.034 A 
ATOM      2  C   LIG    1        4.644   2.946  -3.289  0.00  0.00    +0.042 A 
ATOM      3  C   LIG    1        5.480   3.195  -4.403  0.00  0.00    +0.133 A 
ATOM      4  C   LIG    1        5.433   4.473  -4.974  0.00  0.00    +0.285 A 
ATOM      5  C   LIG    1        4.590   5.470  -4.476  0.00  0.00    +0.086 A 
ATOM      6  C   LIG    1        3.773   5.191  -3.383  0.00  0.00    +0.030 A 
ENDROOT
BRANCH   1   8
ATOM      7  C   LIG    1        2.090   4.447  -1.020  0.00  0.00    +0.220 C 
ATOM      8  N   LIG    1        2.997   3.610  -1.652  0.00  0.00    -0.285 N 
ATOM      9  H   LIG    1        3.100   2.675  -1.283  0.00  0.00    +0.155 HD
ATOM     10  O   LIG    1        1.864   5.612  -1.327  0.00  0.00    -0.275 OA
BRANCH   7  12
ATOM     11  C   LIG    1        0.430   4.815   0.820  0.00  0.00    +0.017 C 
ATOM     12  C   LIG    1        1.369   3.796   0.162  0.00  0.00    +0.069 C 
ATOM     13  C   LIG    1        0.584   2.565  -0.285  0.00  0.00    +0.017 C 
ENDBRANCH   7  12
ENDBRANCH   1   8
BRANCH   3  14
ATOM     14  C   LIG    1        6.347   2.076  -4.915  0.00  0.00    +0.424 C 
ATOM     15  F   LIG    1        5.616   1.113  -5.537  0.00  0.00    -0.166 F 
ATOM     16  F   LIG    1        6.995   1.441  -3.897  0.00  0.00    -0.166 F 
ATOM     17  F   LIG    1        7.323   2.443  -5.780  0.00  0.00    -0.166 F 
ENDBRANCH   3  14
BRANCH   4  18
ATOM     18  N   LIG    1        6.238   4.836  -6.122  0.00  0.00    +0.080 N 
ATOM     19  O   LIG    1        6.002   4.231  -7.178  0.00  0.00    -0.576 OA
ATOM     20  O   LIG    1        7.062   5.742  -5.968  0.00  0.00    +0.042 OA
ENDBRANCH   4  18
TORSDOF 4
