REMARK  Name = *****
REMARK                            x       y       z     vdW  Elec       q    Type
REMARK                         _______ _______ _______ _____ _____    ______ ____
ROOT
ATOM      1  C   LIG    1        9.030  -3.385   2.238  0.00  0.00    +0.071 C 
ATOM      2  C   LIG    1        9.496  -3.352   3.716  0.00  0.00    +0.018 C 
ATOM      3  C   LIG    1        9.187  -4.624   4.501  0.00  0.00    +0.001 C 
ATOM      4  C   LIG    1        9.818  -5.834   3.834  0.00  0.00    +0.000 C 
ATOM      5  C   LIG    1        9.341  -5.968   2.396  0.00  0.00    +0.001 C 
ATOM      6  C   LIG    1        9.579  -4.691   1.585  0.00  0.00    +0.018 C 
ENDROOT
BRANCH   1   7
ATOM      7  C   LIG    1        9.523  -2.128   1.388  0.00  0.00    +0.006 C 
ATOM      8  C   LIG    1        8.893  -0.758   1.733  0.00  0.00    +0.004 C 
ATOM      9  C   LIG    1        9.522  -0.041   2.923  0.00  0.00    +0.000 C 
ATOM     10  C   LIG    1       11.029   0.122   2.776  0.00  0.00    +0.000 C 
ATOM     11  C   LIG    1       11.735  -1.174   2.409  0.00  0.00    +0.000 C 
ATOM     12  C   LIG    1       11.058  -1.923   1.258  0.00  0.00    +0.004 C 
ENDBRANCH   1   7
BRANCH   1  13
ATOM     13  C   LIG    1        7.463  -3.389   2.244  0.00  0.00    +0.314 C 
ATOM     14  O   LIG    1        6.778  -2.830   3.078  0.00  0.00    -0.250 OA
BRANCH  13  15
ATOM     15  O   LIG    1        6.954  -4.086   1.171  0.00  0.00    -0.463 OA
BRANCH  15  16
ATOM     16  C   LIG    1        5.513  -4.223   1.142  0.00  0.00    +0.247 C 
BRANCH  16  17
ATOM     17  C   LIG    1        4.867  -3.005   0.451  0.00  0.00    +0.125 C 
BRANCH  17  18
ATOM     18  N   LIG    1        3.395  -3.043   0.339  0.00  0.00    -0.300 NA
BRANCH  18  20
ATOM     19  C   LIG    1        2.777  -1.728   2.451  0.00  0.00    +0.020 C 
ATOM     20  C   LIG    1        2.696  -3.017   1.635  0.00  0.00    +0.081 C 
ENDBRANCH  18  20
BRANCH  18  21
ATOM     21  C   LIG    1        2.901  -2.014  -0.599  0.00  0.00    +0.081 C 
ATOM     22  C   LIG    1        1.418  -2.182  -0.935  0.00  0.00    +0.020 C 
ENDBRANCH  18  21
ENDBRANCH  17  18
ENDBRANCH  16  17
ENDBRANCH  15  16
ENDBRANCH  13  15
ENDBRANCH   1  13
TORSDOF 8
