REMARK  Name = *****
REMARK                            x       y       z     vdW  Elec       q    Type
REMARK                         _______ _______ _______ _____ _____    ______ ____
ROOT
ATOM      1  C   LIG    1        5.341  -0.186   0.918  0.00  0.00    +0.129 C 
ATOM      2  C   LIG    1        5.801  -1.254  -0.119  0.00  0.00    +0.236 C 
ATOM      3  O   LIG    1        5.858  -2.470   0.059  0.00  0.00    -0.274 OA
ATOM      4  N   LIG    1        6.039  -0.825  -1.411  0.00  0.00    -0.239 N 
ATOM      5  H   LIG    1        6.312  -1.546  -2.079  0.00  0.00    +0.159 HD
ATOM      6  C   LIG    1        6.258   0.449  -1.808  0.00  0.00    +0.312 C 
ATOM      7  O   LIG    1        6.727   0.715  -2.921  0.00  0.00    -0.252 OA
ATOM      8  N   LIG    1        6.009   1.408  -0.880  0.00  0.00    -0.239 N 
ATOM      9  H   LIG    1        6.343   2.329  -1.131  0.00  0.00    +0.159 HD
ATOM     10  C   LIG    1        5.866   1.182   0.451  0.00  0.00    +0.236 C 
ATOM     11  O   LIG    1        6.133   2.136   1.207  0.00  0.00    -0.274 OA
ENDROOT
BRANCH   1  12
ATOM     12  C   LIG    1        5.884  -0.560   2.386  0.00  0.00    +0.010 C 
ATOM     13  C   LIG    1        5.464   0.414   3.499  0.00  0.00    +0.009 C 
BRANCH  12  14
ATOM     14  C   LIG    1        5.438  -1.968   2.869  0.00  0.00    +0.001 C 
ATOM     15  C   LIG    1        5.913  -2.457   4.236  0.00  0.00    +0.004 C 
ENDBRANCH  12  14
ENDBRANCH   1  12
BRANCH   1  16
ATOM     16  C   LIG    1        3.775  -0.188   0.796  0.00  0.00    +0.052 C 
BRANCH  16  18
ATOM     17  C   LIG    1        3.075   1.930   2.143  0.00  0.00    +0.004 C 
ATOM     18  C   LIG    1        2.843   0.774   1.507  0.00  0.00    -0.033 C 
ENDBRANCH  16  18
ENDBRANCH   1  16
TORSDOF 4
