REMARK  Name = *****
REMARK                            x       y       z     vdW  Elec       q    Type
REMARK                         _______ _______ _______ _____ _____    ______ ____
ROOT
ATOM      1  C   LIG    1        2.578  -0.953  -0.929  0.00  0.00    +0.057 A 
ATOM      2  C   LIG    1        2.898  -0.204  -2.093  0.00  0.00    +0.022 A 
ATOM      3  C   LIG    1        3.281  -0.959  -3.240  0.00  0.00    +0.084 A 
ATOM      4  N   LIG    1        3.302  -2.312  -3.197  0.00  0.00    -0.212 NA
ATOM      5  C   LIG    1        2.967  -2.905  -2.062  0.00  0.00    +0.238 A 
ATOM      6  N   LIG    1        2.626  -2.306  -0.921  0.00  0.00    -0.217 NA
ENDROOT
BRANCH   3   7
ATOM      7  C   LIG    1        3.697  -0.477  -4.617  0.00  0.00    +0.001 A 
ATOM      8  C   LIG    1        4.499  -1.305  -5.455  0.00  0.00    +0.013 A 
ATOM      9  C   LIG    1        4.928  -0.914  -6.736  0.00  0.00    +0.039 A 
ATOM     10  C   LIG    1        4.561   0.326  -7.222  0.00  0.00    +0.123 A 
ATOM     11  F   LIG    1        4.990   0.729  -8.426  0.00  0.00    -0.205 F 
ATOM     12  C   LIG    1        3.722   1.140  -6.478  0.00  0.00    +0.039 A 
ATOM     13  C   LIG    1        3.280   0.728  -5.205  0.00  0.00    +0.013 A 
ENDBRANCH   3   7
BRANCH   1  15
ATOM     14  C   LIG    1        0.617  -0.824   0.647  0.00  0.00    +0.014 C 
ATOM     15  C   LIG    1        2.063  -0.361   0.390  0.00  0.00    +0.032 C 
ATOM     16  C   LIG    1        2.887  -0.737   1.639  0.00  0.00    +0.014 C 
ENDBRANCH   1  15
BRANCH   2  17
ATOM     17  C   LIG    1        2.853   1.277  -2.089  0.00  0.00    +0.010 C 
ATOM     18  C   LIG    1        1.724   1.987  -2.295  0.00  0.00    +0.005 C 
BRANCH  18  19
ATOM     19  C   LIG    1        1.670   3.483  -2.508  0.00  0.00    +0.140 C 
BRANCH  19  20
ATOM     20  O   LIG    1        1.145   3.692  -3.812  0.00  0.00    -0.388 OA
ATOM     21  H   LIG    1        1.845   3.510  -4.460  0.00  0.00    +0.210 HD
ENDBRANCH  19  20
BRANCH  19  22
ATOM     22  C   LIG    1        0.832   4.307  -1.507  0.00  0.00    +0.067 C 
BRANCH  22  23
ATOM     23  C   LIG    1       -0.677   3.998  -1.410  0.00  0.00    +0.128 C 
BRANCH  23  24
ATOM     24  O   LIG    1       -1.266   4.817  -0.371  0.00  0.00    -0.391 OA
ATOM     25  H   LIG    1       -0.675   4.820   0.405  0.00  0.00    +0.210 HD
ENDBRANCH  23  24
BRANCH  23  26
ATOM     26  C   LIG    1       -1.470   4.324  -2.678  0.00  0.00    +0.151 C 
BRANCH  26  27
ATOM     27  C   LIG    1       -2.936   3.983  -2.598  0.00  0.00    +0.307 C 
ATOM     28  O   LIG    1       -3.594   3.647  -3.580  0.00  0.00    -0.251 OA
BRANCH  27  29
ATOM     29  O   LIG    1       -3.508   4.135  -1.388  0.00  0.00    -0.481 OA
ATOM     30  H   LIG    1       -2.859   4.484  -0.728  0.00  0.00    +0.295 HD
ENDBRANCH  27  29
ENDBRANCH  26  27
ENDBRANCH  23  26
ENDBRANCH  22  23
ENDBRANCH  19  22
ENDBRANCH  18  19
ENDBRANCH   2  17
BRANCH   5  31
ATOM     31  N   LIG    1        2.900  -4.303  -2.088  0.00  0.00    -0.178 N 
ATOM     32  C   LIG    1        1.623  -4.880  -1.659  0.00  0.00    +0.160 C 
BRANCH  31  33
ATOM     33  S   LIG    1        4.308  -5.071  -1.620  0.00  0.00    +0.045 S 
ATOM     34  O   LIG    1        5.429  -4.526  -2.384  0.00  0.00    -0.155 OA
ATOM     35  O   LIG    1        4.064  -6.488  -1.612  0.00  0.00    -0.155 OA
ATOM     36  C   LIG    1        4.555  -4.562   0.075  0.00  0.00    +0.218 C 
ENDBRANCH  31  33
ENDBRANCH   5  31
TORSDOF 13
