REMARK  Name = *****
REMARK                            x       y       z     vdW  Elec       q    Type
REMARK                         _______ _______ _______ _____ _____    ______ ____
ROOT
ATOM      1  C   UNK A  0       -4.045  10.819  -0.639  0.00  0.00    +0.268 C 
ATOM      2  N   UNK A  2       -4.260  10.105   0.520  0.00  0.00    -0.296 N 
ATOM      3  H   ACE A  1       -3.727  10.408   1.335  0.00  0.00    +0.150 HD
ATOM      4  O   UNK A  0       -4.521  10.505  -1.721  0.00  0.00    -0.268 OA
ENDROOT
BRANCH   2   5
ATOM      5  C   UNK A  2       -5.034   8.839   0.547  0.00  0.00    +0.191 C 
ATOM      6  C   UNK A  2       -5.553   8.346   1.937  0.00  0.00    +0.169 C 
ATOM      7  N   UNK A  2       -6.867   8.795   1.520  0.00  0.00    -0.249 N 
ATOM      8  C   UNK A  2       -7.944   8.837   2.343  0.00  0.00    +0.119 C 
ATOM      9  C   UNK A  2       -7.764   8.773   3.678  0.00  0.00    +0.014 C 
ATOM     10  C   UNK A  2       -6.454   8.738   4.411  0.00  0.00    +0.100 C 
ATOM     11  S   UNK A  2       -5.046   9.296   3.398  0.00  0.00    -0.131 S 
ATOM     12  C   UNK A  2       -6.569   8.996   0.227  0.00  0.00    +0.244 C 
ATOM     13  O   UNK A  2       -7.302   9.323  -0.681  0.00  0.00    -0.273 OA
BRANCH   8  14
ATOM     14  C   UNK A  2       -9.354   8.999   1.858  0.00  0.00    +0.351 C 
ATOM     15  O   UNK A  2      -10.319   8.718   2.557  0.00  0.00    -0.244 OA
BRANCH  14  16
ATOM     16  O   UNK A  2       -9.513   9.510   0.624  0.00  0.00    -0.476 OA
ATOM     17  H   UNK A  2       -8.703   9.641   0.080  0.00  0.00    +0.295 HD
ENDBRANCH  14  16
ENDBRANCH   8  14
ENDBRANCH   2   5
BRANCH   1  19
ATOM     18  N   UNK A  0       -2.193  12.195   0.349  0.00  0.00    -0.078 NA
ATOM     19  C   UNK A  0       -3.168  12.075  -0.512  0.00  0.00    +0.190 C 
BRANCH  19  20
ATOM     20  C   UNK A  0       -3.397  13.227  -1.391  0.00  0.00    +0.107 A 
ATOM     21  N   UNK A  0       -2.344  14.074  -1.751  0.00  0.00    -0.223 NA
ATOM     22  C   UNK A  0       -2.754  15.007  -2.570  0.00  0.00    +0.156 A 
ATOM     23  S   UNK A  0       -4.429  14.980  -2.931  0.00  0.00    -0.060 S 
ATOM     24  C   UNK A  0       -4.613  13.589  -1.944  0.00  0.00    +0.078 A 
BRANCH  22  25
ATOM     25  N   UNK A  0       -1.929  15.914  -3.117  0.00  0.00    -0.338 N 
ATOM     26  H   UNK A  0       -0.943  15.680  -3.073  0.00  0.00    +0.144 HD
ATOM     27  H   UNK A  0       -2.213  16.347  -3.986  0.00  0.00    +0.144 HD
ENDBRANCH  22  25
ENDBRANCH  19  20
BRANCH  18  29
ATOM     28  C   UNK A  0       -0.905  11.322   2.027  0.00  0.00    +0.313 C 
ATOM     29  O   UNK A  0       -1.971  11.051   1.123  0.00  0.00    -0.396 OA
ENDBRANCH  18  29
ENDBRANCH   1  19
TORSDOF 7
