REMARK  Name = *****
REMARK                            x       y       z     vdW  Elec       q    Type
REMARK                         _______ _______ _______ _____ _____    ______ ____
ROOT
ATOM      1  C   LIG    1        8.961   3.629   5.751  0.00  0.00    -0.000 C 
ENDROOT
BRANCH   1   2
ATOM      2  C   LIG    1        8.217   2.280   5.627  0.00  0.00    -0.000 C 
BRANCH   2   3
ATOM      3  C   LIG    1        9.120   1.055   5.284  0.00  0.00    -0.000 C 
BRANCH   3   4
ATOM      4  C   LIG    1        8.415  -0.290   4.917  0.00  0.00    -0.000 C 
BRANCH   4   5
ATOM      5  C   LIG    1        9.342  -1.491   4.842  0.00  0.00    -0.000 C 
BRANCH   5   6
ATOM      6  C   LIG    1       10.287  -1.693   6.041  0.00  0.00    -0.000 C 
BRANCH   6   7
ATOM      7  C   LIG    1        9.690  -1.921   7.456  0.00  0.00    -0.000 C 
BRANCH   7   8
ATOM      8  C   LIG    1        8.913  -0.793   8.181  0.00  0.00    -0.000 C 
BRANCH   8  10
ATOM      9  C   LIG    1        6.538  -1.492   7.374  0.00  0.00    +0.004 C 
ATOM     10  C   LIG    1        7.521  -0.373   7.713  0.00  0.00    -0.003 C 
ENDBRANCH   8  10
ENDBRANCH   7   8
ENDBRANCH   6   7
ENDBRANCH   5   6
ENDBRANCH   4   5
ENDBRANCH   3   4
ENDBRANCH   2   3
ENDBRANCH   1   2
BRANCH   1  11
ATOM     11  C   LIG    1        9.701   3.962   4.456  0.00  0.00    +0.000 C 
BRANCH  11  12
ATOM     12  C   LIG    1       10.362   5.330   4.386  0.00  0.00    +0.002 C 
BRANCH  12  13
ATOM     13  C   LIG    1       11.420   5.596   5.458  0.00  0.00    +0.030 C 
BRANCH  13  14
ATOM     14  C   LIG    1       12.103   6.968   5.358  0.00  0.00    +0.196 C 
BRANCH  14  15
ATOM     15  O   LIG    1       11.277   8.061   5.748  0.00  0.00    -0.216 OA
BRANCH  15  16
ATOM     16  S   LIG    1       10.108   8.608   4.761  0.00  0.00    +0.207 S 
ATOM     17  O   LIG    1        8.856   7.881   5.086  0.00  0.00    -0.118 OA
ATOM     18  O   LIG    1       10.573   8.734   3.434  0.00  0.00    -0.118 OA
BRANCH  16  19
ATOM     19  O   LIG    1        9.800  10.092   5.287  0.00  0.00    -0.231 OA
ATOM     20  H   LIG    1        9.181  10.476   4.632  0.00  0.00    +0.247 HD
ENDBRANCH  16  19
ENDBRANCH  15  16
ENDBRANCH  14  15
ENDBRANCH  13  14
ENDBRANCH  12  13
ENDBRANCH  11  12
ENDBRANCH   1  11
TORSDOF 15
