REMARK  Name = *****
REMARK                            x       y       z     vdW  Elec       q    Type
REMARK                         _______ _______ _______ _____ _____    ______ ____
ROOT
ATOM      1  S   LIG    1        3.864   1.240   0.036  0.00  0.00    -0.041 S 
ENDROOT
BRANCH   1   2
ATOM      2  C   LIG    1        2.411   1.834  -0.774  0.00  0.00    +0.132 A 
ATOM      3  C   LIG    1        1.894   1.222  -1.895  0.00  0.00    +0.118 A 
ATOM      4  C   LIG    1        0.809   1.777  -2.546  0.00  0.00    +0.182 A 
ATOM      5  N   LIG    1        0.500   1.070  -3.675  0.00  0.00    -0.216 NA
ATOM      6  C   LIG    1        1.350   0.067  -3.693  0.00  0.00    +0.199 A 
ATOM      7  N   LIG    1        0.164   2.871  -2.106  0.00  0.00    -0.214 NA
ATOM      8  C   LIG    1        0.682   3.360  -0.973  0.00  0.00    +0.225 A 
ATOM      9  N   LIG    1        2.191   0.097  -2.614  0.00  0.00    -0.341 N 
ATOM     10  H   LIG    1        2.910  -0.584  -2.394  0.00  0.00    +0.167 HD
ATOM     11  N   LIG    1        1.769   2.925  -0.299  0.00  0.00    -0.227 NA
ENDBRANCH   1   2
BRANCH   1  14
ATOM     12  C   LIG    1        4.986   4.219   0.602  0.00  0.00    +0.151 C 
ATOM     13  N   LIG    1        5.449   3.404  -0.497  0.00  0.00    -0.323 N 
ATOM     14  C   LIG    1        5.062   2.131  -0.859  0.00  0.00    +0.182 A 
ATOM     15  C   LIG    1        5.852   1.839  -1.963  0.00  0.00    +0.399 A 
ATOM     16  N   LIG    1        6.673   2.905  -2.281  0.00  0.00    -0.170 NA
ATOM     17  C   LIG    1        6.397   3.826  -1.392  0.00  0.00    +0.207 A 
BRANCH  15  18
ATOM     18  N   LIG    1        5.919   0.652  -2.786  0.00  0.00    +0.103 N 
ATOM     19  O   LIG    1        6.710   0.634  -3.733  0.00  0.00    -0.575 OA
ATOM     20  O   LIG    1        5.147  -0.284  -2.486  0.00  0.00    +0.043 OA
ENDBRANCH  15  18
ENDBRANCH   1  14
TORSDOF 3
