REMARK  Name = *****
REMARK                            x       y       z     vdW  Elec       q    Type
REMARK                         _______ _______ _______ _____ _____    ______ ____
ROOT
ATOM      1  C   LIG    1       10.981  -1.273  -8.067  0.00  0.00    +0.065 C 
ATOM      2  C   LIG    1       11.564  -2.400  -8.977  0.00  0.00    +0.097 C 
ATOM      3  C   LIG    1       10.449  -3.003  -9.859  0.00  0.00    +0.065 C 
ATOM      4  C   LIG    1        9.407  -2.216 -10.229  0.00  0.00    +0.016 C 
ATOM      5  C   LIG    1        8.341  -2.583 -11.227  0.00  0.00    +0.061 C 
ATOM      6  N   LIG    1        9.264  -0.950  -9.664  0.00  0.00    -0.321 N 
ATOM      7  H   LIG    1        8.376  -0.488  -9.851  0.00  0.00    +0.152 HD
ATOM      8  C   LIG    1        9.883  -0.587  -8.473  0.00  0.00    +0.016 C 
ATOM      9  C   LIG    1        9.224   0.562  -7.742  0.00  0.00    +0.061 C 
ENDROOT
BRANCH   2  10
ATOM     10  C   LIG    1       12.748  -1.924  -9.876  0.00  0.00    -0.015 A 
ATOM     11  C   LIG    1       13.970  -2.625 -10.062  0.00  0.00    +0.063 A 
ATOM     12 CL   LIG    1       14.217  -4.228  -9.460  0.00  0.00    -0.082 Cl
ATOM     13  C   LIG    1       15.036  -2.030 -10.777  0.00  0.00    +0.059 A 
ATOM     14 CL   LIG    1       16.558  -2.820 -11.048  0.00  0.00    -0.082 Cl
ATOM     15  C   LIG    1       14.903  -0.753 -11.316  0.00  0.00    +0.021 A 
ATOM     16  C   LIG    1       13.671  -0.119 -11.268  0.00  0.00    +0.002 A 
ATOM     17  C   LIG    1       12.605  -0.711 -10.587  0.00  0.00    +0.006 A 
ENDBRANCH   2  10
BRANCH   1  18
ATOM     18  C   LIG    1       11.615  -1.115  -6.726  0.00  0.00    +0.340 C 
ATOM     19  O   LIG    1       12.619  -1.702  -6.385  0.00  0.00    -0.245 OA
BRANCH  18  20
ATOM     20  O   LIG    1       10.893  -0.281  -5.930  0.00  0.00    -0.424 OA
BRANCH  20  21
ATOM     21  C   LIG    1       11.412   0.006  -4.636  0.00  0.00    +0.473 C 
BRANCH  21  22
ATOM     22  O   LIG    1       10.918  -0.890  -3.651  0.00  0.00    -0.427 OA
BRANCH  22  23
ATOM     23  C   LIG    1       11.879  -1.657  -3.067  0.00  0.00    +0.310 C 
ATOM     24  O   LIG    1       12.992  -1.872  -3.488  0.00  0.00    -0.251 OA
BRANCH  23  25
ATOM     25  C   LIG    1       11.379  -2.127  -1.730  0.00  0.00    +0.120 C 
BRANCH  25  27
ATOM     26  C   LIG    1        9.471  -3.497  -2.740  0.00  0.00    +0.004 C 
ATOM     27  C   LIG    1       10.666  -3.462  -1.798  0.00  0.00    +0.008 C 
ENDBRANCH  25  27
ENDBRANCH  23  25
ENDBRANCH  22  23
ENDBRANCH  21  22
ENDBRANCH  20  21
ENDBRANCH  18  20
ENDBRANCH   1  18
BRANCH   3  28
ATOM     28  C   LIG    1       10.441  -4.482 -10.124  0.00  0.00    +0.337 C 
ATOM     29  O   LIG    1        9.611  -5.099 -10.736  0.00  0.00    -0.245 OA
BRANCH  28  30
ATOM     30  O   LIG    1       11.451  -5.010  -9.384  0.00  0.00    -0.465 OA
ATOM     31  C   LIG    1       11.469  -6.402  -9.083  0.00  0.00    +0.280 C 
ENDBRANCH  28  30
ENDBRANCH   3  28
TORSDOF 10
