REMARK  Name = *****
REMARK                            x       y       z     vdW  Elec       q    Type
REMARK                         _______ _______ _______ _____ _____    ______ ____
ROOT
ATOM      1  C   LIG    1        7.590   3.029   6.174  0.00  0.00    +0.065 C 
ATOM      2  C   LIG    1        7.129   2.300   4.903  0.00  0.00    +0.096 C 
ATOM      3  C   LIG    1        5.796   2.834   4.359  0.00  0.00    +0.065 C 
ATOM      4  C   LIG    1        5.356   4.060   4.735  0.00  0.00    +0.016 C 
ATOM      5  C   LIG    1        4.098   4.722   4.234  0.00  0.00    +0.061 C 
ATOM      6  N   LIG    1        6.092   4.798   5.653  0.00  0.00    -0.321 N 
ATOM      7  H   LIG    1        5.677   5.673   5.970  0.00  0.00    +0.152 HD
ATOM      8  C   LIG    1        7.089   4.264   6.453  0.00  0.00    +0.016 C 
ATOM      9  C   LIG    1        7.515   5.113   7.625  0.00  0.00    +0.061 C 
ENDROOT
BRANCH   2  10
ATOM     10  C   LIG    1        8.238   2.350   3.836  0.00  0.00    -0.029 A 
ATOM     11  C   LIG    1        8.880   1.168   3.424  0.00  0.00    +0.088 A 
ATOM     12  C   LIG    1        9.895   1.217   2.454  0.00  0.00    +0.273 A 
ATOM     13  C   LIG    1       10.286   2.440   1.893  0.00  0.00    +0.084 A 
ATOM     14  C   LIG    1        9.655   3.614   2.300  0.00  0.00    +0.007 A 
ATOM     15  C   LIG    1        8.641   3.570   3.260  0.00  0.00    +0.005 A 
BRANCH  12  16
ATOM     16  N   LIG    1       10.552  -0.023   2.015  0.00  0.00    +0.080 N 
ATOM     17  O   LIG    1       10.184  -1.088   2.532  0.00  0.00    -0.576 OA
ATOM     18  O   LIG    1       11.444   0.068   1.158  0.00  0.00    +0.041 OA
ENDBRANCH  12  16
ENDBRANCH   2  10
BRANCH   1  19
ATOM     19  C   LIG    1        8.567   2.364   7.077  0.00  0.00    +0.338 C 
ATOM     20  O   LIG    1        9.199   2.905   7.974  0.00  0.00    -0.245 OA
BRANCH  19  21
ATOM     21  O   LIG    1        8.589   1.030   6.795  0.00  0.00    -0.462 OA
BRANCH  21  23
ATOM     22  C   LIG    1       10.900   0.441   7.314  0.00  0.00    +0.048 C 
ATOM     23  C   LIG    1        9.431   0.200   7.616  0.00  0.00    +0.229 C 
ENDBRANCH  21  23
ENDBRANCH  19  21
ENDBRANCH   1  19
BRANCH   3  24
ATOM     24  C   LIG    1        5.072   1.875   3.478  0.00  0.00    +0.337 C 
ATOM     25  O   LIG    1        5.611   0.912   2.949  0.00  0.00    -0.245 OA
BRANCH  24  26
ATOM     26  O   LIG    1        3.750   2.155   3.422  0.00  0.00    -0.465 OA
ATOM     27  C   LIG    1        2.939   1.313   2.599  0.00  0.00    +0.280 C 
ENDBRANCH  24  26
ENDBRANCH   3  24
TORSDOF 7
