REMARK  Name = *****
REMARK                            x       y       z     vdW  Elec       q    Type
REMARK                         _______ _______ _______ _____ _____    ______ ____
ROOT
ATOM      1  C   LIG    1        3.197  -1.060   0.072  0.00  0.00    +0.125 C 
ATOM      2  C   LIG    1        2.130  -2.062  -0.470  0.00  0.00    +0.101 C 
ATOM      3  N   LIG    1        3.104  -2.398  -1.546  0.00  0.00    -0.260 N 
ATOM      4  C   LIG    1        2.450  -2.363  -2.765  0.00  0.00    +0.131 C 
ATOM      5  C   LIG    1        1.172  -1.958  -2.637  0.00  0.00    +0.016 C 
ATOM      6  C   LIG    1        0.858  -1.629  -1.198  0.00  0.00    +0.068 C 
ATOM      7  C   LIG    1        3.966  -1.397  -1.208  0.00  0.00    +0.228 C 
ATOM      8  O   LIG    1        4.900  -0.945  -1.843  0.00  0.00    -0.275 OA
ENDROOT
BRANCH   1  10
ATOM      9  C   LIG    1        5.243  -0.826   1.524  0.00  0.00    +0.038 C 
ATOM     10  C   LIG    1        3.878  -1.479   1.364  0.00  0.00    +0.125 C 
BRANCH  10  11
ATOM     11  O   LIG    1        3.028  -1.110   2.448  0.00  0.00    -0.391 OA
ATOM     12  H   LIG    1        3.216  -0.185   2.690  0.00  0.00    +0.210 HD
ENDBRANCH  10  11
ENDBRANCH   1  10
BRANCH   4  13
ATOM     13  C   LIG    1        3.179  -2.781  -3.998  0.00  0.00    +0.352 C 
ATOM     14  O   LIG    1        2.648  -3.364  -4.929  0.00  0.00    -0.244 OA
BRANCH  13  15
ATOM     15  O   LIG    1        4.510  -2.537  -3.970  0.00  0.00    -0.476 OA
ATOM     16  H   LIG    1        4.834  -1.987  -3.220  0.00  0.00    +0.295 HD
ENDBRANCH  13  15
ENDBRANCH   4  13
BRANCH   5  17
ATOM     17  S   LIG    1       -0.008  -1.679  -3.863  0.00  0.00    -0.126 S 
BRANCH  17  18
ATOM     18  C   LIG    1       -0.891  -3.284  -3.873  0.00  0.00    +0.093 C 
BRANCH  18  19
ATOM     19  C   LIG    1       -2.040  -3.337  -4.891  0.00  0.00    +0.113 C 
BRANCH  19  20
ATOM     20  N   LIG    1       -1.614  -3.076  -6.251  0.00  0.00    -0.335 N 
ATOM     21  H   LIG    1       -1.385  -2.103  -6.437  0.00  0.00    +0.147 HD
BRANCH  20  22
ATOM     22  C   LIG    1       -1.065  -3.984  -7.102  0.00  0.00    +0.171 C 
ATOM     23  N   LIG    1       -0.919  -5.248  -6.944  0.00  0.00    -0.293 NA
ATOM     24  H   LIG    1       -1.249  -5.534  -6.024  0.00  0.00    +0.188 HD
ENDBRANCH  20  22
ENDBRANCH  19  20
ENDBRANCH  18  19
ENDBRANCH  17  18
ENDBRANCH   5  17
TORSDOF 9
