REMARK  Name = *****
REMARK                            x       y       z     vdW  Elec       q    Type
REMARK                         _______ _______ _______ _____ _____    ______ ____
ROOT
ATOM      1  C   LIG    1        7.081  -4.389  -5.225  0.00  0.00    +0.076 C 
ENDROOT
BRANCH   1   2
ATOM      2  N   LIG    1        7.580  -3.482  -6.397  0.00  0.00    -0.278 NA
BRANCH   2   3
ATOM      3  C   LIG    1        8.714  -3.983  -7.265  0.00  0.00    +0.206 C 
BRANCH   3   4
ATOM      4  C   LIG    1        8.413  -5.237  -8.144  0.00  0.00    +0.319 C 
ATOM      5  O   LIG    1        7.388  -5.709  -8.496  0.00  0.00    -0.250 OA
BRANCH   4   6
ATOM      6  O   LIG    1        9.518  -5.971  -8.409  0.00  0.00    -0.480 OA
ATOM      7  H   LIG    1        9.025  -6.738  -8.817  0.00  0.00    +0.295 HD
ENDBRANCH   4   6
ENDBRANCH   3   4
ENDBRANCH   2   3
BRANCH   2   8
ATOM      8  C   LIG    1        6.599  -2.691  -7.181  0.00  0.00    +0.206 C 
BRANCH   8   9
ATOM      9  C   LIG    1        5.679  -3.459  -8.137  0.00  0.00    +0.319 C 
ATOM     10  O   LIG    1        5.943  -3.903  -9.196  0.00  0.00    -0.250 OA
BRANCH   9  11
ATOM     11  O   LIG    1        4.398  -3.486  -7.706  0.00  0.00    -0.480 OA
ATOM     12  H   LIG    1        3.993  -4.006  -8.434  0.00  0.00    +0.295 HD
ENDBRANCH   9  11
ENDBRANCH   8   9
ENDBRANCH   2   8
ENDBRANCH   1   2
BRANCH   1  13
ATOM     13  C   LIG    1        5.991  -3.647  -4.234  0.00  0.00    +0.104 C 
BRANCH  13  14
ATOM     14  N   LIG    1        5.389  -4.104  -2.909  0.00  0.00    -0.290 NA
BRANCH  14  15
ATOM     15  C   LIG    1        4.576  -3.018  -2.322  0.00  0.00    +0.100 C 
BRANCH  15  16
ATOM     16  C   LIG    1        3.753  -3.513  -1.079  0.00  0.00    +0.101 C 
BRANCH  16  17
ATOM     17  N   LIG    1        2.868  -2.565  -0.454  0.00  0.00    -0.281 NA
BRANCH  17  18
ATOM     18  C   LIG    1        2.068  -3.229   0.619  0.00  0.00    +0.206 C 
BRANCH  18  19
ATOM     19  C   LIG    1        1.004  -4.261   0.177  0.00  0.00    +0.319 C 
ATOM     20  O   LIG    1        0.021  -4.569   0.852  0.00  0.00    -0.250 OA
BRANCH  19  21
ATOM     21  O   LIG    1        1.170  -4.902  -0.989  0.00  0.00    -0.480 OA
ATOM     22  H   LIG    1        0.273  -5.225  -1.224  0.00  0.00    +0.295 HD
ENDBRANCH  19  21
ENDBRANCH  18  19
ENDBRANCH  17  18
BRANCH  17  23
ATOM     23  C   LIG    1        3.725  -1.468   0.030  0.00  0.00    +0.206 C 
BRANCH  23  24
ATOM     24  C   LIG    1        4.832  -1.890   1.000  0.00  0.00    +0.319 C 
ATOM     25  O   LIG    1        5.747  -2.653   0.830  0.00  0.00    -0.250 OA
BRANCH  24  26
ATOM     26  O   LIG    1        4.771  -1.180   2.147  0.00  0.00    -0.480 OA
ATOM     27  H   LIG    1        5.634  -1.393   2.557  0.00  0.00    +0.295 HD
ENDBRANCH  24  26
ENDBRANCH  23  24
ENDBRANCH  17  23
ENDBRANCH  16  17
ENDBRANCH  15  16
ENDBRANCH  14  15
BRANCH  14  28
ATOM     28  C   LIG    1        4.483  -5.264  -2.758  0.00  0.00    +0.205 C 
BRANCH  28  29
ATOM     29  C   LIG    1        3.152  -5.192  -3.626  0.00  0.00    +0.319 C 
ATOM     30  O   LIG    1        3.071  -4.576  -4.684  0.00  0.00    -0.250 OA
BRANCH  29  31
ATOM     31  O   LIG    1        2.046  -5.838  -3.182  0.00  0.00    -0.480 OA
ATOM     32  H   LIG    1        1.996  -6.128  -2.249  0.00  0.00    +0.295 HD
ENDBRANCH  29  31
ENDBRANCH  28  29
ENDBRANCH  14  28
ENDBRANCH  13  14
ENDBRANCH   1  13
BRANCH   1  33
ATOM     33  C   LIG    1        6.694  -5.793  -5.813  0.00  0.00    +0.055 C 
BRANCH  33  37
ATOM     34  C   LIG    1        6.510  -9.401  -3.334  0.00  0.00    +0.120 A 
ATOM     35  C   LIG    1        7.314  -9.363  -4.476  0.00  0.00    +0.046 A 
ATOM     36  C   LIG    1        7.387  -8.239  -5.333  0.00  0.00    +0.007 A 
ATOM     37  C   LIG    1        6.604  -7.129  -5.112  0.00  0.00    -0.046 A 
ATOM     38  C   LIG    1        5.609  -7.351  -4.220  0.00  0.00    +0.007 A 
ATOM     39  C   LIG    1        5.653  -8.330  -3.187  0.00  0.00    +0.046 A 
BRANCH  34  40
ATOM     40  O   LIG    1        6.506 -10.419  -2.395  0.00  0.00    -0.492 OA
BRANCH  40  42
ATOM     41  C   LIG    1        7.570 -12.574  -1.625  0.00  0.00    +0.048 C 
ATOM     42  C   LIG    1        7.370 -11.530  -2.723  0.00  0.00    +0.226 C 
ENDBRANCH  40  42
ENDBRANCH  34  40
ENDBRANCH  33  37
ENDBRANCH   1  33
TORSDOF 25
