REMARK  Name = *****
REMARK                            x       y       z     vdW  Elec       q    Type
REMARK                         _______ _______ _______ _____ _____    ______ ____
ROOT
ATOM      1  C   LIG    1        3.843   0.387   2.730  0.00  0.00    +0.122 C 
ATOM      2  C   LIG    1        4.033   0.224   1.267  0.00  0.00    +0.192 A 
ATOM      3  N   LIG    1        3.774   1.308   0.417  0.00  0.00    -0.190 N 
ATOM      4  C   LIG    1        4.040   1.077  -0.856  0.00  0.00    +0.357 A 
ATOM      5  S   LIG    1        4.523  -0.540  -1.110  0.00  0.00    -0.027 S 
ATOM      6  C   LIG    1        4.385  -0.924   0.571  0.00  0.00    +0.064 A 
ENDROOT
BRANCH   3   7
ATOM      7  C   LIG    1        3.183   2.571   0.908  0.00  0.00    +0.399 C 
BRANCH   7   8
ATOM      8  C   LIG    1        2.795   3.567  -0.136  0.00  0.00    +0.075 A 
ATOM      9  C   LIG    1        1.570   3.559  -0.772  0.00  0.00    +0.129 A 
ATOM     10  N   LIG    1        1.209   4.485  -1.666  0.00  0.00    -0.218 NA
ATOM     11  C   LIG    1        2.088   5.463  -1.946  0.00  0.00    +0.128 A 
ATOM     12  C   LIG    1        1.645   6.565  -2.859  0.00  0.00    +0.088 C 
ATOM     13  N   LIG    1        3.321   5.529  -1.417  0.00  0.00    -0.240 NA
ATOM     14  C   LIG    1        3.649   4.581  -0.525  0.00  0.00    +0.126 A 
BRANCH   9  15
ATOM     15  N   LIG    1        0.639   2.545  -0.570  0.00  0.00    -0.343 N 
ATOM     16  H   LIG    1        0.316   2.452   0.387  0.00  0.00    +0.144 HD
ATOM     17  H   LIG    1       -0.166   2.795  -1.155  0.00  0.00    +0.144 HD
ENDBRANCH   9  15
ENDBRANCH   7   8
ENDBRANCH   3   7
BRANCH   6  18
ATOM     18  C   LIG    1        4.628  -2.365   0.982  0.00  0.00    +0.077 C 
BRANCH  18  19
ATOM     19  C   LIG    1        4.664  -2.675   2.479  0.00  0.00    +0.178 C 
BRANCH  19  20
ATOM     20  O   LIG    1        3.410  -2.455   3.106  0.00  0.00    -0.286 OA
BRANCH  20  21
ATOM     21  P   LIG    1        3.330  -2.679   4.705  0.00  0.00    +0.483 P 
ATOM     22  O   LIG    1        4.594  -3.158   5.349  0.00  0.00    -0.227 OA
BRANCH  21  23
ATOM     23  O   LIG    1        2.930  -1.212   5.213  0.00  0.00    -0.302 OA
ATOM     24  H   LIG    1        2.969  -1.140   6.193  0.00  0.00    +0.222 HD
ENDBRANCH  21  23
BRANCH  21  25
ATOM     25  O   LIG    1        2.036  -3.550   4.907  0.00  0.00    -0.186 OA
BRANCH  25  26
ATOM     26  P   LIG    1        1.228  -3.706   6.263  0.00  0.00    +0.481 P 
ATOM     27  O   LIG    1        1.115  -2.477   7.083  0.00  0.00    -0.227 OA
BRANCH  26  28
ATOM     28  O   LIG    1        1.901  -4.920   7.045  0.00  0.00    -0.302 OA
ATOM     29  H   LIG    1        2.477  -4.637   7.781  0.00  0.00    +0.222 HD
ENDBRANCH  26  28
BRANCH  26  30
ATOM     30  O   LIG    1       -0.173  -4.330   5.822  0.00  0.00    -0.302 OA
ATOM     31  H   LIG    1       -0.822  -4.348   6.547  0.00  0.00    +0.222 HD
ENDBRANCH  26  30
ENDBRANCH  25  26
ENDBRANCH  21  25
ENDBRANCH  20  21
ENDBRANCH  19  20
ENDBRANCH  18  19
ENDBRANCH   6  18
TORSDOF 12
