REMARK  Name = *****
REMARK                            x       y       z     vdW  Elec       q    Type
REMARK                         _______ _______ _______ _____ _____    ______ ____
ROOT
ATOM      1  C   LIG    1        2.747   1.462  -0.272  0.00  0.00    +0.418 C 
ATOM      2  F   LIG    1        2.987   1.674  -1.584  0.00  0.00    -0.168 F 
ATOM      3  F   LIG    1        3.910   1.677   0.390  0.00  0.00    -0.168 F 
ATOM      4  F   LIG    1        1.867   2.394   0.152  0.00  0.00    -0.168 F 
ENDROOT
BRANCH   1   6
ATOM      5  F   LIG    1        1.077  -0.175  -0.670  0.00  0.00    -0.240 F 
ATOM      6  C   LIG    1        2.247   0.057  -0.012  0.00  0.00    +0.326 C 
ENDBRANCH   1   6
TORSDOF 1
