REMARK  Name = *****
REMARK                            x       y       z     vdW  Elec       q    Type
REMARK                         _______ _______ _______ _____ _____    ______ ____
ROOT
ATOM      1  C   LIG    1        2.586   1.635   0.231  0.00  0.00    -0.002 C 
ATOM      2  C   LIG    1        3.237   2.126  -1.130  0.00  0.00    -0.026 C 
ATOM      3  C   LIG    1        4.725   2.525  -0.985  0.00  0.00    +0.012 C 
ATOM      4  C   LIG    1        2.441   3.451  -1.478  0.00  0.00    +0.001 C 
ATOM      5  C   LIG    1        2.035   3.786  -2.946  0.00  0.00    +0.025 C 
ATOM      6  C   LIG    1        1.874   2.224  -3.984  0.00  0.00    +0.001 C 
ATOM      7  C   LIG    1        1.928   1.001  -3.059  0.00  0.00    +0.005 C 
ATOM      8  C   LIG    1        3.003   2.204  -5.477  0.00  0.00    -0.026 C 
ATOM      9  C   LIG    1        3.943   1.009  -5.542  0.00  0.00    +0.012 C 
ATOM     10  C   LIG    1        3.810   3.644  -6.354  0.00  0.00    +0.000 C 
ATOM     11  C   LIG    1        2.997   4.008  -7.559  0.00  0.00    +0.035 C 
ATOM     12  C   LIG    1        1.846   4.668  -6.890  0.00  0.00    +0.115 C 
ATOM     13  C   LIG    1        1.805   4.109  -5.428  0.00  0.00    +0.032 C 
ATOM     14  C   LIG    1        3.952   5.205  -5.248  0.00  0.00    +0.035 C 
ATOM     15  C   LIG    1        3.378   3.232  -4.632  0.00  0.00    +0.009 C 
ATOM     16  C   LIG    1        3.078   5.205  -3.616  0.00  0.00    +0.118 C 
ATOM     17  C   LIG    1        1.250   3.466  -0.518  0.00  0.00    +0.005 C 
ATOM     18  C   LIG    1        3.148   0.968  -2.161  0.00  0.00    +0.007 C 
ATOM     19  C   LIG    1        1.840   2.873   0.750  0.00  0.00    +0.004 C 
ENDROOT
BRANCH   1  21
ATOM     20  C   LIG    1        4.231  -0.280   0.812  0.00  0.00    +0.008 C 
ATOM     21  C   LIG    1        3.491   0.970   1.311  0.00  0.00    -0.010 C 
BRANCH  21  22
ATOM     22  C   LIG    1        2.710   0.591   2.599  0.00  0.00    +0.012 C 
BRANCH  22  23
ATOM     23  C   LIG    1        1.659  -0.509   2.406  0.00  0.00    +0.096 C 
BRANCH  23  24
ATOM     24  C   LIG    1        0.946  -0.835   3.699  0.00  0.00    +0.213 C 
ATOM     25  N   LIG    1       -0.350  -1.268   3.518  0.00  0.00    -0.314 N 
ATOM     26  H   LIG    1       -0.707  -1.395   2.578  0.00  0.00    +0.149 HD
ATOM     27  O   LIG    1        1.476  -0.747   4.801  0.00  0.00    -0.276 OA
BRANCH  25  28
ATOM     28  C   LIG    1       -1.190  -1.654   4.641  0.00  0.00    +0.129 C 
BRANCH  28  29
ATOM     29  C   LIG    1       -1.435  -0.502   5.600  0.00  0.00    +0.216 C 
BRANCH  29  30
ATOM     30  S   LIG    1       -2.477  -0.997   6.952  0.00  0.00    +0.081 S 
ATOM     31  O   LIG    1       -3.576  -1.777   6.463  0.00  0.00    -0.147 OA
ATOM     32  O   LIG    1       -2.663   0.126   7.848  0.00  0.00    -0.147 OA
BRANCH  30  33
ATOM     33  O   LIG    1       -1.453  -1.992   7.706  0.00  0.00    -0.254 OA
ATOM     34  H   LIG    1       -1.437  -1.751   8.657  0.00  0.00    +0.244 HD
ENDBRANCH  30  33
ENDBRANCH  29  30
ENDBRANCH  28  29
ENDBRANCH  25  28
ENDBRANCH  23  24
ENDBRANCH  22  23
ENDBRANCH  21  22
ENDBRANCH   1  21
BRANCH  12  35
ATOM     35  O   LIG    1        0.645   4.397  -7.599  0.00  0.00    -0.392 OA
ATOM     36  H   LIG    1       -0.072   4.874  -7.148  0.00  0.00    +0.210 HD
ENDBRANCH  12  35
BRANCH  16  37
ATOM     37  O   LIG    1        4.031   5.641  -2.648  0.00  0.00    -0.392 OA
ATOM     38  H   LIG    1        4.765   5.007  -2.655  0.00  0.00    +0.210 HD
ENDBRANCH  16  37
TORSDOF 10
