REMARK  Name = *****
REMARK                            x       y       z     vdW  Elec       q    Type
REMARK                         _______ _______ _______ _____ _____    ______ ____
ROOT
ATOM      1  C   LIG    1        3.182   1.255   0.002  0.00  0.00    +0.078 A 
ATOM      2  C   LIG    1        4.546   1.286  -0.329  0.00  0.00    +0.129 A 
ATOM      3  C   LIG    1        5.197   2.507  -0.544  0.00  0.00    +0.046 A 
ATOM      4  C   LIG    1        4.492   3.705  -0.429  0.00  0.00    +0.004 A 
ATOM      5  C   LIG    1        3.139   3.689  -0.101  0.00  0.00    +0.001 A 
ATOM      6  C   LIG    1        2.489   2.472   0.113  0.00  0.00    +0.017 A 
ENDROOT
BRANCH   1  10
ATOM      7  N   LIG    1        3.049  -1.185   0.160  0.00  0.00    -0.325 N 
ATOM      8  H   LIG    1        4.035  -1.221  -0.073  0.00  0.00    +0.145 HD
ATOM      9  H   LIG    1        2.534  -2.038   0.323  0.00  0.00    +0.145 HD
ATOM     10  C   LIG    1        2.396   0.008   0.251  0.00  0.00    +0.245 C 
ATOM     11  O   LIG    1        1.202   0.041   0.530  0.00  0.00    -0.270 OA
ENDBRANCH   1  10
BRANCH   2  12
ATOM     12  O   LIG    1        5.274   0.129  -0.452  0.00  0.00    -0.506 OA
ATOM     13  H   LIG    1        6.189   0.359  -0.689  0.00  0.00    +0.292 HD
ENDBRANCH   2  12
TORSDOF 2
