REMARK  Name = *****
REMARK                            x       y       z     vdW  Elec       q    Type
REMARK                         _______ _______ _______ _____ _____    ______ ____
ROOT
ATOM      1  C   LIG    1        6.365  -0.281  -0.479  0.00  0.00    +0.015 C 
ATOM      2  C   LIG    1        7.141  -1.348  -0.705  0.00  0.00    -0.000 C 
ATOM      3  C   LIG    1        8.565  -1.338  -1.247  0.00  0.00    +0.029 C 
ATOM      4  C   LIG    1        8.568  -2.553  -2.216  0.00  0.00    -0.016 C 
ATOM      5  C   LIG    1        8.115  -3.544  -1.105  0.00  0.00    +0.036 C 
ATOM      6  C   LIG    1        9.155  -3.324   0.024  0.00  0.00    +0.015 C 
ATOM      7  C   LIG    1        7.894  -4.986  -1.496  0.00  0.00    +0.020 C 
ATOM      8  C   LIG    1        7.588  -2.418  -3.402  0.00  0.00    +0.012 C 
ATOM      9  C   LIG    1        9.952  -2.852  -2.825  0.00  0.00    +0.012 C 
ATOM     10  C   LIG    1        9.471  -1.811  -0.085  0.00  0.00    +0.010 C 
ATOM     11  C   LIG    1        6.865  -2.828  -0.591  0.00  0.00    +0.166 C 
ATOM     12  O   LIG    1        5.870  -3.353  -0.129  0.00  0.00    -0.292 OA
ENDROOT
BRANCH   1  17
ATOM     13  C   LIG    1        0.892  -0.060   1.379  0.00  0.00    +0.044 C 
ATOM     14  C   LIG    1        2.319  -0.103   0.919  0.00  0.00    -0.050 A 
ATOM     15  C   LIG    1        3.269  -0.852   1.622  0.00  0.00    +0.004 A 
ATOM     16  C   LIG    1        4.591  -0.924   1.172  0.00  0.00    +0.008 A 
ATOM     17  C   LIG    1        4.979  -0.272  -0.002  0.00  0.00    -0.025 A 
ATOM     18  C   LIG    1        4.028   0.476  -0.705  0.00  0.00    +0.008 A 
ATOM     19  C   LIG    1        2.706   0.552  -0.255  0.00  0.00    +0.004 A 
ENDBRANCH   1  17
TORSDOF 1
