REMARK  Name = *****
REMARK                            x       y       z     vdW  Elec       q    Type
REMARK                         _______ _______ _______ _____ _____    ______ ____
ROOT
ATOM      1  S   LIG    1        0.849  -0.030  -0.064  0.00  0.00    -0.030 S 
ATOM      2  C   LIG    1        2.506  -0.062  -0.069  0.00  0.00    +0.113 C 
ATOM      3  C   LIG    1        3.256  -1.264  -0.072  0.00  0.00    +0.116 A 
ATOM      4  C   LIG    1        4.629  -1.272  -0.077  0.00  0.00    +0.182 A 
ATOM      5  N   LIG    1        5.116  -2.544  -0.078  0.00  0.00    -0.216 NA
ATOM      6  C   LIG    1        4.049  -3.315  -0.073  0.00  0.00    +0.199 A 
ATOM      7  N   LIG    1        5.384  -0.095  -0.081  0.00  0.00    -0.216 NA
ATOM      8  C   LIG    1        4.669   0.984  -0.077  0.00  0.00    +0.199 C 
ATOM      9  N   LIG    1        2.893  -2.582  -0.069  0.00  0.00    -0.341 N 
ATOM     10  H   LIG    1        1.949  -2.944  -0.065  0.00  0.00    +0.167 HD
ATOM     11  N   LIG    1        3.291   1.062  -0.070  0.00  0.00    -0.339 N 
ATOM     12  H   LIG    1        2.832   1.962  -0.067  0.00  0.00    +0.167 HD
ENDROOT
TORSDOF 0
