REMARK  Name = *****
REMARK                            x       y       z     vdW  Elec       q    Type
REMARK                         _______ _______ _______ _____ _____    ______ ____
ROOT
ATOM      1  N   LIG    1        1.456   0.595  -0.858  0.00  0.00    -0.313 N 
ATOM      2  H   LIG    1        1.060   0.075  -1.629  0.00  0.00    +0.146 HD
ATOM      3  H   LIG    1        0.833   1.250  -0.405  0.00  0.00    +0.146 HD
ATOM      4  C   LIG    1        2.288  -0.062   0.005  0.00  0.00    +0.308 C 
ATOM      5  N   LIG    1        3.021  -1.130  -0.534  0.00  0.00    -0.224 N 
ATOM      6  C   LIG    1        3.955  -1.883   0.275  0.00  0.00    +0.053 A 
ATOM      7  C   LIG    1        4.240  -3.260   0.116  0.00  0.00    +0.040 A 
ATOM      8  C   LIG    1        5.218  -3.875   0.931  0.00  0.00    +0.013 A 
ATOM      9  C   LIG    1        5.911  -3.159   1.903  0.00  0.00    +0.001 A 
ATOM     10  C   LIG    1        5.636  -1.814   2.076  0.00  0.00    +0.002 A 
ATOM     11  C   LIG    1        3.514  -4.194  -0.801  0.00  0.00    +0.169 C 
ATOM     12  O   LIG    1        3.808  -5.391  -0.823  0.00  0.00    -0.292 OA
ATOM     13  C   LIG    1        2.391  -3.679  -1.655  0.00  0.00    +0.116 C 
ATOM     14  C   LIG    1        2.850  -2.552  -2.526  0.00  0.00    -0.018 A 
ATOM     15  C   LIG    1        2.969  -2.718  -3.913  0.00  0.00    +0.006 A 
ATOM     16  C   LIG    1        3.375  -1.656  -4.719  0.00  0.00    +0.000 A 
ATOM     17  C   LIG    1        3.668  -0.422  -4.146  0.00  0.00    +0.002 A 
ATOM     18  C   LIG    1        3.557  -0.252  -2.766  0.00  0.00    +0.024 A 
ATOM     19  C   LIG    1        4.677  -1.190   1.274  0.00  0.00    +0.024 A 
ATOM     20  C   LIG    1        3.154  -1.317  -1.944  0.00  0.00    +0.046 A 
ATOM     21  O   LIG    1        2.261   0.292   1.182  0.00  0.00    -0.252 OA
ENDROOT
TORSDOF 0
