REMARK  Name = *****
REMARK                            x       y       z     vdW  Elec       q    Type
REMARK                         _______ _______ _______ _____ _____    ______ ____
ROOT
ATOM      1  N   LIG    1        8.374   1.161   3.243  0.00  0.00    -0.298 N 
ATOM      2  C   LIG    1        9.210   0.008   3.275  0.00  0.00    +0.048 A 
ATOM      3  C   LIG    1       10.528   0.032   2.771  0.00  0.00    +0.034 A 
ATOM      4  C   LIG    1       11.382  -1.079   2.909  0.00  0.00    +0.017 A 
ATOM      5  C   LIG    1       10.943  -2.247   3.523  0.00  0.00    +0.013 A 
ATOM      6  C   LIG    1        9.638  -2.321   4.006  0.00  0.00    +0.057 A 
ATOM      7  S   LIG    1       11.192   1.413   1.870  0.00  0.00    -0.086 S 
ATOM      8  C   LIG    1       10.094   2.719   2.369  0.00  0.00    +0.034 A 
ATOM      9  C   LIG    1       10.542   4.030   2.114  0.00  0.00    +0.017 A 
ATOM     10  C   LIG    1        9.783   5.127   2.494  0.00  0.00    +0.001 A 
ATOM     11  C   LIG    1        8.577   4.924   3.144  0.00  0.00    +0.002 A 
ATOM     12  C   LIG    1        8.121   3.623   3.385  0.00  0.00    +0.024 A 
ATOM     13  C   LIG    1        8.797  -1.196   3.883  0.00  0.00    +0.037 A 
ATOM     14  C   LIG    1        8.845   2.480   2.978  0.00  0.00    +0.048 A 
ENDROOT
BRANCH   6  15
ATOM     15  C   LIG    1        9.111  -3.574   4.661  0.00  0.00    +0.417 C 
ATOM     16  F   LIG    1        8.034  -4.085   4.002  0.00  0.00    -0.166 F 
ATOM     17  F   LIG    1        8.696  -3.360   5.940  0.00  0.00    -0.166 F 
ATOM     18  F   LIG    1       10.022  -4.583   4.727  0.00  0.00    -0.166 F 
ENDBRANCH   6  15
BRANCH   1  19
ATOM     19  C   LIG    1        6.896   0.953   3.196  0.00  0.00    +0.112 C 
BRANCH  19  20
ATOM     20  C   LIG    1        6.418   0.610   1.780  0.00  0.00    +0.035 C 
BRANCH  20  21
ATOM     21  C   LIG    1        4.900   0.363   1.698  0.00  0.00    +0.085 C 
BRANCH  21  23
ATOM     22  C   LIG    1        4.225   2.682   1.335  0.00  0.00    +0.104 C 
ATOM     23  N   LIG    1        4.043   1.476   2.147  0.00  0.00    -0.308 NA
ATOM     24  C   LIG    1        2.630   1.071   2.095  0.00  0.00    +0.104 C 
ENDBRANCH  21  23
ENDBRANCH  20  21
ENDBRANCH  19  20
ENDBRANCH   1  19
TORSDOF 5
