REMARK  Name = *****
REMARK                            x       y       z     vdW  Elec       q    Type
REMARK                         _______ _______ _______ _____ _____    ______ ____
ROOT
ATOM      1  C   LIG    1        8.631  -1.597  -0.282  0.00  0.00    +0.039 C 
ENDROOT
BRANCH   1   5
ATOM      2  C   LIG    1        4.851  -1.222   1.862  0.00  0.00    -0.042 A 
ATOM      3  C   LIG    1        5.011  -0.751   0.548  0.00  0.00    +0.004 A 
ATOM      4  C   LIG    1        6.230  -0.869  -0.126  0.00  0.00    +0.004 A 
ATOM      5  C   LIG    1        7.331  -1.485   0.476  0.00  0.00    -0.047 A 
ATOM      6  C   LIG    1        7.189  -1.960   1.781  0.00  0.00    +0.004 A 
ATOM      7  C   LIG    1        5.968  -1.833   2.455  0.00  0.00    +0.004 A 
BRANCH   2   8
ATOM      8  C   LIG    1        3.501  -1.107   2.601  0.00  0.00    -0.010 C 
ATOM      9  C   LIG    1        3.684  -0.932   4.130  0.00  0.00    +0.016 C 
ATOM     10  C   LIG    1        2.719   0.153   2.136  0.00  0.00    +0.016 C 
BRANCH   8  12
ATOM     11  C   LIG    1        3.192  -3.704   2.724  0.00  0.00    +0.004 C 
ATOM     12  C   LIG    1        2.613  -2.354   2.307  0.00  0.00    +0.007 C 
ENDBRANCH   8  12
ENDBRANCH   2   8
ENDBRANCH   1   5
BRANCH   1  13
ATOM     13  C   LIG    1        9.148  -3.039  -0.489  0.00  0.00    +0.004 C 
ATOM     14  C   LIG    1        8.199  -3.865  -1.363  0.00  0.00    +0.009 C 
BRANCH  13  15
ATOM     15  C   LIG    1       10.565  -2.971  -1.111  0.00  0.00    +0.088 C 
BRANCH  15  16
ATOM     16  N   LIG    1       11.215  -4.267  -1.379  0.00  0.00    -0.297 NA
ATOM     17  C   LIG    1       12.557  -4.072  -1.987  0.00  0.00    +0.115 C 
ATOM     18  C   LIG    1       13.602  -3.510  -0.994  0.00  0.00    +0.130 C 
ATOM     19  C   LIG    1       14.974  -3.397  -1.643  0.00  0.00    +0.039 C 
ATOM     20  O   LIG    1       13.724  -4.364   0.156  0.00  0.00    -0.371 OA
ATOM     21  C   LIG    1       12.456  -4.546   0.809  0.00  0.00    +0.130 C 
ATOM     22  C   LIG    1       12.665  -5.508   1.971  0.00  0.00    +0.039 C 
ATOM     23  C   LIG    1       11.404  -5.105  -0.175  0.00  0.00    +0.115 C 
ENDBRANCH  15  16
ENDBRANCH  13  15
ENDBRANCH   1  13
TORSDOF 6
