REMARK  Name = *****
REMARK                            x       y       z     vdW  Elec       q    Type
REMARK                         _______ _______ _______ _____ _____    ______ ____
ROOT
ATOM      1  C   LIG    1        2.962  -0.643   1.194  0.00  0.00    +0.077 A 
ATOM      2  C   LIG    1        2.809  -2.001   1.433  0.00  0.00    +0.125 A 
ATOM      3  N   LIG    1        3.496  -2.674   2.388  0.00  0.00    -0.262 NA
ATOM      4  C   LIG    1        4.347  -1.952   3.151  0.00  0.00    +0.111 A 
ATOM      5  C   LIG    1        4.545  -0.588   3.003  0.00  0.00    +0.020 A 
ATOM      6  C   LIG    1        3.837   0.082   2.007  0.00  0.00    +0.018 A 
ENDROOT
BRANCH   1   8
ATOM      7  O   LIG    1        1.032  -0.375  -0.151  0.00  0.00    -0.245 OA
ATOM      8  C   LIG    1        2.166  -0.023   0.120  0.00  0.00    +0.338 C 
BRANCH   8   9
ATOM      9  O   LIG    1        2.832   0.938  -0.555  0.00  0.00    -0.477 OA
ATOM     10  H   LIG    1        3.786   0.997  -0.364  0.00  0.00    +0.295 HD
ENDBRANCH   8   9
ENDBRANCH   1   8
TORSDOF 2
