REMARK  Name = *****
REMARK                            x       y       z     vdW  Elec       q    Type
REMARK                         _______ _______ _______ _____ _____    ______ ____
ROOT
ATOM      1  C   LIG    1        0.730  -0.974  -1.154  0.00  0.00    +0.176 C 
ATOM      2  N   LIG    1       -0.700  -0.717  -1.066  0.00  0.00    -0.264 NA
ATOM      3  C   LIG    1       -0.935   0.715  -1.195  0.00  0.00    +0.176 C 
ATOM      4  N   LIG    1       -0.241   1.436  -0.138  0.00  0.00    -0.264 NA
ATOM      5  C   LIG    1       -0.730   0.974   1.154  0.00  0.00    +0.176 C 
ATOM      6  N   LIG    1       -0.494  -0.455   1.300  0.00  0.00    -0.264 NA
ATOM      7  C   LIG    1        0.935  -0.715   1.195  0.00  0.00    +0.176 C 
ATOM      8  C   LIG    1        1.186   1.164  -0.232  0.00  0.00    +0.176 C 
ATOM      9  C   LIG    1       -1.186  -1.163   0.232  0.00  0.00    +0.176 C 
ATOM     10  N   LIG    1        1.436  -0.265  -0.096  0.00  0.00    -0.264 NA
ENDROOT
TORSDOF 0
