REMARK  Name = *****
REMARK                            x       y       z     vdW  Elec       q    Type
REMARK                         _______ _______ _______ _____ _____    ______ ____
ROOT
ATOM      1  C   LIG    1        3.342   0.712   0.185  0.00  0.00    +0.168 C 
ATOM      2  C   LIG    1        2.915   2.056  -0.135  0.00  0.00    +0.097 C 
ATOM      3  C   LIG    1        3.257   3.105   0.737  0.00  0.00    +0.052 C 
ATOM      4  C   LIG    1        2.747   4.481   0.512  0.00  0.00    +0.204 C 
ATOM      5  C   LIG    1        1.744   4.690  -0.548  0.00  0.00    +0.122 C 
ATOM      6  C   LIG    1        1.559   3.659  -1.387  0.00  0.00    +0.105 C 
ATOM      7  O   LIG    1        3.129   5.431   1.189  0.00  0.00    -0.286 OA
ATOM      8  C   LIG    1        4.108   2.882   1.803  0.00  0.00    +0.054 C 
ATOM      9  C   LIG    1        4.527   1.588   2.093  0.00  0.00    +0.149 C 
ATOM     10  F   LIG    1        5.343   1.498   3.155  0.00  0.00    -0.203 F 
ATOM     11  N   LIG    1        2.188   2.419  -1.327  0.00  0.00    -0.340 NA
ATOM     12  C   LIG    1        4.109   0.435   1.370  0.00  0.00    +0.110 C 
ENDROOT
BRANCH  12  13
ATOM     13  N   LIG    1        4.473  -0.883   1.794  0.00  0.00    -0.322 NA
ATOM     14  C   LIG    1        3.360  -1.863   1.906  0.00  0.00    +0.123 C 
ATOM     15  C   LIG    1        3.929  -3.299   2.117  0.00  0.00    +0.068 C 
ATOM     16  C   LIG    1        2.804  -4.327   2.080  0.00  0.00    +0.025 C 
ATOM     17  N   LIG    1        4.668  -3.387   3.394  0.00  0.00    -0.310 NA
ATOM     18  H   LIG    1        4.051  -3.073   4.144  0.00  0.00    +0.122 HD
ATOM     19  C   LIG    1        5.803  -2.446   3.306  0.00  0.00    +0.100 C 
ATOM     20  C   LIG    1        5.406  -0.990   2.960  0.00  0.00    +0.120 C 
ENDBRANCH  12  13
BRANCH  11  21
ATOM     21  C   LIG    1        2.692   1.929  -2.643  0.00  0.00    +0.088 C 
ATOM     22  C   LIG    1        3.518   2.806  -3.572  0.00  0.00    +0.027 C 
ATOM     23  C   LIG    1        4.160   1.652  -2.879  0.00  0.00    +0.027 C 
ENDBRANCH  11  21
BRANCH   1  25
ATOM     24  C   LIG    1        3.842  -1.278  -1.067  0.00  0.00    +0.277 C 
ATOM     25  O   LIG    1        2.900  -0.267  -0.690  0.00  0.00    -0.491 OA
ENDBRANCH   1  25
BRANCH   5  26
ATOM     26  C   LIG    1        1.055   5.972  -0.771  0.00  0.00    +0.342 C 
ATOM     27  O   LIG    1        0.037   6.079  -1.462  0.00  0.00    -0.245 OA
BRANCH  26  28
ATOM     28  O   LIG    1        1.641   7.040  -0.195  0.00  0.00    -0.477 OA
ATOM     29  H   LIG    1        2.413   6.815   0.377  0.00  0.00    +0.295 HD
ENDBRANCH  26  28
ENDBRANCH   5  26
TORSDOF 5
