REMARK  Name = *****
REMARK                            x       y       z     vdW  Elec       q    Type
REMARK                         _______ _______ _______ _____ _____    ______ ____
ROOT
ATOM      1  C   LIG    1        4.814  -0.593   0.146  0.00  0.00    +0.029 C 
ATOM      2  C   LIG    1        3.458   0.023  -0.182  0.00  0.00    +0.137 C 
ENDROOT
BRANCH   2   3
ATOM      3  C   LIG    1        3.596   1.435  -0.770  0.00  0.00    +0.227 C 
ATOM      4  N   LIG    1        3.008   2.422   0.001  0.00  0.00    -0.304 N 
ATOM      5  H   LIG    1        2.673   2.196   0.931  0.00  0.00    +0.149 HD
ATOM      6  O   LIG    1        4.144   1.671  -1.841  0.00  0.00    -0.275 OA
BRANCH   4   7
ATOM      7  C   LIG    1        2.990   3.826  -0.399  0.00  0.00    +0.224 C 
BRANCH   7   8
ATOM      8  C   LIG    1        1.587   4.405  -0.597  0.00  0.00    +0.322 C 
ATOM      9  O   LIG    1        1.375   5.579  -0.823  0.00  0.00    -0.249 OA
BRANCH   8  10
ATOM     10  O   LIG    1        0.589   3.498  -0.470  0.00  0.00    -0.479 OA
ATOM     11  H   LIG    1        0.909   2.568  -0.432  0.00  0.00    +0.295 HD
ENDBRANCH   8  10
ENDBRANCH   7   8
ENDBRANCH   4   7
ENDBRANCH   2   3
BRANCH   2  12
ATOM     12  S   LIG    1        2.567  -1.062  -1.344  0.00  0.00    -0.070 S 
BRANCH  12  13
ATOM     13  C   LIG    1        1.010  -0.230  -1.429  0.00  0.00    +0.227 C 
ATOM     14  O   LIG    1        0.811   0.811  -0.803  0.00  0.00    -0.279 OA
BRANCH  13  15
ATOM     15  C   LIG    1        0.057  -0.904  -2.289  0.00  0.00    +0.066 A 
ATOM     16  S   LIG    1       -1.045   0.034  -3.213  0.00  0.00    -0.093 S 
ATOM     17  C   LIG    1       -1.716  -1.353  -3.956  0.00  0.00    +0.046 A 
ATOM     18  C   LIG    1       -1.159  -2.516  -3.475  0.00  0.00    +0.008 A 
ATOM     19  C   LIG    1       -0.142  -2.260  -2.511  0.00  0.00    +0.020 A 
ENDBRANCH  13  15
ENDBRANCH  12  13
ENDBRANCH   2  12
TORSDOF 7
