REMARK  Name = *****
REMARK                            x       y       z     vdW  Elec       q    Type
REMARK                         _______ _______ _______ _____ _____    ______ ____
ROOT
ATOM      1  C   LIG    1        8.640  -1.950   3.141  0.00  0.00    +0.080 A 
ATOM      2  C   LIG    1        9.560  -2.159   4.185  0.00  0.00    +0.132 A 
ATOM      3  C   LIG    1       10.795  -2.761   3.876  0.00  0.00    +0.048 A 
ATOM      4  C   LIG    1       11.111  -3.188   2.583  0.00  0.00    +0.030 A 
ATOM      5  C   LIG    1       10.171  -3.012   1.575  0.00  0.00    +0.089 A 
ATOM      6  C   LIG    1        8.964  -2.367   1.835  0.00  0.00    +0.043 A 
ENDROOT
BRANCH   1   9
ATOM      7  N   LIG    1        6.250  -2.046   2.786  0.00  0.00    -0.310 N 
ATOM      8  H   LIG    1        6.407  -2.963   2.391  0.00  0.00    +0.149 HD
ATOM      9  C   LIG    1        7.313  -1.298   3.259  0.00  0.00    +0.248 C 
ATOM     10  O   LIG    1        7.194  -0.164   3.700  0.00  0.00    -0.270 OA
BRANCH   7  11
ATOM     11  C   LIG    1        4.880  -1.569   2.889  0.00  0.00    +0.120 C 
BRANCH  11  12
ATOM     12  C   LIG    1        4.522  -0.505   1.825  0.00  0.00    +0.103 C 
BRANCH  12  13
ATOM     13  N   LIG    1        3.115  -0.022   1.859  0.00  0.00    -0.301 NA
BRANCH  13  15
ATOM     14  C   LIG    1        1.402   1.123   3.344  0.00  0.00    +0.020 C 
ATOM     15  C   LIG    1        2.852   0.682   3.139  0.00  0.00    +0.081 C 
ENDBRANCH  13  15
BRANCH  13  16
ATOM     16  C   LIG    1        2.844   0.890   0.723  0.00  0.00    +0.081 C 
ATOM     17  C   LIG    1        3.057   0.295  -0.667  0.00  0.00    +0.020 C 
ENDBRANCH  13  16
ENDBRANCH  12  13
ENDBRANCH  11  12
ENDBRANCH   7  11
ENDBRANCH   1   9
BRANCH   5  18
ATOM     18  S   LIG    1       10.482  -3.621  -0.061  0.00  0.00    -0.006 S 
ATOM     19  O   LIG    1       11.920  -3.691  -0.239  0.00  0.00    -0.170 OA
ATOM     20  O   LIG    1        9.646  -2.860  -0.972  0.00  0.00    -0.170 OA
ATOM     21  C   LIG    1        9.843  -5.277   0.016  0.00  0.00    +0.200 C 
ENDBRANCH   5  18
BRANCH   2  22
ATOM     22  O   LIG    1        9.466  -1.907   5.524  0.00  0.00    -0.494 OA
ATOM     23  C   LIG    1        8.274  -1.373   6.073  0.00  0.00    +0.277 C 
ENDBRANCH   2  22
TORSDOF 8
