REMARK  Name = *****
REMARK                            x       y       z     vdW  Elec       q    Type
REMARK                         _______ _______ _______ _____ _____    ______ ____
ROOT
ATOM      1  C   LIG    1        6.688  -1.275  -4.325  0.00  0.00    +0.010 C 
ATOM      2  C   LIG    1        6.828   0.175  -4.833  0.00  0.00    +0.021 C 
ATOM      3  C   LIG    1        6.564   0.332  -6.369  0.00  0.00    +0.097 C 
ATOM      4  C   LIG    1        5.045   0.177  -6.591  0.00  0.00    +0.038 C 
ATOM      5  C   LIG    1        4.203   1.123  -5.747  0.00  0.00    +0.086 C 
ATOM      6  N   LIG    1        4.470   1.069  -4.304  0.00  0.00    -0.299 NA
ATOM      7  C   LIG    1        5.911   1.094  -3.985  0.00  0.00    +0.089 C 
ENDROOT
BRANCH   3   8
ATOM      8  C   LIG    1        7.383  -0.708  -7.184  0.00  0.00    -0.030 A 
ATOM      9  C   LIG    1        6.770  -1.655  -8.025  0.00  0.00    +0.005 A 
ATOM     10  C   LIG    1        7.524  -2.552  -8.785  0.00  0.00    +0.000 A 
ATOM     11  C   LIG    1        8.910  -2.525  -8.719  0.00  0.00    +0.000 A 
ATOM     12  C   LIG    1        9.544  -1.603  -7.891  0.00  0.00    +0.000 A 
ATOM     13  C   LIG    1        8.791  -0.701  -7.131  0.00  0.00    +0.005 A 
ENDBRANCH   3   8
BRANCH   6  14
ATOM     14  C   LIG    1        3.746   2.175  -3.594  0.00  0.00    +0.057 C 
ATOM     15  C   LIG    1        3.956   2.114  -2.066  0.00  0.00    +0.021 C 
ATOM     16  C   LIG    1        3.107   3.115  -1.274  0.00  0.00    +0.028 C 
ATOM     17  C   LIG    1        1.589   3.025  -1.567  0.00  0.00    +0.082 C 
ATOM     18  C   LIG    1        1.425   3.167  -3.104  0.00  0.00    +0.028 C 
ATOM     19  C   LIG    1        2.239   2.170  -3.925  0.00  0.00    +0.021 C 
BRANCH  17  20
ATOM     20  C   LIG    1        0.830   4.132  -0.796  0.00  0.00    -0.027 A 
ATOM     21  C   LIG    1        0.884   4.190   0.614  0.00  0.00    +0.008 A 
ATOM     22  C   LIG    1        0.187   5.173   1.326  0.00  0.00    +0.039 A 
ATOM     23  C   LIG    1       -0.573   6.111   0.642  0.00  0.00    +0.123 A 
ATOM     24  F   LIG    1       -1.239   7.054   1.321  0.00  0.00    -0.205 F 
ATOM     25  C   LIG    1       -0.649   6.085  -0.740  0.00  0.00    +0.039 A 
ATOM     26  C   LIG    1        0.044   5.103  -1.452  0.00  0.00    +0.008 A 
ENDBRANCH  17  20
BRANCH  17  27
ATOM     27  C   LIG    1        1.067   1.691  -1.151  0.00  0.00    +0.074 C 
ATOM     28  N   LIG    1        0.692   0.632  -0.834  0.00  0.00    -0.196 NA
ENDBRANCH  17  27
ENDBRANCH   6  14
BRANCH   3  29
ATOM     29  C   LIG    1        6.941   1.773  -6.839  0.00  0.00    +0.316 C 
ATOM     30  O   LIG    1        6.953   2.765  -6.123  0.00  0.00    -0.250 OA
BRANCH  29  31
ATOM     31  O   LIG    1        7.201   1.905  -8.163  0.00  0.00    -0.480 OA
ATOM     32  H   LIG    1        7.228   1.066  -8.662  0.00  0.00    +0.295 HD
ENDBRANCH  29  31
ENDBRANCH   3  29
TORSDOF 6
