REMARK  Name = *****
REMARK                            x       y       z     vdW  Elec       q    Type
REMARK                         _______ _______ _______ _____ _____    ______ ____
ROOT
ATOM      1  C   LIG    1       -0.986  -0.862  -0.809  0.00  0.00    +0.019 C 
ATOM      2  C   LIG    1       -2.503  -0.539  -0.700  0.00  0.00    +0.029 C 
ATOM      3  C   LIG    1       -3.068  -0.430  -2.115  0.00  0.00    +0.140 C 
ATOM      4  O   LIG    1       -3.634  -1.302  -2.716  0.00  0.00    -0.297 OA
ATOM      5  C   LIG    1       -2.799   0.923  -2.704  0.00  0.00    +0.075 C 
ATOM      6  C   LIG    1       -2.425   1.756  -1.481  0.00  0.00    +0.012 C 
ATOM      7  C   LIG    1       -2.739   0.934  -0.191  0.00  0.00    +0.006 C 
ATOM      8  C   LIG    1       -4.118   1.158   0.559  0.00  0.00    +0.001 C 
ATOM      9  C   LIG    1       -4.262   2.411   1.485  0.00  0.00    +0.031 C 
ATOM     10  C   LIG    1       -3.668   2.272   2.864  0.00  0.00    -0.027 C 
ATOM     11  C   LIG    1       -3.454   1.085   3.459  0.00  0.00    -0.065 C 
ATOM     12  C   LIG    1       -4.056  -0.227   2.900  0.00  0.00    -0.008 C 
ATOM     13  C   LIG    1       -5.223  -0.749   3.786  0.00  0.00    +0.016 C 
ATOM     14  C   LIG    1       -2.930  -1.276   3.037  0.00  0.00    +0.013 C 
ATOM     15  C   LIG    1       -1.643  -0.629   2.550  0.00  0.00    +0.032 C 
ATOM     16  C   LIG    1       -1.073   0.216   3.670  0.00  0.00    +0.119 C 
ATOM     17  C   LIG    1       -2.241   0.942   4.420  0.00  0.00    +0.062 C 
ATOM     18  C   LIG    1       -4.619  -0.062   1.403  0.00  0.00    +0.003 C 
ATOM     19  C   LIG    1       -4.598  -1.338   0.555  0.00  0.00    +0.005 C 
ATOM     20  C   LIG    1       -3.234  -1.698  -0.019  0.00  0.00    +0.015 C 
ENDROOT
BRANCH  16  21
ATOM     21  O   LIG    1       -0.344  -0.685   4.499  0.00  0.00    -0.392 OA
ATOM     22  H   LIG    1        0.020  -1.378   3.912  0.00  0.00    +0.210 HD
ENDBRANCH  16  21
TORSDOF 1
