REMARK  Name = *****
REMARK                            x       y       z     vdW  Elec       q    Type
REMARK                         _______ _______ _______ _____ _____    ______ ____
ROOT
ATOM      1  O   LIG    1        2.771  -2.450  -0.716  0.00  0.00    -0.459 OA
ENDROOT
BRANCH   1   2
ATOM      2  C   LIG    1        1.655  -3.151  -0.374  0.00  0.00    +0.340 C 
ATOM      3  O   LIG    1        0.534  -2.966  -0.765  0.00  0.00    -0.245 OA
BRANCH   2   4
ATOM      4  C   LIG    1        1.995  -4.169   0.649  0.00  0.00    +0.066 A 
ATOM      5  C   LIG    1        1.055  -4.517   1.620  0.00  0.00    +0.064 A 
ATOM      6  C   LIG    1        1.356  -5.498   2.581  0.00  0.00    +0.166 A 
ATOM      7  C   LIG    1        2.613  -6.139   2.549  0.00  0.00    +0.203 A 
ATOM      8  C   LIG    1        3.542  -5.794   1.539  0.00  0.00    +0.166 A 
ATOM      9  C   LIG    1        3.230  -4.801   0.609  0.00  0.00    +0.064 A 
BRANCH   6  10
ATOM     10  O   LIG    1        0.499  -5.773   3.614  0.00  0.00    -0.491 OA
ATOM     11  C   LIG    1       -0.895  -5.700   3.333  0.00  0.00    +0.277 C 
ENDBRANCH   6  10
BRANCH   7  12
ATOM     12  O   LIG    1        3.063  -7.063   3.466  0.00  0.00    -0.488 OA
ATOM     13  C   LIG    1        2.111  -7.940   4.056  0.00  0.00    +0.277 C 
ENDBRANCH   7  12
BRANCH   8  14
ATOM     14  O   LIG    1        4.750  -6.454   1.515  0.00  0.00    -0.491 OA
ATOM     15  C   LIG    1        5.384  -6.537   0.238  0.00  0.00    +0.277 C 
ENDBRANCH   8  14
ENDBRANCH   2   4
ENDBRANCH   1   2
BRANCH   1  16
ATOM     16  C   LIG    1        2.682  -1.413  -1.722  0.00  0.00    +0.259 C 
BRANCH  16  17
ATOM     17  C   LIG    1        3.275   0.003  -1.278  0.00  0.00    +0.081 C 
BRANCH  17  18
ATOM     18  C   LIG    1        2.465   0.662  -0.113  0.00  0.00    -0.024 A 
ATOM     19  C   LIG    1        2.842   1.893   0.460  0.00  0.00    +0.005 A 
ATOM     20  C   LIG    1        2.142   2.430   1.554  0.00  0.00    +0.000 A 
ATOM     21  C   LIG    1        1.050   1.758   2.097  0.00  0.00    +0.000 A 
ATOM     22  C   LIG    1        0.632   0.571   1.522  0.00  0.00    +0.000 A 
ATOM     23  C   LIG    1        1.317   0.059   0.421  0.00  0.00    +0.005 A 
ENDBRANCH  17  18
BRANCH  17  24
ATOM     24  N   LIG    1        3.313   0.967  -2.463  0.00  0.00    -0.296 NA
ATOM     25  C   LIG    1        1.984   1.378  -2.940  0.00  0.00    +0.105 C 
ATOM     26  C   LIG    1        4.104   0.526  -3.619  0.00  0.00    +0.105 C 
ENDBRANCH  17  24
BRANCH  17  28
ATOM     27  C   LIG    1        4.963  -1.072   0.485  0.00  0.00    +0.006 C 
ATOM     28  C   LIG    1        4.759  -0.203  -0.761  0.00  0.00    +0.027 C 
ENDBRANCH  17  28
ENDBRANCH  16  17
ENDBRANCH   1  16
TORSDOF 10
