REMARK  Name = *****
REMARK                            x       y       z     vdW  Elec       q    Type
REMARK                         _______ _______ _______ _____ _____    ______ ____
ROOT
ATOM      1  C   LIG    1        4.406  -1.426   1.046  0.00  0.00    +0.144 A 
ATOM      2  C   LIG    1        5.193  -2.584   1.151  0.00  0.00    +0.077 A 
ATOM      3  C   LIG    1        6.516  -2.448   1.602  0.00  0.00    +0.038 A 
ATOM      4  C   LIG    1        7.103  -1.158   1.868  0.00  0.00    +0.025 A 
ATOM      5  C   LIG    1        6.267  -0.032   1.746  0.00  0.00    +0.076 A 
ATOM      6  N   LIG    1        6.634   1.231   1.993  0.00  0.00    -0.254 NA
ATOM      7  C   LIG    1        7.891   1.460   2.393  0.00  0.00    +0.132 A 
ATOM      8  C   LIG    1        8.825   0.454   2.531  0.00  0.00    +0.091 A 
ATOM      9  C   LIG    1        8.459  -0.873   2.242  0.00  0.00    +0.060 A 
ATOM     10  C   LIG    1        4.969  -0.181   1.328  0.00  0.00    +0.075 A 
ENDROOT
BRANCH   2  11
ATOM     11  N   LIG    1        4.585  -3.816   0.787  0.00  0.00    -0.279 N 
ATOM     12  H   LIG    1        3.590  -3.741   0.608  0.00  0.00    +0.155 HD
ATOM     13  C   LIG    1        5.208  -4.984   0.391  0.00  0.00    +0.241 C 
ATOM     14  O   LIG    1        6.412  -5.185   0.330  0.00  0.00    -0.271 OA
BRANCH  13  15
ATOM     15  C   LIG    1        4.217  -6.017  -0.060  0.00  0.00    +0.064 C 
ATOM     16  C   LIG    1        4.568  -6.950  -0.961  0.00  0.00    -0.007 C 
BRANCH  16  17
ATOM     17  C   LIG    1        3.654  -7.986  -1.568  0.00  0.00    +0.111 C 
BRANCH  17  18
ATOM     18  N   LIG    1        3.557  -7.848  -3.034  0.00  0.00    -0.305 NA
ATOM     19  C   LIG    1        2.603  -8.810  -3.594  0.00  0.00    +0.105 C 
ATOM     20  C   LIG    1        4.860  -8.028  -3.682  0.00  0.00    +0.105 C 
ENDBRANCH  17  18
ENDBRANCH  16  17
ENDBRANCH  13  15
ENDBRANCH   2  11
BRANCH   8  21
ATOM     21  C   LIG    1       10.145   0.820   2.957  0.00  0.00    +0.103 C 
ATOM     22  N   LIG    1       11.202   1.082   3.322  0.00  0.00    -0.191 NA
ENDBRANCH   8  21
BRANCH   9  23
ATOM     23  N   LIG    1        9.489  -1.851   2.211  0.00  0.00    -0.313 N 
ATOM     24  H   LIG    1       10.250  -1.673   2.863  0.00  0.00    +0.152 HD
BRANCH  23  25
ATOM     25  C   LIG    1        9.896  -2.709   1.163  0.00  0.00    +0.033 A 
ATOM     26  C   LIG    1        9.186  -2.863  -0.033  0.00  0.00    +0.047 A 
ATOM     27  C   LIG    1        9.398  -3.980  -0.846  0.00  0.00    +0.084 A 
ATOM     28 CL   LIG    1        8.367  -4.218  -2.211  0.00  0.00    -0.080 Cl
ATOM     29  C   LIG    1       10.385  -4.906  -0.508  0.00  0.00    +0.139 A 
ATOM     30  C   LIG    1       11.232  -4.656   0.569  0.00  0.00    +0.049 A 
ATOM     31  C   LIG    1       10.980  -3.567   1.404  0.00  0.00    +0.027 A 
BRANCH  29  32
ATOM     32  O   LIG    1       10.371  -6.174  -1.024  0.00  0.00    -0.484 OA
BRANCH  32  33
ATOM     33  C   LIG    1       11.244  -6.348  -2.136  0.00  0.00    +0.284 C 
BRANCH  33  34
ATOM     34  C   LIG    1       11.695  -7.795  -2.143  0.00  0.00    +0.078 A 
ATOM     35  N   LIG    1       12.794  -8.116  -1.410  0.00  0.00    -0.257 NA
ATOM     36  C   LIG    1       13.173  -9.414  -1.391  0.00  0.00    +0.111 A 
ATOM     37  C   LIG    1       12.519 -10.421  -2.081  0.00  0.00    +0.020 A 
ATOM     38  C   LIG    1       11.396 -10.081  -2.824  0.00  0.00    +0.003 A 
ATOM     39  C   LIG    1       10.969  -8.755  -2.849  0.00  0.00    +0.027 A 
ENDBRANCH  33  34
ENDBRANCH  32  33
ENDBRANCH  29  32
ENDBRANCH  23  25
ENDBRANCH   9  23
BRANCH   1  40
ATOM     40  O   LIG    1        3.109  -1.555   0.592  0.00  0.00    -0.490 OA
BRANCH  40  42
ATOM     41  C   LIG    1        0.832  -0.773   0.495  0.00  0.00    +0.048 C 
ATOM     42  C   LIG    1        2.214  -0.541   1.071  0.00  0.00    +0.226 C 
ENDBRANCH  40  42
ENDBRANCH   1  40
TORSDOF 12
