REMARK  Name = *****
REMARK                            x       y       z     vdW  Elec       q    Type
REMARK                         _______ _______ _______ _____ _____    ______ ____
ROOT
ATOM      1  C   LIG    1        5.168  -1.280  -1.640  0.00  0.00    +0.107 A 
ATOM      2  C   LIG    1        5.847  -1.746  -0.502  0.00  0.00    +0.053 A 
ATOM      3  C   LIG    1        7.259  -1.751  -0.419  0.00  0.00    +0.050 A 
ATOM      4  N   LIG    1        7.960  -2.215   0.738  0.00  0.00    -0.298 N 
ATOM      5  C   LIG    1        9.379  -2.178   0.918  0.00  0.00    +0.048 A 
ATOM      6  C   LIG    1       10.249  -1.756  -0.108  0.00  0.00    +0.034 A 
ATOM      7  S   LIG    1        9.709  -1.210  -1.706  0.00  0.00    -0.086 S 
ATOM      8  C   LIG    1       11.648  -1.740   0.077  0.00  0.00    +0.017 A 
ATOM      9  C   LIG    1       12.220  -2.136   1.278  0.00  0.00    +0.001 A 
ATOM     10  C   LIG    1       11.394  -2.547   2.307  0.00  0.00    +0.002 A 
ATOM     11  C   LIG    1       10.004  -2.562   2.129  0.00  0.00    +0.024 A 
ATOM     12  C   LIG    1        7.942  -1.261  -1.555  0.00  0.00    +0.034 A 
ATOM     13  C   LIG    1        7.247  -0.776  -2.685  0.00  0.00    +0.019 A 
ATOM     14  C   LIG    1        5.861  -0.782  -2.732  0.00  0.00    +0.030 A 
ENDROOT
BRANCH   1  15
ATOM     15  S   LIG    1        3.393  -1.284  -1.686  0.00  0.00    +0.060 S 
ATOM     16  O   LIG    1        2.904  -1.979  -0.516  0.00  0.00    -0.153 OA
ATOM     17  O   LIG    1        2.981   0.073  -1.984  0.00  0.00    -0.153 OA
BRANCH  15  19
ATOM     18  C   LIG    1        3.353  -3.700  -2.882  0.00  0.00    +0.131 C 
ATOM     19  N   LIG    1        3.053  -2.262  -3.049  0.00  0.00    -0.183 NA
ATOM     20  C   LIG    1        1.706  -2.029  -3.615  0.00  0.00    +0.131 C 
ENDBRANCH  15  19
ENDBRANCH   1  15
BRANCH   4  21
ATOM     21  C   LIG    1        7.152  -2.689   1.888  0.00  0.00    +0.112 C 
BRANCH  21  22
ATOM     22  C   LIG    1        6.791  -1.533   2.837  0.00  0.00    +0.035 C 
BRANCH  22  23
ATOM     23  C   LIG    1        5.924  -2.043   3.997  0.00  0.00    +0.086 C 
BRANCH  23  24
ATOM     24  N   LIG    1        5.521  -1.015   4.978  0.00  0.00    -0.300 NA
ATOM     25  C   LIG    1        4.722   0.084   4.391  0.00  0.00    +0.100 C 
ATOM     26  C   LIG    1        3.322  -0.344   3.891  0.00  0.00    +0.099 C 
ATOM     27  N   LIG    1        2.489  -1.044   4.892  0.00  0.00    -0.303 NA
ATOM     28  C   LIG    1        1.868  -0.103   5.820  0.00  0.00    +0.105 C 
ATOM     29  C   LIG    1        3.278  -2.066   5.609  0.00  0.00    +0.099 C 
ATOM     30  C   LIG    1        4.698  -1.625   6.053  0.00  0.00    +0.100 C 
ENDBRANCH  23  24
ENDBRANCH  22  23
ENDBRANCH  21  22
ENDBRANCH   4  21
TORSDOF 6
