REMARK  Name = *****
REMARK                            x       y       z     vdW  Elec       q    Type
REMARK                         _______ _______ _______ _____ _____    ______ ____
ROOT
ATOM      1  C   LIG    1       -5.161  -0.194  -0.052  0.00  0.00    +0.132 C 
ATOM      2  C   LIG    1       -5.948  -1.069  -1.090  0.00  0.00    +0.012 C 
ATOM      3  C   LIG    1       -6.021  -0.385  -2.467  0.00  0.00    +0.015 C 
ATOM      4  C   LIG    1       -7.340  -1.149  -0.426  0.00  0.00    +0.006 C 
ATOM      5  C   LIG    1       -8.281  -2.219  -1.032  0.00  0.00    +0.020 C 
ATOM      6  C   LIG    1       -7.628  -3.599  -1.185  0.00  0.00    -0.055 C 
ATOM      7  C   LIG    1       -6.241  -3.583  -1.844  0.00  0.00    +0.046 C 
ATOM      8  C   LIG    1       -8.240  -4.744  -0.782  0.00  0.00    -0.044 C 
ATOM      9  C   LIG    1       -9.628  -4.729  -0.315  0.00  0.00    -0.041 C 
ATOM     10  C   LIG    1      -10.210  -5.772   0.296  0.00  0.00    +0.050 C 
ATOM     11  C   LIG    1       -9.512  -7.068   0.396  0.00  0.00    +0.157 C 
ATOM     12  O   LIG    1       -9.932  -7.932   1.161  0.00  0.00    -0.293 OA
ATOM     13  C   LIG    1       -8.403  -7.317  -0.585  0.00  0.00    +0.083 C 
ATOM     14  C   LIG    1      -10.422  -3.477  -0.590  0.00  0.00    +0.036 C 
ATOM     15  C   LIG    1       -7.527  -6.086  -0.761  0.00  0.00    +0.043 C 
ATOM     16  C   LIG    1       -9.603  -2.251  -0.240  0.00  0.00    +0.013 C 
ATOM     17  C   LIG    1       -7.021  -1.327   1.072  0.00  0.00    +0.008 C 
ATOM     18  C   LIG    1       -5.341  -2.497  -1.215  0.00  0.00    +0.023 C 
ATOM     19  C   LIG    1       -5.643  -0.699   1.314  0.00  0.00    +0.049 C 
ENDROOT
BRANCH   7  20
ATOM     20  C   LIG    1       -6.252  -3.597  -3.378  0.00  0.00    -0.040 A 
ATOM     21  C   LIG    1       -7.429  -3.618  -4.139  0.00  0.00    +0.006 A 
ATOM     22  C   LIG    1       -7.395  -3.634  -5.542  0.00  0.00    +0.023 A 
ATOM     23  C   LIG    1       -6.186  -3.661  -6.244  0.00  0.00    +0.029 A 
ATOM     24  C   LIG    1       -5.010  -3.678  -5.484  0.00  0.00    +0.023 A 
ATOM     25  C   LIG    1       -5.039  -3.652  -4.083  0.00  0.00    +0.006 A 
BRANCH  23  26
ATOM     26  N   LIG    1       -6.098  -3.672  -7.646  0.00  0.00    -0.336 N 
ATOM     27  C   LIG    1       -5.609  -4.952  -8.167  0.00  0.00    +0.129 C 
ATOM     28  C   LIG    1       -7.222  -3.107  -8.390  0.00  0.00    +0.129 C 
ENDBRANCH  23  26
ENDBRANCH   7  20
BRANCH   1  31
ATOM     29  C   LIG    1       -1.192  -0.895  -0.748  0.00  0.00    +0.106 C 
ATOM     30  C   LIG    1       -2.567  -0.571  -0.450  0.00  0.00    -0.103 C 
ATOM     31  C   LIG    1       -3.701  -0.303  -0.203  0.00  0.00    -0.067 C 
ENDBRANCH   1  31
BRANCH   1  32
ATOM     32  O   LIG    1       -5.541   1.178  -0.164  0.00  0.00    -0.376 OA
ATOM     33  H   LIG    1       -4.912   1.689   0.374  0.00  0.00    +0.211 HD
ENDBRANCH   1  32
TORSDOF 4
