REMARK  Name = *****
REMARK                            x       y       z     vdW  Elec       q    Type
REMARK                         _______ _______ _______ _____ _____    ______ ____
ROOT
ATOM      1  C   LIG    1        8.100  -1.041   3.700  0.00  0.00    +0.201 C 
ATOM      2  C   LIG    1        8.077  -2.348   4.535  0.00  0.00    +0.042 C 
ATOM      3  C   LIG    1        7.109  -2.249   5.731  0.00  0.00    +0.025 C 
ATOM      4  C   LIG    1        7.710  -3.621   3.763  0.00  0.00    +0.025 C 
ATOM      5  S   LIG    1        9.795  -2.525   5.207  0.00  0.00    -0.127 S 
ATOM      6  C   LIG    1       10.213  -0.743   5.008  0.00  0.00    +0.169 C 
ATOM      7  C   LIG    1       10.002   0.234   6.199  0.00  0.00    +0.223 C 
ATOM      8  C   LIG    1        8.673   0.575   5.473  0.00  0.00    +0.244 C 
ATOM      9  O   LIG    1        7.627   1.155   5.707  0.00  0.00    -0.273 OA
ATOM     10  N   LIG    1        9.037  -0.135   4.365  0.00  0.00    -0.270 N 
ENDROOT
BRANCH   1  11
ATOM     11  C   LIG    1        8.482  -1.230   2.217  0.00  0.00    +0.332 C 
ATOM     12  O   LIG    1        7.800  -1.866   1.421  0.00  0.00    -0.249 OA
BRANCH  11  13
ATOM     13  O   LIG    1        9.640  -0.595   1.889  0.00  0.00    -0.426 OA
BRANCH  13  14
ATOM     14  C   LIG    1       10.013  -0.678   0.511  0.00  0.00    +0.472 C 
BRANCH  14  15
ATOM     15  O   LIG    1       10.659  -1.913   0.196  0.00  0.00    -0.427 OA
BRANCH  15  16
ATOM     16  C   LIG    1       11.986  -1.967   0.489  0.00  0.00    +0.315 C 
ATOM     17  O   LIG    1       12.626  -1.047   0.980  0.00  0.00    -0.250 OA
BRANCH  16  19
ATOM     18  C   LIG    1       12.417  -3.564  -1.396  0.00  0.00    +0.022 C 
ATOM     19  C   LIG    1       12.569  -3.335   0.114  0.00  0.00    +0.059 C 
ATOM     20  C   LIG    1       14.062  -3.376   0.478  0.00  0.00    +0.022 C 
ATOM     21  C   LIG    1       11.835  -4.437   0.889  0.00  0.00    +0.022 C 
ENDBRANCH  16  19
ENDBRANCH  15  16
ENDBRANCH  14  15
ENDBRANCH  13  14
ENDBRANCH  11  13
ENDBRANCH   1  11
BRANCH   7  22
ATOM     22  N   LIG    1        9.880  -0.436   7.505  0.00  0.00    -0.261 NA
ATOM     23  C   LIG    1       10.833  -0.151   8.328  0.00  0.00    +0.179 C 
BRANCH  23  24
ATOM     24  N   LIG    1       11.030  -0.671   9.586  0.00  0.00    -0.321 N 
ATOM     25  C   LIG    1       10.314  -1.869  10.019  0.00  0.00    +0.106 C 
ATOM     26  C   LIG    1        9.622  -1.682  11.370  0.00  0.00    +0.019 C 
ATOM     27  C   LIG    1       10.597  -1.620  12.544  0.00  0.00    +0.002 C 
ATOM     28  C   LIG    1       11.214  -0.248  12.810  0.00  0.00    +0.002 C 
ATOM     29  C   LIG    1       11.635   0.582  11.598  0.00  0.00    +0.019 C 
ATOM     30  C   LIG    1       12.151  -0.228  10.414  0.00  0.00    +0.106 C 
ENDBRANCH  23  24
ENDBRANCH   7  22
TORSDOF 8
