REMARK  Name = *****
REMARK                            x       y       z     vdW  Elec       q    Type
REMARK                         _______ _______ _______ _____ _____    ______ ____
ROOT
ATOM      1  C   LIG    1       -3.017   4.581   1.932  0.00  0.00    +0.011 C 
ATOM      2  C   LIG    1       -2.604   3.597   0.838  0.00  0.00    +0.026 C 
ATOM      3  C   LIG    1       -3.755   3.024  -0.045  0.00  0.00    +0.134 C 
ATOM      4  C   LIG    1       -3.518   3.659  -1.473  0.00  0.00    +0.014 C 
ATOM      5  C   LIG    1       -4.133   2.787  -2.578  0.00  0.00    +0.015 C 
ATOM      6  C   LIG    1       -1.982   3.715  -1.551  0.00  0.00    +0.003 C 
ATOM      7  C   LIG    1       -1.343   4.588  -2.660  0.00  0.00    +0.004 C 
ATOM      8  C   LIG    1       -2.220   5.722  -3.239  0.00  0.00    +0.072 C 
ATOM      9  C   LIG    1       -3.334   6.126  -2.289  0.00  0.00    +0.138 C 
ATOM     10  O   LIG    1       -3.647   7.316  -2.178  0.00  0.00    -0.297 OA
ATOM     11  C   LIG    1       -2.678   5.708  -4.755  0.00  0.00    +0.017 C 
ATOM     12  C   LIG    1       -2.349   7.119  -5.328  0.00  0.00    +0.021 C 
ATOM     13  C   LIG    1       -1.964   4.647  -5.611  0.00  0.00    -0.056 C 
ATOM     14  C   LIG    1       -2.314   4.497  -6.910  0.00  0.00    +0.051 C 
ATOM     15  C   LIG    1       -3.789   4.179  -7.021  0.00  0.00    +0.179 C 
ATOM     16  O   LIG    1       -4.232   3.519  -7.947  0.00  0.00    -0.288 OA
ATOM     17  C   LIG    1       -4.687   4.797  -6.003  0.00  0.00    +0.047 C 
ATOM     18  C   LIG    1       -1.465   3.409  -4.915  0.00  0.00    +0.032 C 
ATOM     19  C   LIG    1       -4.182   5.521  -4.988  0.00  0.00    -0.012 C 
ATOM     20  C   LIG    1       -0.603   3.774  -3.729  0.00  0.00    +0.009 C 
ATOM     21  C   LIG    1       -4.144   5.073  -1.564  0.00  0.00    +0.084 C 
ATOM     22  C   LIG    1       -1.608   4.237  -0.146  0.00  0.00    +0.011 C 
ENDROOT
BRANCH   3  23
ATOM     23  C   LIG    1       -3.650   1.465  -0.075  0.00  0.00    +0.190 C 
ATOM     24  O   LIG    1       -2.568   0.871  -0.085  0.00  0.00    -0.292 OA
BRANCH  23  25
ATOM     25  C   LIG    1       -4.950   0.672  -0.072  0.00  0.00    +0.233 C 
BRANCH  25  26
ATOM     26  O   LIG    1       -5.377   0.420   1.256  0.00  0.00    -0.387 OA
ATOM     27  H   LIG    1       -4.803  -0.289   1.601  0.00  0.00    +0.210 HD
ENDBRANCH  25  26
ENDBRANCH  23  25
ENDBRANCH   3  23
BRANCH   3  28
ATOM     28  O   LIG    1       -5.036   3.406   0.442  0.00  0.00    -0.380 OA
ATOM     29  H   LIG    1       -5.181   2.975   1.308  0.00  0.00    +0.211 HD
ENDBRANCH   3  28
TORSDOF 4
