REMARK  Name = *****
REMARK                            x       y       z     vdW  Elec       q    Type
REMARK                         _______ _______ _______ _____ _____    ______ ____
ROOT
ATOM      1  C   LIG    1        4.427  -0.082   0.020  0.00  0.00    +0.285 C 
ENDROOT
BRANCH   1   3
ATOM      2  O   LIG    1        1.053  -0.082   0.020  0.00  0.00    -0.255 OA
ATOM      3  P   LIG    1        2.597  -0.082   0.020  0.00  0.00    +0.373 P 
BRANCH   3   4
ATOM      4  O   LIG    1        2.603  -1.657  -0.455  0.00  0.00    -0.322 OA
ATOM      5  H   LIG    1        1.667  -1.953  -0.475  0.00  0.00    +0.220 HD
ENDBRANCH   3   4
BRANCH   3   6
ATOM      6  O   LIG    1        2.606  -0.414   1.642  0.00  0.00    -0.322 OA
ATOM      7  H   LIG    1        1.671  -0.576   1.900  0.00  0.00    +0.220 HD
ENDBRANCH   3   6
ENDBRANCH   1   3
BRANCH   1   8
ATOM      8  P   LIG    1        5.060   1.635   0.211  0.00  0.00    +0.373 P 
ATOM      9  O   LIG    1        4.663   2.647  -0.800  0.00  0.00    -0.255 OA
BRANCH   8  10
ATOM     10  O   LIG    1        6.663   1.523   0.377  0.00  0.00    -0.322 OA
ATOM     11  H   LIG    1        7.129   2.372   0.367  0.00  0.00    +0.220 HD
ENDBRANCH   8  10
BRANCH   8  12
ATOM     12  O   LIG    1        4.661   2.107   1.695  0.00  0.00    -0.322 OA
ATOM     13  H   LIG    1        4.830   3.059   1.853  0.00  0.00    +0.220 HD
ENDBRANCH   8  12
ENDBRANCH   1   8
BRANCH   1  14
ATOM     14  O   LIG    1        4.918  -0.834   1.184  0.00  0.00    -0.366 OA
ATOM     15  H   LIG    1        4.201  -0.721   1.851  0.00  0.00    +0.212 HD
ENDBRANCH   1  14
BRANCH   1  16
ATOM     16  C   LIG    1        5.114  -0.717  -1.197  0.00  0.00    +0.183 C 
BRANCH  16  17
ATOM     17  N   LIG    1        4.835  -0.164  -2.505  0.00  0.00    -0.333 N 
ATOM     18  C   LIG    1        3.917  -0.665  -3.387  0.00  0.00    +0.199 A 
ATOM     19  N   LIG    1        4.080  -0.163  -4.592  0.00  0.00    -0.244 NA
ATOM     20  C   LIG    1        5.146   0.689  -4.489  0.00  0.00    +0.130 A 
ATOM     21  C   LIG    1        5.614   0.727  -3.195  0.00  0.00    +0.107 A 
ENDBRANCH  16  17
ENDBRANCH   1  16
TORSDOF 9
