REMARK  Name = *****
REMARK                            x       y       z     vdW  Elec       q    Type
REMARK                         _______ _______ _______ _____ _____    ______ ____
ROOT
ATOM      1  C   LIG    1        2.761   0.791  -1.528  0.00  0.00    -0.043 A 
ATOM      2  C   LIG    1        2.329  -0.382  -2.158  0.00  0.00    +0.021 A 
ATOM      3  C   LIG    1        2.175  -0.435  -3.555  0.00  0.00    +0.057 A 
ATOM      4  I   LIG    1        1.782  -2.321  -4.383  0.00  0.00    -0.040 I 
ATOM      5  C   LIG    1        2.397   0.703  -4.348  0.00  0.00    +0.154 A 
ATOM      6  C   LIG    1        2.878   1.863  -3.709  0.00  0.00    +0.057 A 
ATOM      7  I   LIG    1        3.650   3.531  -4.734  0.00  0.00    -0.040 I 
ATOM      8  C   LIG    1        2.981   1.926  -2.311  0.00  0.00    +0.021 A 
ENDROOT
BRANCH   1   9
ATOM      9  C   LIG    1        3.183   0.798  -0.074  0.00  0.00    +0.065 C 
BRANCH   9  10
ATOM     10  CA  LIG    1        4.639   0.329   0.152  0.00  0.00    +0.165 C 
BRANCH  10  11
ATOM     11  N   LIG    1        5.682   1.139  -0.552  0.00  0.00    -0.318 NA
ATOM     12  H1  LIG    1        5.400   1.231  -1.536  0.00  0.00    +0.119 HD
ATOM     13  H2  LIG    1        5.657   2.095  -0.190  0.00  0.00    +0.119 HD
ENDBRANCH  10  11
BRANCH  10  14
ATOM     14  C   LIG    1        4.871  -1.159  -0.209  0.00  0.00    +0.322 C 
ATOM     15  O   LIG    1        4.047  -2.036  -0.208  0.00  0.00    -0.249 OA
BRANCH  14  16
ATOM     16  OXT LIG    1        6.195  -1.371  -0.473  0.00  0.00    -0.479 OA
ATOM     17  HXT LIG    1        6.631  -0.484  -0.452  0.00  0.00    +0.295 HD
ENDBRANCH  14  16
ENDBRANCH  10  14
ENDBRANCH   9  10
ENDBRANCH   1   9
BRANCH   5  18
ATOM     18  O   LIG    1        2.170   0.633  -5.716  0.00  0.00    -0.454 OA
BRANCH  18  19
ATOM     19  C   LIG    1        1.139   1.398  -6.253  0.00  0.00    +0.130 A 
ATOM     20  C   LIG    1        0.319   2.228  -5.485  0.00  0.00    +0.064 A 
ATOM     21  C   LIG    1       -0.608   3.084  -6.082  0.00  0.00    +0.058 A 
ATOM     22  I   LIG    1       -1.677   4.365  -4.825  0.00  0.00    -0.040 I 
ATOM     23  C   LIG    1       -0.786   3.062  -7.462  0.00  0.00    +0.130 A 
ATOM     24  C   LIG    1       -0.054   2.163  -8.238  0.00  0.00    +0.050 A 
ATOM     25  C   LIG    1        0.924   1.347  -7.639  0.00  0.00    +0.050 A 
BRANCH  23  26
ATOM     26  O   LIG    1       -1.683   3.910  -8.047  0.00  0.00    -0.506 OA
ATOM     27  H   LIG    1       -1.602   3.855  -9.012  0.00  0.00    +0.292 HD
ENDBRANCH  23  26
ENDBRANCH  18  19
ENDBRANCH   5  18
TORSDOF 8
