REMARK  Name = *****
REMARK                            x       y       z     vdW  Elec       q    Type
REMARK                         _______ _______ _______ _____ _____    ______ ____
ROOT
ATOM      1  C   UNK    1       -3.285   1.637   0.388  0.00  0.00    +0.242 C 
ATOM      2  C   UNK    1       -3.855   2.520  -0.827  0.00  0.00    +0.199 C 
ATOM      3  N   UNK    1       -3.080   3.642  -0.294  0.00  0.00    -0.244 N 
ATOM      4  C   UNK    1       -3.199   4.964  -0.682  0.00  0.00    +0.123 C 
ATOM      5  C   UNK    1       -4.212   5.328  -1.525  0.00  0.00    -0.021 C 
ATOM      6  C   UNK    1       -5.344   4.394  -1.932  0.00  0.00    +0.104 C 
ATOM      7  S   UNK    1       -5.607   3.041  -0.764  0.00  0.00    -0.129 S 
ATOM      8  C   UNK    1       -2.825   3.057   0.895  0.00  0.00    +0.275 C 
ATOM      9  O   UNK    1       -2.409   3.554   1.942  0.00  0.00    -0.270 OA
ENDROOT
BRANCH   1  10
ATOM     10  N   UNK    1       -4.273   0.996   1.302  0.00  0.00    -0.277 N 
ATOM     11  H   UNK    1       -4.127   1.050   2.303  0.00  0.00    +0.152 HD
ATOM     12  C   UNK    1       -5.267   0.189   0.799  0.00  0.00    +0.225 C 
ATOM     13  O   UNK    1       -5.260  -0.123  -0.388  0.00  0.00    -0.275 OA
BRANCH  12  14
ATOM     14  C   UNK    1       -6.311  -0.255   1.815  0.00  0.00    +0.165 C 
BRANCH  14  15
ATOM     15  S   UNK    1       -7.924  -0.659   1.046  0.00  0.00    -0.149 S 
BRANCH  15  16
ATOM     16  C   UNK    1       -7.416  -2.068  -0.018  0.00  0.00    +0.099 C 
BRANCH  16  17
ATOM     17  C   UNK    1       -8.584  -2.702  -0.784  0.00  0.00    +0.170 C 
BRANCH  17  18
ATOM     18  N   UNK    1       -9.286  -1.747  -1.698  0.00  0.00    -0.318 NA
ATOM     19  H   UNK    1       -9.718  -1.036  -1.094  0.00  0.00    +0.119 HD
ATOM     20  H   UNK    1       -8.564  -1.203  -2.190  0.00  0.00    +0.119 HD
ENDBRANCH  17  18
BRANCH  17  21
ATOM     21  C   UNK    1       -8.061  -3.880  -1.623  0.00  0.00    +0.323 C 
ATOM     22  O   UNK    1       -7.098  -4.577  -1.342  0.00  0.00    -0.249 OA
BRANCH  21  23
ATOM     23  O   UNK    1       -8.837  -4.094  -2.718  0.00  0.00    -0.479 OA
ATOM     24  H   UNK    1       -9.512  -3.372  -2.736  0.00  0.00    +0.295 HD
ENDBRANCH  21  23
ENDBRANCH  17  21
ENDBRANCH  16  17
ENDBRANCH  15  16
ENDBRANCH  14  15
ENDBRANCH  12  14
ENDBRANCH   1  10
BRANCH   1  26
ATOM     25  C   UNK    1       -2.282  -0.471  -0.401  0.00  0.00    +0.197 C 
ATOM     26  O   UNK    1       -2.100   0.831   0.130  0.00  0.00    -0.349 OA
ENDBRANCH   1  26
BRANCH   4  27
ATOM     27  C   UNK    1       -2.145   5.954  -0.240  0.00  0.00    +0.351 C 
ATOM     28  O   UNK    1       -1.923   7.009  -0.817  0.00  0.00    -0.244 OA
BRANCH  27  29
ATOM     29  O   UNK    1       -1.384   5.606   0.815  0.00  0.00    -0.476 OA
ATOM     30  H   UNK    1       -1.677   4.836   1.353  0.00  0.00    +0.295 HD
ENDBRANCH  27  29
ENDBRANCH   4  27
BRANCH   5  31
ATOM     31  C   UNK    1       -4.428   6.723  -2.099  0.00  0.00    +0.111 C 
BRANCH  31  32
ATOM     32  S   UNK    1       -4.080   6.707  -3.888  0.00  0.00    -0.080 S 
BRANCH  32  33
ATOM     33  C   UNK    1       -4.365   8.369  -4.250  0.00  0.00    +0.209 A 
ATOM     34  N   UNK    1       -3.398   9.330  -4.260  0.00  0.00    -0.223 N 
ATOM     35  C   UNK    1       -1.990   9.218  -4.002  0.00  0.00    +0.177 C 
ATOM     36  N   UNK    1       -3.947  10.510  -4.600  0.00  0.00    -0.043 NA
ATOM     37  N   UNK    1       -5.235  10.251  -4.792  0.00  0.00    -0.022 NA
ATOM     38  N   UNK    1       -5.511   8.920  -4.572  0.00  0.00    -0.102 NA
ENDBRANCH  32  33
ENDBRANCH  31  32
ENDBRANCH   5  31
TORSDOF 14
