REMARK  Name = *****
REMARK                            x       y       z     vdW  Elec       q    Type
REMARK                         _______ _______ _______ _____ _____    ______ ____
ROOT
ATOM      1  N   LIG    1       -0.034   5.294   2.171  0.00  0.00    -0.313 NA
ATOM      2  H   LIG    1        0.786   5.899   2.105  0.00  0.00    +0.122 HD
ENDROOT
BRANCH   1   3
ATOM      3  C   LIG    1       -0.378   5.096   3.590  0.00  0.00    +0.081 C 
BRANCH   3   4
ATOM      4  C   LIG    1       -0.720   6.384   4.358  0.00  0.00    +0.015 C 
BRANCH   4   5
ATOM      5  C   LIG    1       -1.057   6.122   5.834  0.00  0.00    +0.001 C 
BRANCH   5   6
ATOM      6  C   LIG    1       -1.427   7.426   6.557  0.00  0.00    +0.002 C 
BRANCH   6   7
ATOM      7  C   LIG    1       -1.794   7.245   8.037  0.00  0.00    +0.028 C 
BRANCH   7   8
ATOM      8  C   LIG    1       -2.993   6.330   8.283  0.00  0.00    +0.160 C 
BRANCH   8   9
ATOM      9  O   LIG    1       -4.153   6.857   7.634  0.00  0.00    -0.380 OA
BRANCH   9  10
ATOM     10  C   LIG    1       -5.294   6.019   7.836  0.00  0.00    +0.160 C 
BRANCH  10  11
ATOM     11  C   LIG    1       -6.491   6.597   7.078  0.00  0.00    +0.028 C 
BRANCH  11  12
ATOM     12  C   LIG    1       -7.777   5.769   7.227  0.00  0.00    +0.007 C 
BRANCH  12  13
ATOM     13  C   LIG    1       -7.628   4.356   6.654  0.00  0.00    +0.035 C 
BRANCH  13  14
ATOM     14  C   LIG    1       -8.873   3.513   6.772  0.00  0.00    -0.047 A 
ATOM     15  C   LIG    1       -9.095   2.714   7.904  0.00  0.00    +0.003 A 
ATOM     16  C   LIG    1      -10.228   1.901   7.984  0.00  0.00    +0.000 A 
ATOM     17  C   LIG    1      -11.149   1.880   6.941  0.00  0.00    +0.000 A 
ATOM     18  C   LIG    1      -10.942   2.675   5.814  0.00  0.00    +0.000 A 
ATOM     19  C   LIG    1       -9.810   3.487   5.732  0.00  0.00    +0.003 A 
ENDBRANCH  13  14
ENDBRANCH  12  13
ENDBRANCH  11  12
ENDBRANCH  10  11
ENDBRANCH   9  10
ENDBRANCH   8   9
ENDBRANCH   7   8
ENDBRANCH   6   7
ENDBRANCH   5   6
ENDBRANCH   4   5
ENDBRANCH   3   4
ENDBRANCH   1   3
BRANCH   1  20
ATOM     20  C   LIG    1       -1.140   5.877   1.378  0.00  0.00    +0.117 C 
BRANCH  20  21
ATOM     21  C   LIG    1       -0.760   6.036  -0.124  0.00  0.00    +0.158 C 
BRANCH  21  26
ATOM     22  C   LIG    1       -3.940   6.514  -2.247  0.00  0.00    +0.019 A 
ATOM     23  C   LIG    1       -4.006   7.914  -2.291  0.00  0.00    +0.122 A 
ATOM     24  C   LIG    1       -3.028   8.693  -1.680  0.00  0.00    +0.046 A 
ATOM     25  C   LIG    1       -1.964   8.090  -1.006  0.00  0.00    +0.010 A 
ATOM     26  C   LIG    1       -1.875   6.688  -0.923  0.00  0.00    -0.017 A 
ATOM     27  C   LIG    1       -2.866   5.924  -1.558  0.00  0.00    +0.015 A 
BRANCH  23  28
ATOM     28  O   LIG    1       -5.051   8.506  -2.941  0.00  0.00    -0.506 OA
ATOM     29  H   LIG    1       -4.999   9.468  -2.798  0.00  0.00    +0.292 HD
ENDBRANCH  23  28
BRANCH  22  30
ATOM     30  C   LIG    1       -4.964   5.649  -2.922  0.00  0.00    +0.194 C 
BRANCH  30  31
ATOM     31  O   LIG    1       -5.584   4.803  -1.958  0.00  0.00    -0.390 OA
ATOM     32  H   LIG    1       -6.270   4.308  -2.435  0.00  0.00    +0.210 HD
ENDBRANCH  30  31
ENDBRANCH  22  30
ENDBRANCH  21  26
BRANCH  21  33
ATOM     33  O   LIG    1       -0.444   4.757  -0.686  0.00  0.00    -0.386 OA
ATOM     34  H   LIG    1       -0.286   4.168   0.076  0.00  0.00    +0.210 HD
ENDBRANCH  21  33
ENDBRANCH  20  21
ENDBRANCH   1  20
TORSDOF 19
