REMARK  Name = *****
REMARK                            x       y       z     vdW  Elec       q    Type
REMARK                         _______ _______ _______ _____ _____    ______ ____
ROOT
ATOM      1  C   LIG    1        1.219  -3.898  -1.178  0.00  0.00    +0.066 C 
ATOM      2  C   LIG    1        1.691  -3.100  -2.399  0.00  0.00    +0.035 C 
ATOM      3  C   LIG    1        0.034  -3.177  -0.515  0.00  0.00    +0.035 C 
ENDROOT
BRANCH   1   4
ATOM      4  S   LIG    1        2.586  -3.951   0.108  0.00  0.00    -0.108 S 
BRANCH   4   9
ATOM      5  C   LIG    1        5.977  -4.609  -2.092  0.00  0.00    +0.001 A 
ATOM      6  C   LIG    1        5.918  -6.026  -2.221  0.00  0.00    +0.124 A 
ATOM      7  C   LIG    1        4.950  -6.834  -1.576  0.00  0.00    +0.001 A 
ATOM      8  C   LIG    1        3.971  -6.152  -0.835  0.00  0.00    +0.022 A 
ATOM      9  C   LIG    1        3.921  -4.754  -0.771  0.00  0.00    +0.010 A 
ATOM     10  C   LIG    1        4.939  -4.005  -1.359  0.00  0.00    +0.022 A 
BRANCH   5  12
ATOM     11  C   LIG    1        7.201  -3.885  -4.218  0.00  0.00    +0.016 C 
ATOM     12  C   LIG    1        7.123  -3.757  -2.685  0.00  0.00    -0.009 C 
ATOM     13  C   LIG    1        6.990  -2.238  -2.384  0.00  0.00    +0.016 C 
ATOM     14  C   LIG    1        8.478  -4.187  -2.063  0.00  0.00    +0.016 C 
ENDBRANCH   5  12
BRANCH   7  15
ATOM     15  C   LIG    1        4.924  -8.383  -1.657  0.00  0.00    -0.009 C 
ATOM     16  C   LIG    1        6.259  -8.986  -1.161  0.00  0.00    +0.016 C 
ATOM     17  C   LIG    1        4.653  -8.854  -3.102  0.00  0.00    +0.016 C 
ATOM     18  C   LIG    1        3.825  -9.035  -0.777  0.00  0.00    +0.016 C 
ENDBRANCH   7  15
BRANCH   6  19
ATOM     19  O   LIG    1        6.831  -6.635  -3.039  0.00  0.00    -0.506 OA
ATOM     20  H   LIG    1        7.565  -6.892  -2.484  0.00  0.00    +0.292 HD
ENDBRANCH   6  19
ENDBRANCH   4   9
ENDBRANCH   1   4
BRANCH   1  21
ATOM     21  S   LIG    1        0.710  -5.639  -1.590  0.00  0.00    -0.108 S 
BRANCH  21  22
ATOM     22  C   LIG    1       -0.544  -5.398  -2.832  0.00  0.00    +0.010 A 
ATOM     23  C   LIG    1       -0.194  -5.320  -4.183  0.00  0.00    +0.022 A 
ATOM     24  C   LIG    1       -1.150  -5.145  -5.193  0.00  0.00    +0.001 A 
ATOM     25  C   LIG    1       -2.500  -5.008  -4.750  0.00  0.00    +0.124 A 
ATOM     26  C   LIG    1       -2.911  -5.129  -3.397  0.00  0.00    +0.001 A 
ATOM     27  C   LIG    1       -1.893  -5.353  -2.455  0.00  0.00    +0.022 A 
BRANCH  24  28
ATOM     28  C   LIG    1       -0.702  -5.083  -6.671  0.00  0.00    -0.009 C 
ATOM     29  C   LIG    1       -1.715  -5.666  -7.678  0.00  0.00    +0.016 C 
ATOM     30  C   LIG    1        0.612  -5.882  -6.922  0.00  0.00    +0.016 C 
ATOM     31  C   LIG    1       -0.425  -3.611  -7.043  0.00  0.00    +0.016 C 
ENDBRANCH  24  28
BRANCH  26  32
ATOM     32  C   LIG    1       -4.388  -5.026  -2.955  0.00  0.00    -0.009 C 
ATOM     33  C   LIG    1       -5.217  -6.162  -3.597  0.00  0.00    +0.016 C 
ATOM     34  C   LIG    1       -4.993  -3.660  -3.359  0.00  0.00    +0.016 C 
ATOM     35  C   LIG    1       -4.596  -5.139  -1.423  0.00  0.00    +0.016 C 
ENDBRANCH  26  32
BRANCH  25  36
ATOM     36  O   LIG    1       -3.465  -4.713  -5.668  0.00  0.00    -0.506 OA
ATOM     37  H   LIG    1       -3.320  -3.786  -5.908  0.00  0.00    +0.292 HD
ENDBRANCH  25  36
ENDBRANCH  21  22
ENDBRANCH   1  21
TORSDOF 10
