REMARK  Name = *****
REMARK                            x       y       z     vdW  Elec       q    Type
REMARK                         _______ _______ _______ _____ _____    ______ ____
ROOT
ATOM      1  C   LIG    1       12.511  -8.136  -4.379  0.00  0.00    -0.000 C 
ENDROOT
BRANCH   1   2
ATOM      2  C   LIG    1       11.011  -8.040  -4.653  0.00  0.00    -0.000 C 
BRANCH   2   3
ATOM      3  C   LIG    1       10.501  -6.595  -4.800  0.00  0.00    -0.000 C 
BRANCH   3   4
ATOM      4  C   LIG    1       11.112  -5.824  -5.985  0.00  0.00    -0.000 C 
BRANCH   4   5
ATOM      5  C   LIG    1       10.570  -4.391  -6.090  0.00  0.00    -0.000 C 
BRANCH   5   6
ATOM      6  C   LIG    1       11.176  -3.558  -7.234  0.00  0.00    -0.000 C 
BRANCH   6   7
ATOM      7  C   LIG    1       10.974  -4.065  -8.679  0.00  0.00    -0.000 C 
BRANCH   7   8
ATOM      8  C   LIG    1        9.509  -4.190  -9.119  0.00  0.00    -0.000 C 
BRANCH   8  10
ATOM      9  C   LIG    1        9.601  -6.148 -10.822  0.00  0.00    +0.004 C 
ATOM     10  C   LIG    1        9.293  -4.679 -10.565  0.00  0.00    -0.003 C 
ENDBRANCH   8  10
ENDBRANCH   7   8
ENDBRANCH   6   7
ENDBRANCH   5   6
ENDBRANCH   4   5
ENDBRANCH   3   4
ENDBRANCH   2   3
ENDBRANCH   1   2
BRANCH   1  11
ATOM     11  C   LIG    1       13.009  -9.569  -4.109  0.00  0.00    -0.000 C 
BRANCH  11  12
ATOM     12  C   LIG    1       12.623 -10.690  -5.133  0.00  0.00    -0.000 C 
BRANCH  12  13
ATOM     13  C   LIG    1       13.209 -10.393  -6.505  0.00  0.00    +0.000 C 
BRANCH  13  14
ATOM     14  C   LIG    1       13.236 -11.236  -7.761  0.00  0.00    +0.005 C 
BRANCH  14  15
ATOM     15  C   LIG    1       14.020 -10.507  -8.914  0.00  0.00    +0.051 C 
BRANCH  15  16
ATOM     16  C   LIG    1       15.556 -10.180  -8.792  0.00  0.00    +0.132 C 
BRANCH  16  17
ATOM     17  N   LIG    1       16.014  -9.032  -7.838  0.00  0.00    +0.237 N 
ATOM     18  C   LIG    1       17.526  -8.856  -7.931  0.00  0.00    +0.192 C 
ATOM     19  C   LIG    1       15.833  -9.288  -6.366  0.00  0.00    +0.192 C 
ATOM     20  C   LIG    1       15.281  -7.748  -8.208  0.00  0.00    +0.192 C 
ENDBRANCH  16  17
ENDBRANCH  15  16
ENDBRANCH  14  15
ENDBRANCH  13  14
ENDBRANCH  12  13
ENDBRANCH  11  12
ENDBRANCH   1  11
TORSDOF 15
