REMARK  Name = *****
REMARK                            x       y       z     vdW  Elec       q    Type
REMARK                         _______ _______ _______ _____ _____    ______ ____
ROOT
ATOM      1  C   LIG    1        9.604  -1.731   6.032  0.00  0.00    +0.098 C 
ENDROOT
BRANCH   1   2
ATOM      2  C   LIG    1       10.311  -0.730   6.993  0.00  0.00    +0.192 C 
BRANCH   2   3
ATOM      3  O   LIG    1       11.658  -1.024   7.333  0.00  0.00    -0.285 OA
BRANCH   3   4
ATOM      4  P   LIG    1       12.543  -0.325   8.469  0.00  0.00    +0.475 P 
ATOM      5  O   LIG    1       14.023  -0.491   8.343  0.00  0.00    -0.227 OA
BRANCH   4   6
ATOM      6  O   LIG    1       12.144  -1.037   9.849  0.00  0.00    -0.302 OA
ATOM      7  H   LIG    1       12.985  -1.021  10.360  0.00  0.00    +0.222 HD
ENDBRANCH   4   6
BRANCH   4   8
ATOM      8  O   LIG    1       12.081   1.163   8.763  0.00  0.00    -0.283 OA
BRANCH   8   9
ATOM      9  C   LIG    1       11.123   1.913   8.070  0.00  0.00    +0.130 C 
ATOM     10  C   LIG    1       10.933   3.177   8.859  0.00  0.00    +0.033 C 
ATOM     11  C   LIG    1       12.257   3.956   8.905  0.00  0.00    +0.019 C 
ATOM     12  C   LIG    1       12.983   4.287   7.533  0.00  0.00    +0.021 C 
ATOM     13  C   LIG    1       12.852   3.068   6.582  0.00  0.00    +0.019 C 
ATOM     14  C   LIG    1       11.540   2.296   6.651  0.00  0.00    +0.033 C 
BRANCH  12  15
ATOM     15  C   LIG    1       14.537   4.537   7.779  0.00  0.00    -0.037 A 
ATOM     16  C   LIG    1       15.474   4.827   6.757  0.00  0.00    +0.004 A 
ATOM     17  C   LIG    1       16.818   5.147   7.033  0.00  0.00    +0.000 A 
ATOM     18  C   LIG    1       17.295   5.095   8.334  0.00  0.00    +0.000 A 
ATOM     19  C   LIG    1       16.434   4.710   9.346  0.00  0.00    +0.000 A 
ATOM     20  C   LIG    1       15.091   4.437   9.069  0.00  0.00    +0.004 A 
ENDBRANCH  12  15
BRANCH  12  21
ATOM     21  C   LIG    1       12.252   5.498   6.877  0.00  0.00    -0.037 A 
ATOM     22  C   LIG    1       10.939   5.864   7.221  0.00  0.00    +0.004 A 
ATOM     23  C   LIG    1       10.263   6.931   6.643  0.00  0.00    +0.000 A 
ATOM     24  C   LIG    1       10.875   7.658   5.646  0.00  0.00    +0.000 A 
ATOM     25  C   LIG    1       12.131   7.277   5.205  0.00  0.00    +0.000 A 
ATOM     26  C   LIG    1       12.825   6.260   5.855  0.00  0.00    +0.004 A 
ENDBRANCH  12  21
ENDBRANCH   8   9
ENDBRANCH   4   8
ENDBRANCH   3   4
ENDBRANCH   2   3
ENDBRANCH   1   2
BRANCH   1  27
ATOM     27  N   LIG    1        9.660  -3.157   6.554  0.00  0.00    -0.276 NA
BRANCH  27  28
ATOM     28  C   LIG    1       10.959  -3.590   7.137  0.00  0.00    +0.206 C 
BRANCH  28  29
ATOM     29  C   LIG    1       11.984  -3.930   6.063  0.00  0.00    +0.319 C 
ATOM     30  O   LIG    1       11.831  -4.029   4.896  0.00  0.00    -0.250 OA
BRANCH  29  31
ATOM     31  O   LIG    1       13.196  -4.131   6.659  0.00  0.00    -0.480 OA
ATOM     32  H   LIG    1       13.832  -4.063   5.923  0.00  0.00    +0.295 HD
ENDBRANCH  29  31
ENDBRANCH  28  29
ENDBRANCH  27  28
BRANCH  27  33
ATOM     33  C   LIG    1        8.519  -3.752   7.263  0.00  0.00    +0.206 C 
BRANCH  33  34
ATOM     34  C   LIG    1        8.707  -5.285   7.648  0.00  0.00    +0.319 C 
ATOM     35  O   LIG    1        9.674  -6.011   7.471  0.00  0.00    -0.250 OA
BRANCH  34  36
ATOM     36  O   LIG    1        7.625  -5.817   8.259  0.00  0.00    -0.480 OA
ATOM     37  H   LIG    1        6.811  -5.317   8.105  0.00  0.00    +0.295 HD
ENDBRANCH  34  36
ENDBRANCH  33  34
ENDBRANCH  27  33
ENDBRANCH   1  27
BRANCH   1  38
ATOM     38  C   LIG    1        8.173  -1.038   5.473  0.00  0.00    +0.106 C 
BRANCH  38  39
ATOM     39  N   LIG    1        8.136   0.059   4.446  0.00  0.00    -0.290 NA
BRANCH  39  40
ATOM     40  C   LIG    1        9.315   0.929   4.173  0.00  0.00    +0.205 C 
BRANCH  40  41
ATOM     41  C   LIG    1        9.680   1.208   2.708  0.00  0.00    +0.319 C 
ATOM     42  O   LIG    1       10.543   2.006   2.362  0.00  0.00    -0.250 OA
BRANCH  41  43
ATOM     43  O   LIG    1        9.011   0.525   1.766  0.00  0.00    -0.480 OA
ATOM     44  H   LIG    1        9.354   0.886   0.920  0.00  0.00    +0.295 HD
ENDBRANCH  41  43
ENDBRANCH  40  41
ENDBRANCH  39  40
BRANCH  39  45
ATOM     45  C   LIG    1        6.873   0.718   3.998  0.00  0.00    +0.100 C 
BRANCH  45  46
ATOM     46  C   LIG    1        5.353   0.254   4.126  0.00  0.00    +0.101 C 
BRANCH  46  47
ATOM     47  N   LIG    1        4.658   0.234   5.464  0.00  0.00    -0.281 NA
BRANCH  47  48
ATOM     48  C   LIG    1        3.243  -0.352   5.295  0.00  0.00    +0.206 C 
BRANCH  48  49
ATOM     49  C   LIG    1        2.418  -0.372   6.631  0.00  0.00    +0.319 C 
ATOM     50  O   LIG    1        1.274  -0.669   6.770  0.00  0.00    -0.250 OA
BRANCH  49  51
ATOM     51  O   LIG    1        3.210  -0.025   7.690  0.00  0.00    -0.480 OA
ATOM     52  H   LIG    1        4.120  -0.071   7.337  0.00  0.00    +0.295 HD
ENDBRANCH  49  51
ENDBRANCH  48  49
ENDBRANCH  47  48
BRANCH  47  53
ATOM     53  C   LIG    1        4.663   1.643   6.044  0.00  0.00    +0.206 C 
BRANCH  53  55
ATOM     54  O   LIG    1        2.316   2.162   5.385  0.00  0.00    -0.250 OA
ATOM     55  C   LIG    1        3.393   2.485   5.860  0.00  0.00    +0.319 C 
BRANCH  55  56
ATOM     56  O   LIG    1        3.477   3.672   6.481  0.00  0.00    -0.480 OA
ATOM     57  H   LIG    1        2.530   3.937   6.536  0.00  0.00    +0.295 HD
ENDBRANCH  55  56
ENDBRANCH  53  55
ENDBRANCH  47  53
ENDBRANCH  46  47
ENDBRANCH  45  46
ENDBRANCH  39  45
ENDBRANCH  38  39
ENDBRANCH   1  38
TORSDOF 29
