REMARK  Name = *****
REMARK                            x       y       z     vdW  Elec       q    Type
REMARK                         _______ _______ _______ _____ _____    ______ ____
ROOT
ATOM      1  C   LIG    1        0.911  -0.098   0.068  0.00  0.00    +0.049 C 
ATOM      2  C   LIG    1        2.407   0.015  -0.155  0.00  0.00    +0.219 C 
ENDROOT
BRANCH   2   3
ATOM      3  C   LIG    1        2.771   1.393  -0.709  0.00  0.00    +0.333 C 
ATOM      4  O   LIG    1        2.523   2.459  -0.167  0.00  0.00    -0.248 OA
BRANCH   3   5
ATOM      5  O   LIG    1        3.418   1.291  -1.899  0.00  0.00    -0.479 OA
ATOM      6  H   LIG    1        3.473   0.327  -2.110  0.00  0.00    +0.295 HD
ENDBRANCH   3   5
ENDBRANCH   2   3
BRANCH   2   7
ATOM      7  O   LIG    1        2.826  -0.981  -1.106  0.00  0.00    -0.381 OA
ATOM      8  H   LIG    1        2.585  -1.847  -0.727  0.00  0.00    +0.210 HD
ENDBRANCH   2   7
TORSDOF 3
