REMARK  Name = *****
REMARK                            x       y       z     vdW  Elec       q    Type
REMARK                         _______ _______ _______ _____ _____    ______ ____
ROOT
ATOM      1  O   LIG    1        5.833  -1.130  -0.679  0.00  0.00    -0.279 OA
ENDROOT
BRANCH   1   3
ATOM      2  O   LIG    1        7.181   1.062  -1.129  0.00  0.00    -0.228 OA
ATOM      3  P   LIG    1        5.964   0.271  -1.444  0.00  0.00    +0.473 P 
BRANCH   3   4
ATOM      4  O   LIG    1        5.848  -0.079  -2.997  0.00  0.00    -0.303 OA
ATOM      5  H   LIG    1        6.247   0.613  -3.552  0.00  0.00    +0.222 HD
ENDBRANCH   3   4
BRANCH   3   6
ATOM      6  O   LIG    1        4.606   1.060  -1.167  0.00  0.00    -0.303 OA
ATOM      7  H   LIG    1        4.776   1.991  -0.931  0.00  0.00    +0.222 HD
ENDBRANCH   3   6
ENDBRANCH   1   3
BRANCH   1   8
ATOM      8  C   LIG    1        5.742  -1.123   0.752  0.00  0.00    +0.181 C 
BRANCH   8   9
ATOM      9  C   LIG    1        7.123  -1.339   1.386  0.00  0.00    +0.190 C 
BRANCH   9  10
ATOM     10  O   LIG    1        8.030  -0.278   1.127  0.00  0.00    -0.392 OA
ATOM     11  H   LIG    1        8.020  -0.062   0.173  0.00  0.00    +0.209 HD
ENDBRANCH   9  10
ENDBRANCH   8   9
BRANCH   8  12
ATOM     12  C   LIG    1        4.844  -2.296   1.162  0.00  0.00    +0.190 C 
BRANCH  12  13
ATOM     13  O   LIG    1        3.538  -2.165   0.612  0.00  0.00    -0.392 OA
ATOM     14  H   LIG    1        3.644  -2.193  -0.357  0.00  0.00    +0.209 HD
ENDBRANCH  12  13
ENDBRANCH   8  12
ENDBRANCH   1   8
TORSDOF 8
