REMARK  Name = *****
REMARK                            x       y       z     vdW  Elec       q    Type
REMARK                         _______ _______ _______ _____ _____    ______ ____
ROOT
ATOM      1  C   LIG    1        0.604  -4.976  -1.636  0.00  0.00    +0.084 C 
ENDROOT
BRANCH   1   5
ATOM      2  C   LIG    1        3.671  -5.232  -3.675  0.00  0.00    +0.095 C 
ATOM      3  C   LIG    1        3.070  -6.413  -2.902  0.00  0.00    +0.041 C 
ATOM      4  C   LIG    1        2.838  -6.034  -1.439  0.00  0.00    +0.086 C 
ATOM      5  N   LIG    1        2.024  -4.825  -1.264  0.00  0.00    -0.302 NA
ATOM      6  C   LIG    1        2.647  -3.688  -1.965  0.00  0.00    +0.086 C 
ATOM      7  C   LIG    1        2.877  -3.940  -3.456  0.00  0.00    +0.041 C 
BRANCH   2   9
ATOM      8  C   LIG    1        2.924  -5.692  -6.046  0.00  0.00    +0.297 A 
ATOM      9  N   LIG    1        3.882  -5.532  -5.088  0.00  0.00    -0.291 N 
ATOM     10  C   LIG    1        5.102  -5.662  -5.715  0.00  0.00    +0.072 A 
ATOM     11  C   LIG    1        4.777  -5.918  -7.045  0.00  0.00    +0.093 A 
ATOM     12  C   LIG    1        5.806  -6.108  -7.983  0.00  0.00    +0.030 A 
ATOM     13  C   LIG    1        7.135  -6.025  -7.553  0.00  0.00    +0.002 A 
ATOM     14  C   LIG    1        7.438  -5.763  -6.217  0.00  0.00    +0.002 A 
ATOM     15  C   LIG    1        6.427  -5.581  -5.266  0.00  0.00    +0.028 A 
ATOM     16  N   LIG    1        3.421  -5.932  -7.238  0.00  0.00    -0.195 NA
BRANCH   8  17
ATOM     17  O   LIG    1        1.629  -5.600  -5.854  0.00  0.00    -0.479 OA
ATOM     18  H   LIG    1        1.293  -5.710  -6.765  0.00  0.00    +0.295 HD
ENDBRANCH   8  17
ENDBRANCH   2   9
ENDBRANCH   1   5
BRANCH   1  19
ATOM     19  C   LIG    1       -0.122  -6.115  -0.900  0.00  0.00    +0.016 C 
BRANCH  19  20
ATOM     20  C   LIG    1       -1.597  -6.207  -1.317  0.00  0.00    +0.014 C 
BRANCH  20  21
ATOM     21  C   LIG    1       -2.381  -7.374  -0.648  0.00  0.00    +0.049 C 
BRANCH  21  22
ATOM     22  C   LIG    1       -3.767  -7.594  -1.285  0.00  0.00    -0.040 A 
ATOM     23  C   LIG    1       -4.505  -6.535  -1.849  0.00  0.00    +0.007 A 
ATOM     24  C   LIG    1       -5.778  -6.745  -2.383  0.00  0.00    +0.038 A 
ATOM     25  C   LIG    1       -6.328  -8.017  -2.360  0.00  0.00    +0.123 A 
ATOM     26  F   LIG    1       -7.546  -8.217  -2.880  0.00  0.00    -0.205 F 
ATOM     27  C   LIG    1       -5.633  -9.082  -1.801  0.00  0.00    +0.038 A 
ATOM     28  C   LIG    1       -4.359  -8.872  -1.258  0.00  0.00    +0.007 A 
ENDBRANCH  21  22
BRANCH  21  29
ATOM     29  C   LIG    1       -2.455  -7.203   0.873  0.00  0.00    -0.040 A 
ATOM     30  C   LIG    1       -3.506  -6.490   1.475  0.00  0.00    +0.007 A 
ATOM     31  C   LIG    1       -3.572  -6.338   2.859  0.00  0.00    +0.038 A 
ATOM     32  C   LIG    1       -2.556  -6.848   3.653  0.00  0.00    +0.123 A 
ATOM     33  F   LIG    1       -2.605  -6.673   4.979  0.00  0.00    -0.205 F 
ATOM     34  C   LIG    1       -1.488  -7.532   3.088  0.00  0.00    +0.038 A 
ATOM     35  C   LIG    1       -1.446  -7.728   1.704  0.00  0.00    +0.007 A 
ENDBRANCH  21  29
ENDBRANCH  20  21
ENDBRANCH  19  20
ENDBRANCH   1  19
TORSDOF 8
