REMARK  Name = *****
REMARK                            x       y       z     vdW  Elec       q    Type
REMARK                         _______ _______ _______ _____ _____    ______ ____
ROOT
ATOM      1  C   LIG    1        4.603   1.512   0.428  0.00  0.00    +0.002 C 
ENDROOT
BRANCH   1   2
ATOM      2  C   LIG    1        3.410   0.754  -0.167  0.00  0.00    +0.015 C 
BRANCH   2   3
ATOM      3  C   LIG    1        3.855  -0.351  -1.126  0.00  0.00    +0.077 C 
BRANCH   3   4
ATOM      4  N   LIG    1        2.689  -1.045  -1.665  0.00  0.00    -0.330 NA
ATOM      5  H   LIG    1        2.130  -0.392  -2.214  0.00  0.00    +0.118 HD
ATOM      6  H   LIG    1        2.997  -1.767  -2.316  0.00  0.00    +0.118 HD
ENDBRANCH   3   4
ENDBRANCH   2   3
ENDBRANCH   1   2
BRANCH   1   7
ATOM      7  C   LIG    1        4.129   2.627   1.369  0.00  0.00    +0.011 C 
BRANCH   7   8
ATOM      8  C   LIG    1        5.256   3.417   2.037  0.00  0.00    +0.120 C 
BRANCH   8   9
ATOM      9  C   LIG    1        6.122   4.213   1.086  0.00  0.00    +0.305 C 
ATOM     10  O   LIG    1        6.015   4.235  -0.132  0.00  0.00    -0.251 OA
BRANCH   9  11
ATOM     11  O   LIG    1        7.065   4.936   1.734  0.00  0.00    -0.481 OA
ATOM     12  H   LIG    1        7.032   4.849   2.705  0.00  0.00    +0.295 HD
ENDBRANCH   9  11
ENDBRANCH   8   9
ENDBRANCH   7   8
ENDBRANCH   1   7
TORSDOF 7
