REMARK  Name = *****
REMARK                            x       y       z     vdW  Elec       q    Type
REMARK                         _______ _______ _______ _____ _____    ______ ____
ROOT
ATOM      1  O   LIG    1        3.677   1.939  -1.579  0.00  0.00    -0.461 OA
ENDROOT
BRANCH   1   6
ATOM      2  N   LIG    1        2.211   0.205   1.701  0.00  0.00    +0.247 N 
ATOM      3  C   LIG    1        1.597  -1.167   1.411  0.00  0.00    +0.193 C 
ATOM      4  C   LIG    1        1.593   1.364   0.861  0.00  0.00    +0.070 C 
ATOM      5  C   LIG    1        1.578   1.015  -0.640  0.00  0.00    +0.099 C 
ATOM      6  C   LIG    1        2.968   0.717  -1.231  0.00  0.00    +0.187 C 
ATOM      7  C   LIG    1        3.850  -0.066  -0.248  0.00  0.00    +0.099 C 
ATOM      8  C   LIG    1        2.555   2.530   1.135  0.00  0.00    +0.060 C 
ATOM      9  C   LIG    1        3.922   1.877   1.384  0.00  0.00    +0.060 C 
ATOM     10  C   LIG    1        3.688   0.367   1.223  0.00  0.00    +0.070 C 
BRANCH   2  12
ATOM     11  C   LIG    1        2.923  -0.444   4.125  0.00  0.00    +0.063 C 
ATOM     12  C   LIG    1        2.074   0.505   3.274  0.00  0.00    +0.060 C 
ATOM     13  C   LIG    1        0.618   0.498   3.748  0.00  0.00    +0.063 C 
ENDBRANCH   2  12
ENDBRANCH   1   6
BRANCH   1  14
ATOM     14  C   LIG    1        3.221   2.601  -2.691  0.00  0.00    +0.317 C 
ATOM     15  O   LIG    1        2.244   2.226  -3.313  0.00  0.00    -0.250 OA
BRANCH  14  16
ATOM     16  C   LIG    1        4.046   3.865  -2.977  0.00  0.00    +0.153 C 
BRANCH  16  17
ATOM     17  C   LIG    1        3.425   4.703  -4.092  0.00  0.00    -0.032 A 
ATOM     18  C   LIG    1        3.161   4.146  -5.354  0.00  0.00    +0.004 A 
ATOM     19  C   LIG    1        2.530   4.893  -6.347  0.00  0.00    +0.000 A 
ATOM     20  C   LIG    1        2.186   6.220  -6.107  0.00  0.00    +0.000 A 
ATOM     21  C   LIG    1        2.475   6.801  -4.874  0.00  0.00    +0.000 A 
ATOM     22  C   LIG    1        3.091   6.049  -3.870  0.00  0.00    +0.004 A 
ENDBRANCH  16  17
BRANCH  16  23
ATOM     23  C   LIG    1        5.504   3.502  -3.290  0.00  0.00    +0.175 C 
BRANCH  23  24
ATOM     24  O   LIG    1        6.303   4.665  -3.501  0.00  0.00    -0.394 OA
ATOM     25  H   LIG    1        5.941   5.143  -4.272  0.00  0.00    +0.209 HD
ENDBRANCH  23  24
ENDBRANCH  16  23
ENDBRANCH  14  16
ENDBRANCH   1  14
TORSDOF 7
