REMARK  Name = *****
REMARK                            x       y       z     vdW  Elec       q    Type
REMARK                         _______ _______ _______ _____ _____    ______ ____
ROOT
ATOM      1  C   LIG    1        0.557   0.494  -0.680  0.00  0.00    +0.016 C 
ATOM      2  C   LIG    1        2.070   0.208  -0.557  0.00  0.00    -0.009 C 
ATOM      3  C   LIG    1        2.538   0.679   0.826  0.00  0.00    -0.038 A 
ATOM      4  C   LIG    1        2.765  -0.228   1.887  0.00  0.00    -0.036 A 
ATOM      5  C   LIG    1        3.204   0.280   3.130  0.00  0.00    +0.027 A 
ATOM      6  C   LIG    1        3.401   1.641   3.356  0.00  0.00    +0.034 A 
ATOM      7  C   LIG    1        3.120   2.533   2.327  0.00  0.00    +0.023 A 
ATOM      8  C   LIG    1        2.627  -1.748   1.727  0.00  0.00    -0.009 C 
ATOM      9  C   LIG    1        4.047  -2.359   1.710  0.00  0.00    +0.016 C 
ATOM     10  C   LIG    1        1.835  -2.387   2.893  0.00  0.00    +0.016 C 
ATOM     11  C   LIG    1        1.880  -2.125   0.431  0.00  0.00    +0.012 C 
ATOM     12  C   LIG    1        2.703   2.057   1.079  0.00  0.00    +0.006 A 
ATOM     13  C   LIG    1        2.346  -1.300  -0.757  0.00  0.00    +0.012 C 
ATOM     14  C   LIG    1        2.795   0.939  -1.712  0.00  0.00    +0.016 C 
ENDROOT
BRANCH   6  15
ATOM     15  N   LIG    1        3.864   2.157   4.585  0.00  0.00    -0.281 N 
ATOM     16  H   LIG    1        3.848   3.164   4.676  0.00  0.00    +0.155 HD
ATOM     17  C   LIG    1        4.508   1.431   5.574  0.00  0.00    +0.248 C 
ATOM     18  O   LIG    1        4.862   0.259   5.508  0.00  0.00    -0.270 OA
BRANCH  17  19
ATOM     19  C   LIG    1        4.871   2.193   6.800  0.00  0.00    +0.037 A 
ATOM     20  C   LIG    1        4.090   3.251   7.279  0.00  0.00    +0.014 A 
ATOM     21  C   LIG    1        4.481   3.936   8.435  0.00  0.00    +0.015 A 
ATOM     22  C   LIG    1        5.647   3.563   9.119  0.00  0.00    +0.059 A 
ATOM     23  C   LIG    1        6.398   2.471   8.672  0.00  0.00    +0.015 A 
ATOM     24  C   LIG    1        6.013   1.794   7.512  0.00  0.00    +0.014 A 
BRANCH  22  25
ATOM     25  C   LIG    1        6.019   4.328  10.337  0.00  0.00    +0.337 C 
ATOM     26  O   LIG    1        5.198   4.876  11.047  0.00  0.00    -0.245 OA
BRANCH  25  27
ATOM     27  O   LIG    1        7.351   4.409  10.544  0.00  0.00    -0.477 OA
ATOM     28  H   LIG    1        7.910   4.085   9.817  0.00  0.00    +0.295 HD
ENDBRANCH  25  27
ENDBRANCH  22  25
ENDBRANCH  17  19
ENDBRANCH   6  15
TORSDOF 4
