REMARK  Name = *****
REMARK                            x       y       z     vdW  Elec       q    Type
REMARK                         _______ _______ _______ _____ _____    ______ ____
ROOT
ATOM      1  O   LIG    1        3.510  -1.050  -1.276  0.00  0.00    -0.247 OA
ATOM      2  C   LIG    1        3.528  -2.033  -0.531  0.00  0.00    +0.349 C 
ENDROOT
BRANCH   2   3
ATOM      3  C   LIG    1        2.263  -2.881  -0.157  0.00  0.00    +0.213 C 
BRANCH   3   4
ATOM      4  C   LIG    1        1.458  -2.255   1.000  0.00  0.00    -0.001 A 
ATOM      5  C   LIG    1        2.071  -1.471   1.996  0.00  0.00    +0.007 A 
ATOM      6  C   LIG    1        1.328  -0.928   3.050  0.00  0.00    +0.000 A 
ATOM      7  C   LIG    1       -0.041  -1.161   3.138  0.00  0.00    +0.000 A 
ATOM      8  C   LIG    1       -0.671  -1.939   2.171  0.00  0.00    +0.000 A 
ATOM      9  C   LIG    1        0.070  -2.483   1.116  0.00  0.00    +0.007 A 
ENDBRANCH   3   4
BRANCH   3  10
ATOM     10  C   LIG    1        2.642  -4.359   0.064  0.00  0.00    -0.001 A 
ATOM     11  C   LIG    1        2.668  -5.265  -1.015  0.00  0.00    +0.007 A 
ATOM     12  C   LIG    1        3.036  -6.601  -0.831  0.00  0.00    +0.000 A 
ATOM     13  C   LIG    1        3.409  -7.055   0.430  0.00  0.00    +0.000 A 
ATOM     14  C   LIG    1        3.418  -6.173   1.506  0.00  0.00    +0.000 A 
ATOM     15  C   LIG    1        3.041  -4.838   1.326  0.00  0.00    +0.007 A 
ENDBRANCH   3  10
BRANCH   3  16
ATOM     16  O   LIG    1        1.412  -2.821  -1.327  0.00  0.00    -0.370 OA
ATOM     17  H   LIG    1        1.222  -1.877  -1.478  0.00  0.00    +0.212 HD
ENDBRANCH   3  16
ENDBRANCH   2   3
BRANCH   2  18
ATOM     18  O   LIG    1        4.665  -2.488   0.078  0.00  0.00    -0.459 OA
BRANCH  18  19
ATOM     19  C   LIG    1        5.934  -1.952  -0.350  0.00  0.00    +0.187 C 
ATOM     20  C   LIG    1        6.694  -3.086  -1.054  0.00  0.00    +0.099 C 
ATOM     21  C   LIG    1        8.216  -2.915  -1.032  0.00  0.00    +0.070 C 
ATOM     22  N   LIG    1        8.689  -2.804   0.427  0.00  0.00    +0.248 N 
ATOM     23  C   LIG    1        8.179  -1.386   0.761  0.00  0.00    +0.070 C 
ATOM     24  C   LIG    1        8.628  -0.575  -0.465  0.00  0.00    +0.060 C 
ATOM     25  C   LIG    1       10.251  -2.887   0.542  0.00  0.00    +0.134 C 
ATOM     26  C   LIG    1       10.537  -4.066   1.455  0.00  0.00    +0.056 C 
ATOM     27  C   LIG    1        9.321  -4.132   2.344  0.00  0.00    +0.056 C 
ATOM     28  C   LIG    1        8.199  -3.938   1.349  0.00  0.00    +0.134 C 
ATOM     29  C   LIG    1        8.637  -1.566  -1.632  0.00  0.00    +0.060 C 
ATOM     30  C   LIG    1        6.649  -1.383   0.881  0.00  0.00    +0.099 C 
ENDBRANCH  18  19
ENDBRANCH   2  18
TORSDOF 6
