REMARK  Name = *****
REMARK                            x       y       z     vdW  Elec       q    Type
REMARK                         _______ _______ _______ _____ _____    ______ ____
ROOT
ATOM      1  C   LIG    1        6.194   3.120   2.587  0.00  0.00    +0.197 A 
ATOM      2  O   LIG    1        5.914   4.444   2.596  0.00  0.00    -0.439 OA
ATOM      3  C   LIG    1        6.772   4.986   3.531  0.00  0.00    +0.163 A 
ATOM      4  C   LIG    1        7.524   3.936   4.050  0.00  0.00    +0.117 A 
ATOM      5  N   LIG    1        7.151   2.761   3.419  0.00  0.00    -0.213 NA
ENDROOT
BRANCH   3   6
ATOM      6  C   LIG    1        6.605   6.425   3.700  0.00  0.00    +0.019 A 
ATOM      7  C   LIG    1        6.813   7.057   4.930  0.00  0.00    +0.012 A 
ATOM      8  C   LIG    1        6.617   8.434   5.066  0.00  0.00    +0.001 A 
ATOM      9  C   LIG    1        6.189   9.195   3.979  0.00  0.00    +0.000 A 
ATOM     10  C   LIG    1        5.969   8.584   2.750  0.00  0.00    +0.001 A 
ATOM     11  C   LIG    1        6.178   7.211   2.612  0.00  0.00    +0.012 A 
ENDBRANCH   3   6
BRANCH   4  12
ATOM     12  C   LIG    1        8.574   3.934   5.069  0.00  0.00    +0.004 A 
ATOM     13  C   LIG    1        9.447   5.015   5.231  0.00  0.00    +0.010 A 
ATOM     14  C   LIG    1       10.442   5.001   6.216  0.00  0.00    +0.001 A 
ATOM     15  C   LIG    1       10.599   3.892   7.044  0.00  0.00    +0.000 A 
ATOM     16  C   LIG    1        9.772   2.787   6.873  0.00  0.00    +0.001 A 
ATOM     17  C   LIG    1        8.773   2.804   5.888  0.00  0.00    +0.010 A 
ENDBRANCH   4  12
BRANCH   1  18
ATOM     18  C   LIG    1        5.375   2.253   1.698  0.00  0.00    +0.107 C 
BRANCH  18  19
ATOM     19  C   LIG    1        5.761   0.782   1.808  0.00  0.00    +0.130 C 
BRANCH  19  21
ATOM     20  O   LIG    1        4.642  -0.725   3.300  0.00  0.00    -0.251 OA
ATOM     21  C   LIG    1        5.458   0.157   3.151  0.00  0.00    +0.305 C 
BRANCH  21  22
ATOM     22  O   LIG    1        6.194   0.608   4.187  0.00  0.00    -0.481 OA
ATOM     23  H   LIG    1        6.803   1.339   3.945  0.00  0.00    +0.295 HD
ENDBRANCH  21  22
ENDBRANCH  19  21
ENDBRANCH  18  19
ENDBRANCH   1  18
TORSDOF 6
