REMARK  Name = *****
REMARK                            x       y       z     vdW  Elec       q    Type
REMARK                         _______ _______ _______ _____ _____    ______ ____
ROOT
ATOM      1  C   LIG    1        2.109  -0.648   1.943  0.00  0.00    +0.125 C 
ATOM      2  C   LIG    1        3.425  -1.450   1.701  0.00  0.00    +0.104 C 
ATOM      3  N   LIG    1        4.144  -0.318   2.345  0.00  0.00    -0.260 N 
ATOM      4  C   LIG    1        5.200   0.066   1.532  0.00  0.00    +0.131 C 
ATOM      5  C   LIG    1        5.265  -0.659   0.399  0.00  0.00    +0.019 C 
ATOM      6  C   LIG    1        4.116  -1.648   0.343  0.00  0.00    +0.046 C 
ATOM      7  C   LIG    1        3.150  -1.435  -0.817  0.00  0.00    +0.015 C 
ATOM      8  C   LIG    1        3.032   0.473   2.422  0.00  0.00    +0.228 C 
ATOM      9  O   LIG    1        2.893   1.670   2.620  0.00  0.00    -0.275 OA
ENDROOT
BRANCH   1  11
ATOM     10  C   LIG    1        0.152  -0.184   3.435  0.00  0.00    +0.038 C 
ATOM     11  C   LIG    1        1.148  -1.234   2.962  0.00  0.00    +0.125 C 
BRANCH  11  12
ATOM     12  O   LIG    1        0.449  -2.302   2.321  0.00  0.00    -0.391 OA
ATOM     13  H   LIG    1       -0.353  -2.497   2.838  0.00  0.00    +0.210 HD
ENDBRANCH  11  12
ENDBRANCH   1  11
BRANCH   4  14
ATOM     14  C   LIG    1        6.054   1.214   1.934  0.00  0.00    +0.352 C 
ATOM     15  O   LIG    1        6.739   1.926   1.224  0.00  0.00    -0.244 OA
BRANCH  14  16
ATOM     16  O   LIG    1        6.037   1.395   3.272  0.00  0.00    -0.476 OA
ATOM     17  H   LIG    1        6.580   2.199   3.403  0.00  0.00    +0.295 HD
ENDBRANCH  14  16
ENDBRANCH   4  14
BRANCH   5  18
ATOM     18  S   LIG    1        6.329  -0.401  -0.933  0.00  0.00    -0.122 S 
BRANCH  18  19
ATOM     19  C   LIG    1        7.308  -1.939  -1.071  0.00  0.00    +0.067 C 
ATOM     20  C   LIG    1        6.512  -3.209  -1.325  0.00  0.00    +0.044 C 
ATOM     21  C   LIG    1        7.134  -3.918  -2.527  0.00  0.00    +0.142 C 
ATOM     22  N   LIG    1        8.354  -3.165  -2.885  0.00  0.00    -0.305 NA
ATOM     23  H   LIG    1        9.168  -3.656  -2.520  0.00  0.00    +0.123 HD
ATOM     24  C   LIG    1        8.264  -1.842  -2.261  0.00  0.00    +0.096 C 
BRANCH  21  25
ATOM     25  C   LIG    1        6.135  -4.029  -3.714  0.00  0.00    +0.232 C 
ATOM     26  N   LIG    1        6.510  -4.750  -4.843  0.00  0.00    -0.306 N 
ATOM     27  C   LIG    1        7.831  -5.294  -5.104  0.00  0.00    +0.131 C 
ATOM     28  C   LIG    1        5.545  -4.905  -5.920  0.00  0.00    +0.131 C 
ATOM     29  O   LIG    1        4.993  -3.564  -3.622  0.00  0.00    -0.274 OA
ENDBRANCH  21  25
ENDBRANCH  18  19
ENDBRANCH   5  18
TORSDOF 7
