REMARK  Name = *****
REMARK                            x       y       z     vdW  Elec       q    Type
REMARK                         _______ _______ _______ _____ _____    ______ ____
ROOT
ATOM      1  O   LIG    1        8.714   0.077   6.986  0.00  0.00    -0.340 OA
ENDROOT
BRANCH   1   5
ATOM      2  C   LIG    1        7.106  -1.152   9.541  0.00  0.00    +0.283 C 
ATOM      3  C   LIG    1        7.862  -2.380   9.029  0.00  0.00    +0.201 C 
ATOM      4  C   LIG    1        8.146  -2.260   7.501  0.00  0.00    +0.180 C 
ATOM      5  C   LIG    1        7.704  -0.972   6.793  0.00  0.00    +0.192 C 
ATOM      6  C   LIG    1        6.327  -0.555   7.320  0.00  0.00    +0.261 C 
ATOM      7  O   LIG    1        6.018  -1.063   8.646  0.00  0.00    -0.332 OA
BRANCH   6   8
ATOM      8  C   LIG    1        5.133  -1.035   6.478  0.00  0.00    +0.337 C 
ATOM      9  O   LIG    1        4.041  -1.384   6.893  0.00  0.00    -0.248 OA
BRANCH   8  10
ATOM     10  O   LIG    1        5.316  -1.014   5.146  0.00  0.00    -0.479 OA
ATOM     11  H   LIG    1        4.444  -1.367   4.857  0.00  0.00    +0.295 HD
ENDBRANCH   8  10
ENDBRANCH   6   8
BRANCH   4  12
ATOM     12  O   LIG    1        7.574  -3.356   6.786  0.00  0.00    -0.386 OA
ATOM     13  H   LIG    1        7.991  -4.147   7.170  0.00  0.00    +0.210 HD
ENDBRANCH   4  12
BRANCH   3  14
ATOM     14  O   LIG    1        9.062  -2.633   9.764  0.00  0.00    -0.384 OA
ATOM     15  H   LIG    1        9.700  -1.906   9.636  0.00  0.00    +0.210 HD
ENDBRANCH   3  14
BRANCH   2  16
ATOM     16  O   LIG    1        6.633  -1.258  10.903  0.00  0.00    -0.341 OA
BRANCH  16  18
ATOM     17  C   LIG    1        4.691   0.412  11.024  0.00  0.00    +0.160 C 
ATOM     18  C   LIG    1        6.069  -0.069  11.566  0.00  0.00    +0.177 C 
ATOM     19  C   LIG    1        7.059   1.113  11.624  0.00  0.00    +0.176 C 
ATOM     20  C   LIG    1        6.990   1.985  10.347  0.00  0.00    +0.178 C 
ATOM     21  O   LIG    1        6.228   1.376   9.311  0.00  0.00    -0.341 OA
ATOM     22  C   LIG    1        4.864   1.143   9.680  0.00  0.00    +0.270 C 
BRANCH  17  25
ATOM     23  C   LIG    1        2.512   2.018  13.741  0.00  0.00    +0.109 C 
ATOM     24  C   LIG    1        3.207   0.912  12.983  0.00  0.00    +0.210 C 
ATOM     25  N   LIG    1        3.971   1.337  11.930  0.00  0.00    -0.305 N 
ATOM     26  H   LIG    1        4.218   2.319  11.889  0.00  0.00    +0.149 HD
ATOM     27  O   LIG    1        3.060  -0.270  13.270  0.00  0.00    -0.276 OA
ENDBRANCH  17  25
BRANCH  22  28
ATOM     28  O   LIG    1        4.126   0.466   8.678  0.00  0.00    -0.365 OA
ATOM     29  H   LIG    1        4.382  -0.486   8.742  0.00  0.00    +0.212 HD
ENDBRANCH  22  28
BRANCH  19  30
ATOM     30  O   LIG    1        6.764   1.972  12.740  0.00  0.00    -0.387 OA
ATOM     31  H   LIG    1        7.393   1.742  13.450  0.00  0.00    +0.210 HD
ENDBRANCH  19  30
BRANCH  20  32
ATOM     32  C   LIG    1        8.417   2.277   9.847  0.00  0.00    +0.190 C 
BRANCH  32  33
ATOM     33  O   LIG    1        9.114   3.049  10.815  0.00  0.00    -0.392 OA
ATOM     34  H   LIG    1        9.977   3.293  10.441  0.00  0.00    +0.209 HD
ENDBRANCH  32  33
ENDBRANCH  20  32
ENDBRANCH  16  18
ENDBRANCH   2  16
ENDBRANCH   1   5
BRANCH   1  35
ATOM     35  C   LIG    1        9.895  -0.145   6.173  0.00  0.00    +0.274 C 
ATOM     36  C   LIG    1       10.739   1.168   5.962  0.00  0.00    +0.160 C 
ATOM     37  C   LIG    1       11.795   1.394   7.106  0.00  0.00    +0.177 C 
ATOM     38  C   LIG    1       11.854   0.193   8.075  0.00  0.00    +0.176 C 
ATOM     39  C   LIG    1       11.944  -1.050   7.208  0.00  0.00    +0.178 C 
ATOM     40  O   LIG    1       10.671  -1.271   6.609  0.00  0.00    -0.341 OA
BRANCH  36  41
ATOM     41  N   LIG    1       11.283   1.051   4.598  0.00  0.00    -0.305 N 
ATOM     42  H   LIG    1       11.744   0.169   4.413  0.00  0.00    +0.149 HD
ATOM     43  C   LIG    1       11.617   2.042   3.729  0.00  0.00    +0.210 C 
ATOM     44  O   LIG    1       11.939   3.182   4.088  0.00  0.00    -0.276 OA
ATOM     45  C   LIG    1       11.538   1.635   2.279  0.00  0.00    +0.109 C 
ENDBRANCH  36  41
BRANCH  38  46
ATOM     46  O   LIG    1       12.872   0.317   9.057  0.00  0.00    -0.387 OA
ATOM     47  H   LIG    1       12.609  -0.269   9.799  0.00  0.00    +0.210 HD
ENDBRANCH  38  46
BRANCH  39  48
ATOM     48  C   LIG    1       12.435  -2.325   7.917  0.00  0.00    +0.190 C 
BRANCH  48  49
ATOM     49  O   LIG    1       11.661  -2.651   9.058  0.00  0.00    -0.392 OA
ATOM     50  H   LIG    1       11.964  -3.538   9.346  0.00  0.00    +0.209 HD
ENDBRANCH  48  49
ENDBRANCH  39  48
BRANCH  37  51
ATOM     51  O   LIG    1       13.064   1.972   6.763  0.00  0.00    -0.341 OA
BRANCH  51  52
ATOM     52  C   LIG    1       14.131   1.327   6.051  0.00  0.00    +0.283 C 
ATOM     53  C   LIG    1       15.124   2.477   5.712  0.00  0.00    +0.201 C 
ATOM     54  C   LIG    1       15.783   2.960   7.026  0.00  0.00    +0.179 C 
ATOM     55  C   LIG    1       16.129   1.847   8.009  0.00  0.00    +0.185 C 
ATOM     56  C   LIG    1       16.127   0.533   7.265  0.00  0.00    +0.260 C 
ATOM     57  O   LIG    1       14.758   0.260   6.814  0.00  0.00    -0.332 OA
BRANCH  56  58
ATOM     58  C   LIG    1       16.543  -0.538   8.237  0.00  0.00    +0.337 C 
ATOM     59  O   LIG    1       17.712  -0.685   8.719  0.00  0.00    -0.248 OA
BRANCH  58  60
ATOM     60  O   LIG    1       15.550  -1.350   8.584  0.00  0.00    -0.479 OA
ATOM     61  H   LIG    1       14.778  -0.968   8.102  0.00  0.00    +0.295 HD
ENDBRANCH  58  60
ENDBRANCH  56  58
BRANCH  55  62
ATOM     62  O   LIG    1       17.346   2.211   8.655  0.00  0.00    -0.386 OA
ATOM     63  H   LIG    1       17.203   3.108   9.017  0.00  0.00    +0.210 HD
ENDBRANCH  55  62
BRANCH  54  64
ATOM     64  O   LIG    1       14.944   3.857   7.763  0.00  0.00    -0.386 OA
ATOM     65  H   LIG    1       14.223   3.309   8.142  0.00  0.00    +0.210 HD
ENDBRANCH  54  64
BRANCH  53  66
ATOM     66  O   LIG    1       16.121   2.053   4.765  0.00  0.00    -0.384 OA
ATOM     67  H   LIG    1       16.445   2.857   4.313  0.00  0.00    +0.210 HD
ENDBRANCH  53  66
ENDBRANCH  51  52
ENDBRANCH  37  51
ENDBRANCH   1  35
TORSDOF 24
