REMARK  Name = *****
REMARK                            x       y       z     vdW  Elec       q    Type
REMARK                         _______ _______ _______ _____ _____    ______ ____
ROOT
ATOM      1  C   LIG    1        2.412  -0.315   0.040  0.00  0.00    +0.124 A 
ATOM      2  C   LIG    1        3.231  -1.428   0.178  0.00  0.00    +0.091 A 
ATOM      3  C   LIG    1        4.617  -1.279   0.138  0.00  0.00    +0.132 A 
ATOM      4  O   LIG    1        5.342  -2.431   0.280  0.00  0.00    -0.481 OA
ATOM      5  C   LIG    1        6.721  -2.335  -0.106  0.00  0.00    +0.232 C 
ATOM      6  C   LIG    1        7.399  -1.088   0.500  0.00  0.00    +0.164 C 
ATOM      7  C   LIG    1        6.683   0.157  -0.025  0.00  0.00    +0.078 C 
ATOM      8  C   LIG    1        5.191  -0.011  -0.008  0.00  0.00    +0.038 A 
ATOM      9  C   LIG    1        4.343   1.093  -0.160  0.00  0.00    +0.127 A 
ATOM     10  C   LIG    1        2.955   0.953  -0.136  0.00  0.00    +0.091 A 
ENDROOT
BRANCH   5  11
ATOM     11  C   LIG    1        7.359  -3.667   0.261  0.00  0.00    -0.001 A 
ATOM     12  C   LIG    1        7.885  -3.920   1.538  0.00  0.00    +0.056 A 
ATOM     13  C   LIG    1        8.429  -5.165   1.828  0.00  0.00    +0.159 A 
ATOM     14  C   LIG    1        8.453  -6.178   0.874  0.00  0.00    +0.158 A 
ATOM     15  C   LIG    1        7.924  -5.959  -0.390  0.00  0.00    +0.049 A 
ATOM     16  C   LIG    1        7.374  -4.708  -0.691  0.00  0.00    +0.011 A 
BRANCH  13  17
ATOM     17  O   LIG    1        8.941  -5.393   3.074  0.00  0.00    -0.503 OA
ATOM     18  H   LIG    1        9.257  -6.318   3.041  0.00  0.00    +0.292 HD
ENDBRANCH  13  17
BRANCH  14  19
ATOM     19  O   LIG    1        9.002  -7.378   1.232  0.00  0.00    -0.503 OA
ATOM     20  H   LIG    1        8.930  -7.979   0.471  0.00  0.00    +0.292 HD
ENDBRANCH  14  19
ENDBRANCH   5  11
BRANCH   1  21
ATOM     21  O   LIG    1        1.062  -0.512   0.077  0.00  0.00    -0.506 OA
ATOM     22  H   LIG    1        0.612   0.345   0.000  0.00  0.00    +0.292 HD
ENDBRANCH   1  21
BRANCH   6  23
ATOM     23  O   LIG    1        8.789  -0.991   0.168  0.00  0.00    -0.388 OA
ATOM     24  H   LIG    1        8.890  -1.154  -0.786  0.00  0.00    +0.210 HD
ENDBRANCH   6  23
BRANCH   9  25
ATOM     25  O   LIG    1        4.907   2.326  -0.336  0.00  0.00    -0.506 OA
ATOM     26  H   LIG    1        4.205   2.996  -0.385  0.00  0.00    +0.292 HD
ENDBRANCH   9  25
TORSDOF 6
