REMARK  Name = *****
REMARK                            x       y       z     vdW  Elec       q    Type
REMARK                         _______ _______ _______ _____ _____    ______ ____
ROOT
ATOM      1  C   LIG    1        2.236   0.023  -0.065  0.00  0.00    +0.143 A 
ATOM      2  C   LIG    1        2.934   1.240  -0.075  0.00  0.00    +0.112 A 
ATOM      3  C   LIG    1        4.345   1.172  -0.073  0.00  0.00    +0.004 A 
ATOM      4  C   LIG    1        5.073   2.370  -0.094  0.00  0.00    +0.012 A 
ATOM      5  C   LIG    1        4.404   3.587  -0.120  0.00  0.00    +0.020 A 
ATOM      6  C   LIG    1        3.025   3.565  -0.117  0.00  0.00    +0.111 A 
ATOM      7  C   LIG    1        5.004  -0.071  -0.060  0.00  0.00    +0.010 A 
ATOM      8  C   LIG    1        4.277  -1.259  -0.056  0.00  0.00    +0.004 A 
ATOM      9  N   LIG    1        2.292   2.433  -0.092  0.00  0.00    -0.251 NA
ATOM     10  C   LIG    1        2.888  -1.215  -0.059  0.00  0.00    +0.048 A 
ENDROOT
BRANCH   1  11
ATOM     11  O   LIG    1        0.859   0.044  -0.064  0.00  0.00    -0.505 OA
ATOM     12  H   LIG    1        0.523  -0.864  -0.076  0.00  0.00    +0.292 HD
ENDBRANCH   1  11
TORSDOF 1
