REMARK  Name = *****
REMARK                            x       y       z     vdW  Elec       q    Type
REMARK                         _______ _______ _______ _____ _____    ______ ____
ROOT
ATOM      1  O   LIG    1        1.296   0.115  -0.079  0.00  0.00    +0.000 OA
ATOM      2 SI   LIG    1        2.757   0.245  -0.060  0.00  0.00    +0.000 Si
ENDROOT
BRANCH   2   3
ATOM      3  O   LIG    1        3.287  -0.339  -1.510  0.00  0.00    +0.000 OA
ATOM      4  H   LIG    1        2.546  -0.450  -2.125  0.00  0.00    +0.000 HD
ENDBRANCH   2   3
BRANCH   2   5
ATOM      5  O   LIG    1        3.287  -0.724   1.167  0.00  0.00    +0.000 OA
ATOM      6  H   LIG    1        2.546  -1.003   1.725  0.00  0.00    +0.000 HD
ENDBRANCH   2   5
TORSDOF 2
