REMARK  Name = *****
REMARK                            x       y       z     vdW  Elec       q    Type
REMARK                         _______ _______ _______ _____ _____    ______ ____
ROOT
ATOM      1  C   LIG    1        1.048  -3.518   3.744  0.00  0.00    +0.182 C 
ATOM      2  C   LIG    1        0.489  -3.581   5.187  0.00  0.00    +0.163 C 
ATOM      3  C   LIG    1        0.457  -4.965   5.820  0.00  0.00    +0.084 C 
ATOM      4  C   LIG    1        1.857  -5.535   5.784  0.00  0.00    +0.042 C 
ATOM      5  C   LIG    1        2.217  -5.824   4.330  0.00  0.00    +0.084 C 
ATOM      6  C   LIG    1        2.166  -4.572   3.397  0.00  0.00    +0.169 C 
ENDROOT
BRANCH   3   7
ATOM      7  N   LIG    1       -0.053  -4.840   7.197  0.00  0.00    -0.325 NA
ATOM      8  H   LIG    1       -0.127  -5.766   7.622  0.00  0.00    +0.118 HD
ATOM      9  H   LIG    1        0.607  -4.316   7.774  0.00  0.00    +0.118 HD
ENDBRANCH   3   7
BRANCH   5  10
ATOM     10  N   LIG    1        3.552  -6.466   4.340  0.00  0.00    -0.325 NA
ATOM     11  H   LIG    1        3.507  -7.325   4.894  0.00  0.00    +0.118 HD
ATOM     12  H   LIG    1        4.215  -5.859   4.827  0.00  0.00    +0.118 HD
ENDBRANCH   5  10
BRANCH   2  13
ATOM     13  O   LIG    1       -0.863  -3.087   5.223  0.00  0.00    -0.388 OA
ATOM     14  H   LIG    1       -1.222  -3.379   6.085  0.00  0.00    +0.210 HD
ENDBRANCH   2  13
BRANCH   6  15
ATOM     15  O   LIG    1        1.957  -4.954   2.003  0.00  0.00    -0.342 OA
BRANCH  15  16
ATOM     16  C   LIG    1        2.831  -5.952   1.439  0.00  0.00    +0.270 C 
ATOM     17  C   LIG    1        4.321  -5.494   1.451  0.00  0.00    +0.139 C 
ATOM     18  C   LIG    1        5.187  -6.575   0.772  0.00  0.00    +0.167 C 
ATOM     19  C   LIG    1        4.676  -6.868  -0.644  0.00  0.00    +0.175 C 
ATOM     20  C   LIG    1        3.168  -7.192  -0.638  0.00  0.00    +0.178 C 
ATOM     21  O   LIG    1        2.392  -6.212   0.088  0.00  0.00    -0.342 OA
BRANCH  17  22
ATOM     22  N   LIG    1        4.505  -4.149   0.847  0.00  0.00    -0.321 NA
ATOM     23  H   LIG    1        4.670  -4.289  -0.159  0.00  0.00    +0.119 HD
ATOM     24  H   LIG    1        3.592  -3.683   0.882  0.00  0.00    +0.119 HD
ENDBRANCH  17  22
BRANCH  19  25
ATOM     25  O   LIG    1        4.928  -5.716  -1.469  0.00  0.00    -0.387 OA
ATOM     26  H   LIG    1        4.548  -5.892  -2.349  0.00  0.00    +0.210 HD
ENDBRANCH  19  25
BRANCH  18  27
ATOM     27  O   LIG    1        5.194  -7.786   1.540  0.00  0.00    -0.387 OA
ATOM     28  H   LIG    1        5.386  -7.546   2.466  0.00  0.00    +0.210 HD
ENDBRANCH  18  27
BRANCH  20  29
ATOM     29  C   LIG    1        2.874  -8.631  -0.173  0.00  0.00    +0.190 C 
BRANCH  29  30
ATOM     30  O   LIG    1        1.509  -8.964  -0.430  0.00  0.00    -0.392 OA
ATOM     31  H   LIG    1        0.974  -8.238  -0.055  0.00  0.00    +0.209 HD
ENDBRANCH  29  30
ENDBRANCH  20  29
ENDBRANCH  15  16
ENDBRANCH   6  15
BRANCH   1  32
ATOM     32  O   LIG    1        1.657  -2.211   3.515  0.00  0.00    -0.340 OA
BRANCH  32  35
ATOM     33  C   LIG    1        1.431   0.613   2.333  0.00  0.00    +0.186 C 
ATOM     34  C   LIG    1        1.615   0.167   3.791  0.00  0.00    +0.202 C 
ATOM     35  C   LIG    1        0.796  -1.111   3.800  0.00  0.00    +0.282 C 
ATOM     36  O   LIG    1       -0.235  -0.969   2.811  0.00  0.00    -0.341 OA
ATOM     37  C   LIG    1       -0.049   0.300   2.140  0.00  0.00    +0.178 C 
BRANCH  34  38
ATOM     38  O   LIG    1        1.004   0.983   4.804  0.00  0.00    -0.384 OA
ATOM     39  H   LIG    1        1.517   1.819   4.752  0.00  0.00    +0.210 HD
ENDBRANCH  34  38
BRANCH  33  40
ATOM     40  O   LIG    1        1.954   1.872   1.897  0.00  0.00    -0.341 OA
BRANCH  40  45
ATOM     41  C   LIG    1        1.666   4.279   4.498  0.00  0.00    +0.166 C 
ATOM     42  C   LIG    1        3.021   4.891   4.123  0.00  0.00    +0.175 C 
ATOM     43  C   LIG    1        3.330   4.669   2.614  0.00  0.00    +0.167 C 
ATOM     44  C   LIG    1        2.046   4.332   1.813  0.00  0.00    +0.139 C 
ATOM     45  C   LIG    1        1.391   3.058   2.456  0.00  0.00    +0.270 C 
ATOM     46  O   LIG    1        1.658   3.010   3.851  0.00  0.00    -0.343 OA
BRANCH  44  47
ATOM     47  N   LIG    1        2.289   4.247   0.358  0.00  0.00    -0.321 NA
ATOM     48  H   LIG    1        2.984   4.964   0.128  0.00  0.00    +0.119 HD
ATOM     49  H   LIG    1        2.734   3.351   0.153  0.00  0.00    +0.119 HD
ENDBRANCH  44  47
BRANCH  43  50
ATOM     50  O   LIG    1        3.966   5.840   2.083  0.00  0.00    -0.387 OA
ATOM     51  H   LIG    1        4.732   6.021   2.663  0.00  0.00    +0.210 HD
ENDBRANCH  43  50
BRANCH  42  52
ATOM     52  O   LIG    1        4.088   4.268   4.866  0.00  0.00    -0.387 OA
ATOM     53  H   LIG    1        4.009   3.311   4.730  0.00  0.00    +0.210 HD
ENDBRANCH  42  52
BRANCH  41  54
ATOM     54  C   LIG    1        1.467   4.031   6.009  0.00  0.00    +0.112 C 
BRANCH  54  55
ATOM     55  N   LIG    1        0.165   3.404   6.290  0.00  0.00    -0.328 NA
ATOM     56  H   LIG    1        0.075   2.513   5.783  0.00  0.00    +0.118 HD
ATOM     57  H   LIG    1        0.123   3.138   7.274  0.00  0.00    +0.118 HD
ENDBRANCH  54  55
ENDBRANCH  41  54
ENDBRANCH  40  45
ENDBRANCH  33  40
BRANCH  37  58
ATOM     58  C   LIG    1       -0.493   0.161   0.689  0.00  0.00    +0.190 C 
BRANCH  58  59
ATOM     59  O   LIG    1       -1.911  -0.025   0.644  0.00  0.00    -0.392 OA
ATOM     60  H   LIG    1       -2.158  -0.152  -0.287  0.00  0.00    +0.209 HD
ENDBRANCH  58  59
ENDBRANCH  37  58
ENDBRANCH  32  35
ENDBRANCH   1  32
TORSDOF 22
