REMARK  Name = *****
REMARK                            x       y       z     vdW  Elec       q    Type
REMARK                         _______ _______ _______ _____ _____    ______ ____
ROOT
ATOM      1  SG  CYS A  1        7.414  -3.457  -5.019  0.00  0.00    -0.091 S 
ENDROOT
BRANCH   1   2
ATOM      2  CB  CYS A  1        9.151  -3.536  -4.450  0.00  0.00    +0.111 C 
BRANCH   2   3
ATOM      3  CA  CYS A  1       10.144  -3.442  -5.611  0.00  0.00    +0.171 C 
BRANCH   3   4
ATOM      4  N   CYS A  1       10.003  -4.570  -6.595  0.00  0.00    -0.318 NA
ATOM      5  H1  CYS A  1        9.810  -5.438  -6.084  0.00  0.00    +0.119 HD
ATOM      6  H2  CYS A  1        9.121  -4.402  -7.097  0.00  0.00    +0.119 HD
ENDBRANCH   3   4
BRANCH   3   7
ATOM      7  C   CYS A  1       11.564  -3.474  -5.032  0.00  0.00    +0.323 C 
ATOM      8  O   CYS A  1       11.979  -2.730  -4.151  0.00  0.00    -0.249 OA
BRANCH   7   9
ATOM      9  OXT CYS A  1       12.321  -4.446  -5.599  0.00  0.00    -0.479 OA
ATOM     10  HXT CYS A  1       11.770  -4.841  -6.320  0.00  0.00    +0.295 HD
ENDBRANCH   7   9
ENDBRANCH   3   7
ENDBRANCH   2   3
ENDBRANCH   1   2
BRANCH   1  11
ATOM     11  SG  CYS A  1        6.394  -3.626  -3.237  0.00  0.00    -0.091 S 
BRANCH  11  12
ATOM     12  CB  CYS A  1        6.882  -5.310  -2.707  0.00  0.00    +0.111 C 
BRANCH  12  13
ATOM     13  CA  CYS A  1        6.253  -5.705  -1.369  0.00  0.00    +0.171 C 
BRANCH  13  14
ATOM     14  N   CYS A  1        6.669  -4.776  -0.278  0.00  0.00    -0.318 NA
ATOM     15  H1  CYS A  1        5.971  -4.854   0.470  0.00  0.00    +0.119 HD
ATOM     16  H2  CYS A  1        6.546  -3.820  -0.632  0.00  0.00    +0.119 HD
ENDBRANCH  13  14
BRANCH  13  17
ATOM     17  C   CYS A  1        6.740  -7.118  -1.015  0.00  0.00    +0.323 C 
ATOM     18  O   CYS A  1        6.239  -8.143  -1.419  0.00  0.00    -0.249 OA
BRANCH  17  19
ATOM     19  OXT CYS A  1        7.854  -7.088  -0.231  0.00  0.00    -0.479 OA
ATOM     20  HXT CYS A  1        8.018  -6.149   0.022  0.00  0.00    +0.295 HD
ENDBRANCH  17  19
ENDBRANCH  13  17
ENDBRANCH  12  13
ENDBRANCH  11  12
ENDBRANCH   1  11
TORSDOF 11
