REMARK  Name = *****
REMARK                            x       y       z     vdW  Elec       q    Type
REMARK                         _______ _______ _______ _____ _____    ______ ____
ROOT
ATOM      1  C   LIG    1       -0.917   0.047  -0.072  0.00  0.00    +0.011 C 
ATOM      2  C   LIG    1       -2.449   0.046  -0.070  0.00  0.00    -0.030 C 
ATOM      3  C   LIG    1       -2.982   1.487  -0.248  0.00  0.00    +0.013 C 
ATOM      4  C   LIG    1       -4.528   1.505  -0.252  0.00  0.00    -0.030 C 
ATOM      5  C   LIG    1       -5.039   2.937  -0.432  0.00  0.00    +0.011 C 
ATOM      6  C   LIG    1       -5.033   0.608  -1.405  0.00  0.00    +0.010 C 
ATOM      7  C   LIG    1       -4.522  -0.831  -1.229  0.00  0.00    -0.008 C 
ATOM      8  C   LIG    1       -5.033  -1.393   0.107  0.00  0.00    +0.025 C 
ATOM      9  C   LIG    1       -4.524  -0.523   1.276  0.00  0.00    +0.018 C 
ATOM     10  C   LIG    1       -5.034   0.922   1.089  0.00  0.00    +0.028 C 
ATOM     11  C   LIG    1       -2.981  -0.518   1.268  0.00  0.00    +0.028 C 
ATOM     12  C   LIG    1       -2.985  -0.828  -1.226  0.00  0.00    +0.010 C 
ENDROOT
BRANCH   9  13
ATOM     13  N   LIG    1       -5.007  -1.052   2.551  0.00  0.00    -0.325 NA
ATOM     14  H   LIG    1       -6.026  -1.082   2.550  0.00  0.00    +0.119 HD
ATOM     15  H   LIG    1       -4.695  -2.016   2.666  0.00  0.00    +0.119 HD
ENDBRANCH   9  13
TORSDOF 1
