REMARK  Name = *****
REMARK                            x       y       z     vdW  Elec       q    Type
REMARK                         _______ _______ _______ _____ _____    ______ ____
ROOT
ATOM      1  C   LIG    1        1.001   0.322   0.750  0.00  0.00    +0.064 C 
ATOM      2  C   LIG    1        2.440   0.165   0.335  0.00  0.00    +0.024 C 
ATOM      3  C   LIG    1        3.045  -0.987  -0.039  0.00  0.00    +0.003 C 
ATOM      4  C   LIG    1        4.463  -0.951  -0.386  0.00  0.00    +0.034 C 
ATOM      5  C   LIG    1        5.188   0.181  -0.351  0.00  0.00    +0.117 C 
ATOM      6  C   LIG    1        4.510   1.441   0.048  0.00  0.00    +0.266 C 
ATOM      7  O   LIG    1        5.090   2.520   0.102  0.00  0.00    -0.267 OA
ATOM      8  N   LIG    1        3.177   1.334   0.364  0.00  0.00    -0.325 N 
ATOM      9  H   LIG    1        2.733   2.203   0.641  0.00  0.00    +0.169 HD
ENDROOT
BRANCH   3  10
ATOM     10  C   LIG    1        2.299  -2.259  -0.093  0.00  0.00    -0.013 A 
ATOM     11  C   LIG    1        1.482  -2.557  -1.185  0.00  0.00    +0.028 A 
ATOM     12  C   LIG    1        0.816  -3.770  -1.192  0.00  0.00    +0.111 A 
ATOM     13  N   LIG    1        0.916  -4.686  -0.206  0.00  0.00    -0.263 NA
ATOM     14  C   LIG    1        1.721  -4.380   0.834  0.00  0.00    +0.111 A 
ATOM     15  C   LIG    1        2.427  -3.193   0.936  0.00  0.00    +0.028 A 
ENDBRANCH   3  10
BRANCH   5  16
ATOM     16  C   LIG    1        6.559   0.190  -0.661  0.00  0.00    +0.105 C 
ATOM     17  N   LIG    1        7.682   0.197  -0.915  0.00  0.00    -0.191 NA
ENDBRANCH   5  16
TORSDOF 2
