REMARK  Name = *****
REMARK                            x       y       z     vdW  Elec       q    Type
REMARK                         _______ _______ _______ _____ _____    ______ ____
ROOT
ATOM      1  C   LIG    1      -16.518   5.326   5.326  0.00  0.00    +0.159 C 
ATOM      2  C   LIG    1      -16.835   4.253   4.240  0.00  0.00    +0.237 C 
ATOM      3  O   LIG    1      -16.381   4.375   3.094  0.00  0.00    -0.274 OA
ATOM      4  N   LIG    1      -17.441   3.065   4.635  0.00  0.00    -0.285 N 
ATOM      5  C   LIG    1      -17.455   1.910   3.740  0.00  0.00    +0.166 C 
ATOM      6  C   LIG    1      -17.929   0.750   4.604  0.00  0.00    +0.078 C 
ATOM      7  C   LIG    1      -18.695   1.383   5.764  0.00  0.00    +0.195 C 
ATOM      8  C   LIG    1      -16.027   1.585   3.268  0.00  0.00    +0.234 C 
ATOM      9  O   LIG    1      -15.061   1.972   3.919  0.00  0.00    -0.274 OA
ATOM     10  N   LIG    1      -15.936   0.797   2.140  0.00  0.00    -0.299 N 
ATOM     11  H   LIG    1      -16.793   0.422   1.744  0.00  0.00    +0.150 HD
ATOM     12  C   LIG    1      -14.767   0.754   1.256  0.00  0.00    +0.119 C 
ATOM     13  C   LIG    1      -13.294   0.795   1.677  0.00  0.00    +0.046 C 
ATOM     14  C   LIG    1      -12.769   0.946   3.044  0.00  0.00    -0.025 C 
ATOM     15  C   LIG    1      -12.152   2.041   3.529  0.00  0.00    -0.031 C 
ATOM     16  C   LIG    1      -11.538   2.128   4.901  0.00  0.00    +0.027 C 
ATOM     17  C   LIG    1      -11.770   3.446   5.665  0.00  0.00    +0.004 C 
ATOM     18  C   LIG    1      -13.163   3.592   6.295  0.00  0.00    +0.000 C 
ATOM     19  C   LIG    1      -14.025   4.691   5.650  0.00  0.00    +0.002 C 
ATOM     20  C   LIG    1      -13.925  -0.525   1.339  0.00  0.00    +0.046 C 
ATOM     21  C   LIG    1      -18.271   2.849   5.803  0.00  0.00    +0.153 C 
ATOM     22  C   LIG    1      -15.441   4.718   6.266  0.00  0.00    +0.032 C 
ENDROOT
BRANCH   1  24
ATOM     23  C   LIG    1      -18.775   6.372   5.377  0.00  0.00    +0.265 C 
ATOM     24  N   LIG    1      -17.721   5.763   6.052  0.00  0.00    -0.299 N 
ATOM     25  H   LIG    1      -17.644   6.029   7.030  0.00  0.00    +0.150 HD
ATOM     26  O   LIG    1      -18.811   6.520   4.161  0.00  0.00    -0.269 OA
BRANCH  23  31
ATOM     27  C   LIG    1      -23.244   7.737   8.631  0.00  0.00    +0.067 C 
ATOM     28  C   LIG    1      -22.079   7.416   7.743  0.00  0.00    +0.056 A 
ATOM     29  N   LIG    1      -22.318   7.116   6.442  0.00  0.00    -0.256 NA
ATOM     30  C   LIG    1      -21.221   6.814   5.691  0.00  0.00    +0.144 A 
ATOM     31  C   LIG    1      -19.936   6.785   6.223  0.00  0.00    +0.143 A 
ATOM     32  N   LIG    1      -19.686   7.054   7.532  0.00  0.00    -0.247 NA
ATOM     33  C   LIG    1      -20.785   7.380   8.262  0.00  0.00    +0.134 A 
ENDBRANCH  23  31
ENDBRANCH   1  24
BRANCH  12  34
ATOM     34  C   LIG    1      -15.058   1.223  -0.175  0.00  0.00    +0.256 C 
ATOM     35  N   LIG    1      -15.600   2.511  -0.338  0.00  0.00    -0.188 N 
ATOM     36  H   LIG    1      -15.392   3.214   0.373  0.00  0.00    +0.176 HD
ATOM     37  O   LIG    1      -14.859   0.453  -1.112  0.00  0.00    -0.272 OA
BRANCH  35  38
ATOM     38  S   LIG    1      -15.890   3.063  -1.899  0.00  0.00    +0.048 S 
ATOM     39  O   LIG    1      -16.699   2.090  -2.580  0.00  0.00    -0.155 OA
ATOM     40  O   LIG    1      -14.612   3.521  -2.422  0.00  0.00    -0.155 OA
BRANCH  38  41
ATOM     41  C   LIG    1      -16.972   4.518  -1.767  0.00  0.00    +0.151 C 
ATOM     42  C   LIG    1      -16.362   5.820  -2.210  0.00  0.00    +0.030 C 
ATOM     43  C   LIG    1      -17.379   5.142  -3.084  0.00  0.00    +0.030 C 
ENDBRANCH  38  41
ENDBRANCH  35  38
ENDBRANCH  12  34
BRANCH   7  44
ATOM     44  O   LIG    1      -18.293   0.760   6.989  0.00  0.00    -0.471 OA
BRANCH  44  45
ATOM     45  C   LIG    1      -19.051  -0.343   7.316  0.00  0.00    +0.224 A 
ATOM     46  C   LIG    1      -18.462  -1.351   8.087  0.00  0.00    +0.044 A 
ATOM     47  C   LIG    1      -19.271  -2.461   8.413  0.00  0.00    -0.004 A 
ATOM     48  C   LIG    1      -18.659  -3.511   9.143  0.00  0.00    +0.009 A 
ATOM     49  C   LIG    1      -17.325  -3.450   9.561  0.00  0.00    +0.001 A 
ATOM     50  C   LIG    1      -16.557  -2.334   9.266  0.00  0.00    +0.001 A 
ATOM     51  C   LIG    1      -20.648  -2.461   8.001  0.00  0.00    +0.008 A 
ATOM     52  C   LIG    1      -21.108  -1.361   7.246  0.00  0.00    +0.075 A 
ATOM     53  C   LIG    1      -22.430  -1.298   6.834  0.00  0.00    +0.028 A 
ATOM     54  C   LIG    1      -23.343  -2.297   7.156  0.00  0.00    +0.002 A 
ATOM     55  C   LIG    1      -22.922  -3.387   7.900  0.00  0.00    +0.001 A 
ATOM     56  C   LIG    1      -21.591  -3.473   8.312  0.00  0.00    +0.010 A 
ATOM     57  C   LIG    1      -17.118  -1.295   8.528  0.00  0.00    +0.014 A 
ATOM     58  N   LIG    1      -20.331  -0.340   6.903  0.00  0.00    -0.212 NA
ENDBRANCH  44  45
ENDBRANCH   7  44
TORSDOF 7
