REMARK  Name = *****
REMARK                            x       y       z     vdW  Elec       q    Type
REMARK                         _______ _______ _______ _____ _____    ______ ____
ROOT
ATOM      1  C   LIG    1        4.177   2.294  -0.221  0.00  0.00    +0.053 C 
ENDROOT
BRANCH   1   2
ATOM      2  C   LIG    1        4.646   3.728  -0.127  0.00  0.00    -0.046 A 
ATOM      3  C   LIG    1        4.883   4.473  -1.293  0.00  0.00    +0.003 A 
ATOM      4  C   LIG    1        5.349   5.786  -1.211  0.00  0.00    +0.000 A 
ATOM      5  C   LIG    1        5.588   6.366   0.031  0.00  0.00    +0.000 A 
ATOM      6  C   LIG    1        5.346   5.639   1.197  0.00  0.00    +0.000 A 
ATOM      7  C   LIG    1        4.873   4.327   1.117  0.00  0.00    +0.003 A 
ENDBRANCH   1   2
BRANCH   1   8
ATOM      8  C   LIG    1        2.640   2.105  -0.168  0.00  0.00    +0.055 C 
ATOM      9  C   LIG    1        1.957   2.787  -1.364  0.00  0.00    +0.024 C 
BRANCH   8  11
ATOM     10  C   LIG    1        2.655  -0.072   0.973  0.00  0.00    +0.101 C 
ATOM     11  N   LIG    1        2.252   0.678  -0.210  0.00  0.00    -0.316 NA
ATOM     12  H   LIG    1        1.236   0.616  -0.294  0.00  0.00    +0.122 HD
ENDBRANCH   8  11
ENDBRANCH   1   8
TORSDOF 3
