REMARK  Name = *****
REMARK                            x       y       z     vdW  Elec       q    Type
REMARK                         _______ _______ _______ _____ _____    ______ ____
ROOT
ATOM      1  C   LIG    1        4.504  -0.584  -0.712  0.00  0.00    +0.140 C 
ATOM      2  C   LIG    1        4.721  -2.055  -0.361  0.00  0.00    +0.239 C 
ATOM      3  O   LIG    1        4.686  -2.460   0.803  0.00  0.00    -0.274 OA
ATOM      4  N   LIG    1        4.895  -2.922  -1.434  0.00  0.00    -0.228 N 
ATOM      5  C   LIG    1        4.904  -4.345  -1.148  0.00  0.00    +0.143 C 
ATOM      6  C   LIG    1        5.389  -2.523  -2.658  0.00  0.00    +0.315 C 
ATOM      7  O   LIG    1        5.838  -3.293  -3.504  0.00  0.00    -0.252 OA
ATOM      8  N   LIG    1        5.455  -1.182  -2.885  0.00  0.00    -0.239 N 
ATOM      9  H   LIG    1        5.981  -0.921  -3.708  0.00  0.00    +0.159 HD
ATOM     10  C   LIG    1        5.348  -0.216  -1.926  0.00  0.00    +0.237 C 
ATOM     11  O   LIG    1        5.875   0.874  -2.128  0.00  0.00    -0.274 OA
ENDROOT
BRANCH   1  12
ATOM     12  C   LIG    1        4.831   0.319   0.524  0.00  0.00    +0.085 C 
ATOM     13  C   LIG    1        6.295   0.218   0.987  0.00  0.00    +0.023 C 
BRANCH  12  14
ATOM     14  C   LIG    1        4.510   1.747   0.281  0.00  0.00    -0.098 C 
ATOM     15  C   LIG    1        4.313   2.898   0.009  0.00  0.00    -0.102 C 
BRANCH  15  16
ATOM     16  C   LIG    1        4.137   4.293  -0.417  0.00  0.00    +0.085 C 
ATOM     17  C   LIG    1        4.994   4.594  -1.637  0.00  0.00    +0.017 C 
ENDBRANCH  15  16
ENDBRANCH  12  14
ENDBRANCH   1  12
BRANCH   1  18
ATOM     18  C   LIG    1        3.011  -0.453  -1.162  0.00  0.00    +0.053 C 
BRANCH  18  20
ATOM     19  C   LIG    1        1.087  -1.819  -0.289  0.00  0.00    +0.004 C 
ATOM     20  C   LIG    1        1.983  -0.837  -0.125  0.00  0.00    -0.033 C 
ENDBRANCH  18  20
ENDBRANCH   1  18
TORSDOF 5
