REMARK  Name = *****
REMARK                            x       y       z     vdW  Elec       q    Type
REMARK                         _______ _______ _______ _____ _____    ______ ____
ROOT
ATOM      1  C   LIG    1        6.710  -0.195  -0.946  0.00  0.00    +0.170 C 
ENDROOT
BRANCH   1   7
ATOM      2 CL   LIG    1        1.458   0.677   1.930  0.00  0.00    -0.084 Cl
ATOM      3  C   LIG    1        2.949   0.411   1.113  0.00  0.00    +0.042 A 
ATOM      4  C   LIG    1        3.969  -0.287   1.751  0.00  0.00    +0.040 A 
ATOM      5  C   LIG    1        5.190  -0.481   1.102  0.00  0.00    +0.048 A 
ATOM      6 CL   LIG    1        6.450  -1.236   2.013  0.00  0.00    -0.083 Cl
ATOM      7  C   LIG    1        5.388  -0.022  -0.214  0.00  0.00    +0.001 A 
ATOM      8  C   LIG    1        4.340   0.688  -0.836  0.00  0.00    +0.009 A 
ATOM      9  C   LIG    1        3.132   0.910  -0.172  0.00  0.00    +0.020 A 
ENDBRANCH   1   7
BRANCH   1  10
ATOM     10  O   LIG    1        7.214   1.109  -1.315  0.00  0.00    -0.365 OA
BRANCH  10  11
ATOM     11  C   LIG    1        7.561   1.919  -0.177  0.00  0.00    +0.197 C 
BRANCH  11  12
ATOM     12  C   LIG    1        8.098   3.261  -0.583  0.00  0.00    -0.007 A 
ATOM     13  C   LIG    1        9.037   4.037   0.206  0.00  0.00    -0.004 A 
ATOM     14  C   LIG    1        9.626   3.756   1.468  0.00  0.00    +0.009 A 
ATOM     15  C   LIG    1       10.558   4.624   2.041  0.00  0.00    +0.002 A 
ATOM     16  C   LIG    1       10.918   5.788   1.381  0.00  0.00    +0.021 A 
ATOM     17  C   LIG    1       10.343   6.110   0.149  0.00  0.00    +0.055 A 
ATOM     18 CL   LIG    1       10.823   7.575  -0.626  0.00  0.00    -0.082 Cl
ATOM     19  C   LIG    1        9.398   5.234  -0.432  0.00  0.00    +0.038 A 
ATOM     20  S   LIG    1        8.546   5.412  -1.923  0.00  0.00    -0.095 S 
ATOM     21  C   LIG    1        7.741   3.928  -1.737  0.00  0.00    +0.052 A 
ENDBRANCH  11  12
ENDBRANCH  10  11
ENDBRANCH   1  10
BRANCH   1  22
ATOM     22  C   LIG    1        6.587  -1.039  -2.236  0.00  0.00    +0.159 C 
BRANCH  22  23
ATOM     23  N   LIG    1        6.145  -2.406  -2.047  0.00  0.00    -0.334 N 
ATOM     24  C   LIG    1        4.851  -2.849  -2.089  0.00  0.00    +0.199 A 
ATOM     25  N   LIG    1        4.788  -4.160  -2.083  0.00  0.00    -0.244 NA
ATOM     26  C   LIG    1        6.082  -4.585  -2.017  0.00  0.00    +0.130 A 
ATOM     27  C   LIG    1        6.941  -3.515  -1.958  0.00  0.00    +0.107 A 
ENDBRANCH  22  23
ENDBRANCH   1  22
TORSDOF 6
