REMARK  Name = *****
REMARK                            x       y       z     vdW  Elec       q    Type
REMARK                         _______ _______ _______ _____ _____    ______ ____
ROOT
ATOM      1  N   LIG    1        7.133  -0.514  -2.100  0.00  0.00    -0.322 N 
ATOM      2  C   LIG    1        8.284  -0.589  -1.365  0.00  0.00    +0.151 A 
ATOM      3  C   LIG    1        8.720   0.117  -0.204  0.00  0.00    +0.282 C 
ATOM      4  N   LIG    1       10.008  -0.246   0.199  0.00  0.00    -0.262 N 
ATOM      5  C   LIG    1       10.772  -1.296  -0.346  0.00  0.00    +0.333 C 
ATOM      6  N   LIG    1       10.239  -1.965  -1.449  0.00  0.00    -0.280 N 
ATOM      7  C   LIG    1       10.946  -3.084  -2.047  0.00  0.00    +0.155 C 
ATOM      8  O   LIG    1       11.857  -1.615   0.149  0.00  0.00    -0.246 OA
ATOM      9  C   LIG    1       10.582   0.451   1.333  0.00  0.00    +0.157 C 
ATOM     10  O   LIG    1        8.019   0.921   0.382  0.00  0.00    -0.265 OA
ATOM     11  C   LIG    1        9.020  -1.575  -1.947  0.00  0.00    +0.168 A 
ATOM     12  N   LIG    1        8.388  -2.110  -3.026  0.00  0.00    -0.218 NA
ATOM     13  C   LIG    1        7.265  -1.429  -3.122  0.00  0.00    +0.202 A 
ENDROOT
BRANCH   1  14
ATOM     14  C   LIG    1        5.983   0.354  -1.886  0.00  0.00    +0.156 C 
BRANCH  14  15
ATOM     15  C   LIG    1        4.869  -0.268  -1.009  0.00  0.00    +0.148 C 
BRANCH  15  16
ATOM     16  O   LIG    1        4.430  -1.471  -1.652  0.00  0.00    -0.389 OA
ATOM     17  H   LIG    1        5.153  -2.122  -1.622  0.00  0.00    +0.210 HD
ENDBRANCH  15  16
BRANCH  15  18
ATOM     18  C   LIG    1        5.293  -0.458   0.488  0.00  0.00    +0.117 C 
BRANCH  18  20
ATOM     19  C   LIG    1        3.812  -2.315   1.094  0.00  0.00    +0.105 C 
ATOM     20  N   LIG    1        4.292  -0.975   1.460  0.00  0.00    -0.301 NA
BRANCH  20  21
ATOM     21  C   LIG    1        4.858  -1.068   2.837  0.00  0.00    +0.112 C 
BRANCH  21  22
ATOM     22  C   LIG    1        5.383   0.228   3.489  0.00  0.00    +0.171 C 
BRANCH  22  23
ATOM     23  O   LIG    1        4.397   1.251   3.577  0.00  0.00    -0.394 OA
ATOM     24  H   LIG    1        3.526   0.834   3.457  0.00  0.00    +0.209 HD
ENDBRANCH  22  23
ENDBRANCH  21  22
ENDBRANCH  20  21
ENDBRANCH  18  20
ENDBRANCH  15  18
ENDBRANCH  14  15
ENDBRANCH   1  14
TORSDOF 8
