REMARK  Name = *****
REMARK                            x       y       z     vdW  Elec       q    Type
REMARK                         _______ _______ _______ _____ _____    ______ ____
ROOT
ATOM      1  C   LIG    1        6.194  -5.643  -3.733  0.00  0.00    +0.127 A 
ATOM      2  C   LIG    1        5.985  -6.846  -3.030  0.00  0.00    +0.013 A 
ATOM      3  C   LIG    1        5.166  -6.827  -1.770  0.00  0.00    +0.049 C 
ATOM      4  C   LIG    1        6.571  -8.021  -3.535  0.00  0.00    +0.060 A 
ATOM      5  N   LIG    1        7.328  -8.018  -4.669  0.00  0.00    -0.259 NA
ATOM      6  C   LIG    1        7.467  -6.855  -5.336  0.00  0.00    +0.114 A 
ATOM      7  C   LIG    1        6.898  -5.666  -4.933  0.00  0.00    +0.065 A 
ENDROOT
BRANCH   1   8
ATOM      8  O   LIG    1        5.652  -4.493  -3.194  0.00  0.00    -0.491 OA
BRANCH   8   9
ATOM      9  C   LIG    1        6.247  -3.264  -3.634  0.00  0.00    +0.231 C 
BRANCH   9  10
ATOM     10  C   LIG    1        5.673  -2.064  -2.882  0.00  0.00    +0.069 C 
BRANCH  10  11
ATOM     11  C   LIG    1        4.183  -1.897  -3.156  0.00  0.00    +0.163 C 
BRANCH  11  13
ATOM     12  C   LIG    1        2.310  -0.534  -2.788  0.00  0.00    +0.193 C 
ATOM     13  O   LIG    1        3.692  -0.728  -2.497  0.00  0.00    -0.383 OA
ENDBRANCH  11  13
ENDBRANCH  10  11
ENDBRANCH   9  10
ENDBRANCH   8   9
ENDBRANCH   1   8
BRANCH   4  14
ATOM     14  C   LIG    1        6.316  -9.395  -2.950  0.00  0.00    +0.167 C 
BRANCH  14  15
ATOM     15  S   LIG    1        7.090  -9.706  -1.347  0.00  0.00    +0.095 S 
ATOM     16  O   LIG    1        6.717  -8.758  -0.253  0.00  0.00    -0.249 OA
BRANCH  15  17
ATOM     17  C   LIG    1        6.277 -11.176  -0.940  0.00  0.00    +0.198 A 
ATOM     18  N   LIG    1        5.887 -11.480   0.346  0.00  0.00    -0.331 N 
ATOM     19  H   LIG    1        5.973 -10.836   1.124  0.00  0.00    +0.168 HD
ATOM     20  C   LIG    1        5.556 -12.794   0.373  0.00  0.00    +0.067 A 
ATOM     21  C   LIG    1        5.585 -13.192  -0.959  0.00  0.00    +0.090 A 
ATOM     22  C   LIG    1        5.260 -14.514  -1.295  0.00  0.00    +0.030 A 
ATOM     23  C   LIG    1        4.995 -15.418  -0.258  0.00  0.00    +0.002 A 
ATOM     24  C   LIG    1        5.009 -15.007   1.076  0.00  0.00    +0.002 A 
ATOM     25  C   LIG    1        5.266 -13.672   1.426  0.00  0.00    +0.028 A 
ATOM     26  N   LIG    1        6.016 -12.172  -1.769  0.00  0.00    -0.220 NA
ENDBRANCH  15  17
ENDBRANCH  14  15
ENDBRANCH   4  14
TORSDOF 8
