REMARK  Name = *****
REMARK                            x       y       z     vdW  Elec       q    Type
REMARK                         _______ _______ _______ _____ _____    ______ ____
ROOT
ATOM      1  C   LIG    1        9.437  -1.348  -3.949  0.00  0.00    +0.200 C 
ENDROOT
BRANCH   1   4
ATOM      2  N   LIG    1        8.285  -1.138  -1.792  0.00  0.00    -0.305 N 
ATOM      3  H   LIG    1        8.092  -2.128  -1.901  0.00  0.00    +0.149 HD
ATOM      4  C   LIG    1        9.046  -0.495  -2.741  0.00  0.00    +0.231 C 
ATOM      5  O   LIG    1        9.467   0.649  -2.575  0.00  0.00    -0.274 OA
BRANCH   2   6
ATOM      6  C   LIG    1        7.878  -0.495  -0.547  0.00  0.00    +0.200 C 
BRANCH   6   9
ATOM      7  N   LIG    1       10.221  -0.730   0.163  0.00  0.00    -0.304 N 
ATOM      8  H   LIG    1       10.430  -0.440  -0.787  0.00  0.00    +0.149 HD
ATOM      9  C   LIG    1        8.909  -0.647   0.579  0.00  0.00    +0.231 C 
ATOM     10  O   LIG    1        8.591  -0.629   1.765  0.00  0.00    -0.274 OA
BRANCH   7  11
ATOM     11  C   LIG    1       11.323  -0.809   1.111  0.00  0.00    +0.224 C 
BRANCH  11  13
ATOM     12  O   LIG    1       12.647  -2.586   2.104  0.00  0.00    -0.249 OA
ATOM     13  C   LIG    1       11.733  -2.256   1.347  0.00  0.00    +0.322 C 
BRANCH  13  14
ATOM     14  O   LIG    1       11.043  -3.163   0.622  0.00  0.00    -0.479 OA
ATOM     15  H   LIG    1       10.399  -2.694   0.045  0.00  0.00    +0.295 HD
ENDBRANCH  13  14
ENDBRANCH  11  13
ENDBRANCH   7  11
ENDBRANCH   6   9
ENDBRANCH   2   6
ENDBRANCH   1   4
BRANCH   1  16
ATOM     16  N   LIG    1       10.881  -1.420  -4.060  0.00  0.00    -0.306 N 
ATOM     17  H   LIG    1       11.356  -0.731  -4.630  0.00  0.00    +0.149 HD
ATOM     18  C   LIG    1       11.596  -2.403  -3.406  0.00  0.00    +0.224 C 
ATOM     19  O   LIG    1       11.049  -3.181  -2.627  0.00  0.00    -0.275 OA
BRANCH  18  20
ATOM     20  C   LIG    1       13.097  -2.363  -3.676  0.00  0.00    +0.173 C 
BRANCH  20  21
ATOM     21  S   LIG    1       13.847  -4.010  -3.703  0.00  0.00    -0.074 S 
BRANCH  21  22
ATOM     22  C   LIG    1       12.982  -4.682  -5.076  0.00  0.00    +0.220 C 
ATOM     23  O   LIG    1       11.872  -4.264  -5.393  0.00  0.00    -0.280 OA
BRANCH  22  24
ATOM     24  C   LIG    1       13.642  -5.725  -5.907  0.00  0.00    +0.028 A 
ATOM     25  C   LIG    1       14.937  -6.206  -5.672  0.00  0.00    +0.012 A 
ATOM     26  C   LIG    1       15.499  -7.154  -6.530  0.00  0.00    +0.001 A 
ATOM     27  C   LIG    1       14.774  -7.631  -7.622  0.00  0.00    +0.000 A 
ATOM     28  C   LIG    1       13.485  -7.164  -7.862  0.00  0.00    +0.001 A 
ATOM     29  C   LIG    1       12.922  -6.216  -7.009  0.00  0.00    +0.012 A 
ENDBRANCH  22  24
ENDBRANCH  21  22
ENDBRANCH  20  21
ENDBRANCH  18  20
ENDBRANCH   1  16
TORSDOF 11
