REMARK  Name = *****
REMARK                            x       y       z     vdW  Elec       q    Type
REMARK                         _______ _______ _______ _____ _____    ______ ____
ROOT
ATOM      1  N   LIG    1        8.738  -1.521  -2.676  0.00  0.00    -0.075 NA
ATOM      2  C   LIG    1        9.551  -2.493  -2.484  0.00  0.00    +0.313 C 
ENDROOT
BRANCH   1   3
ATOM      3  S   LIG    1        8.476  -0.969  -4.176  0.00  0.00    +0.103 S 
ATOM      4  O   LIG    1        7.930  -2.039  -4.994  0.00  0.00    -0.146 OA
ATOM      5  O   LIG    1        7.743   0.279  -4.069  0.00  0.00    -0.146 OA
BRANCH   3  10
ATOM      6  C   LIG    1       13.671   0.883  -6.707  0.00  0.00    +0.044 C 
ATOM      7  C   LIG    1       12.432   0.372  -6.032  0.00  0.00    -0.050 A 
ATOM      8  C   LIG    1       11.662  -0.621  -6.651  0.00  0.00    +0.005 A 
ATOM      9  C   LIG    1       10.475  -1.060  -6.067  0.00  0.00    +0.029 A 
ATOM     10  C   LIG    1       10.063  -0.512  -4.851  0.00  0.00    +0.113 A 
ATOM     11  C   LIG    1       10.852   0.432  -4.187  0.00  0.00    +0.029 A 
ATOM     12  C   LIG    1       12.041   0.867  -4.779  0.00  0.00    +0.005 A 
ENDBRANCH   3  10
ENDBRANCH   1   3
BRANCH   2  13
ATOM     13  N   LIG    1        9.802  -3.076  -1.270  0.00  0.00    -0.231 N 
ATOM     14  H   LIG    1        9.353  -2.614  -0.479  0.00  0.00    +0.171 HD
BRANCH  13  15
ATOM     15  N   LIG    1       11.057  -3.711  -1.083  0.00  0.00    -0.225 NA
ATOM     16  C   LIG    1       12.019  -2.744  -0.507  0.00  0.00    +0.109 C 
ATOM     17  C   LIG    1       12.812  -3.537   0.528  0.00  0.00    +0.009 C 
ATOM     18  C   LIG    1       11.788  -4.523   1.065  0.00  0.00    +0.009 C 
ATOM     19  C   LIG    1       11.098  -3.744   2.183  0.00  0.00    +0.005 C 
ATOM     20  C   LIG    1       12.237  -2.976   2.840  0.00  0.00    +0.001 C 
ATOM     21  C   LIG    1       13.268  -2.721   1.736  0.00  0.00    +0.005 C 
ATOM     22  C   LIG    1       10.908  -4.834  -0.133  0.00  0.00    +0.109 C 
ENDBRANCH  13  15
ENDBRANCH   2  13
BRANCH   2  23
ATOM     23  O   LIG    1       10.272  -3.059  -3.463  0.00  0.00    -0.480 OA
ATOM     24  H   LIG    1       10.825  -3.735  -3.023  0.00  0.00    +0.295 HD
ENDBRANCH   2  23
TORSDOF 5
