REMARK  Name = *****
REMARK                            x       y       z     vdW  Elec       q    Type
REMARK                         _______ _______ _______ _____ _____    ______ ____
ROOT
ATOM      1  C   LIG    1       -3.868 -14.803 -15.973  0.00  0.00    +0.127 C 
ATOM      2  C   LIG    1       -2.922 -14.310 -14.841  0.00  0.00    +0.015 C 
ATOM      3  C   LIG    1       -2.520 -15.328 -13.771  0.00  0.00    +0.010 C 
ATOM      4  C   LIG    1       -1.628 -13.760 -15.476  0.00  0.00    +0.011 C 
ATOM      5  C   LIG    1       -1.867 -13.144 -16.851  0.00  0.00    +0.065 C 
ATOM      6  C   LIG    1       -3.311 -12.641 -17.001  0.00  0.00    +0.174 C 
ATOM      7  O   LIG    1       -3.538 -11.717 -15.938  0.00  0.00    -0.345 OA
ATOM      8  C   LIG    1       -4.783 -11.007 -16.003  0.00  0.00    +0.129 C 
ATOM      9  C   LIG    1       -4.923 -10.299 -14.635  0.00  0.00    +0.059 C 
ATOM     10  C   LIG    1       -5.552  -8.931 -14.518  0.00  0.00    -0.023 C 
ATOM     11  C   LIG    1       -4.886  -7.755 -14.615  0.00  0.00    -0.048 C 
ATOM     12  C   LIG    1       -3.463  -7.723 -15.098  0.00  0.00    +0.041 C 
ATOM     13  C   LIG    1       -5.580  -6.413 -14.304  0.00  0.00    +0.153 C 
ATOM     14  C   LIG    1       -5.616  -5.359 -15.483  0.00  0.00    +0.042 C 
ATOM     15  C   LIG    1       -4.436  -4.378 -15.605  0.00  0.00    +0.014 C 
ATOM     16  C   LIG    1       -5.805  -6.005 -16.839  0.00  0.00    -0.021 C 
ATOM     17  C   LIG    1       -6.390  -5.436 -17.902  0.00  0.00    -0.004 C 
ATOM     18  C   LIG    1       -6.329  -6.044 -19.209  0.00  0.00    +0.004 C 
ATOM     19  C   LIG    1       -5.196  -6.465 -19.804  0.00  0.00    -0.009 C 
ATOM     20  C   LIG    1       -5.095  -6.993 -21.209  0.00  0.00    +0.134 C 
ATOM     21  C   LIG    1       -3.750  -6.339 -21.560  0.00  0.00    +0.188 C 
ATOM     22  C   LIG    1       -3.109  -6.886 -22.835  0.00  0.00    +0.172 C 
ATOM     23  C   LIG    1       -3.144  -8.386 -22.923  0.00  0.00    -0.045 C 
ATOM     24  C   LIG    1       -2.159  -9.007 -23.871  0.00  0.00    +0.041 C 
ATOM     25  C   LIG    1       -4.024  -9.124 -22.225  0.00  0.00    -0.008 C 
ATOM     26  O   LIG    1       -2.916  -6.512 -20.406  0.00  0.00    -0.366 OA
ATOM     27  C   LIG    1       -5.132  -8.545 -21.369  0.00  0.00    +0.159 C 
ATOM     28  C   LIG    1       -5.433  -9.346 -20.078  0.00  0.00    +0.318 C 
ATOM     29  O   LIG    1       -6.514  -9.348 -19.547  0.00  0.00    -0.250 OA
ATOM     30  O   LIG    1       -4.370 -10.106 -19.648  0.00  0.00    -0.461 OA
ATOM     31  C   LIG    1       -4.618 -10.970 -18.496  0.00  0.00    +0.184 C 
ATOM     32  C   LIG    1       -3.790  -6.318 -19.278  0.00  0.00    +0.194 C 
ATOM     33  C   LIG    1       -4.712 -10.120 -17.232  0.00  0.00    +0.076 C 
ATOM     34  C   LIG    1       -3.428 -11.932 -18.372  0.00  0.00    +0.109 C 
ATOM     35  O   LIG    1       -4.225 -13.743 -16.904  0.00  0.00    -0.345 OA
ENDROOT
BRANCH   1  36
ATOM     36  C   LIG    1       -5.177 -15.537 -15.525  0.00  0.00    +0.015 C 
ATOM     37  C   LIG    1       -5.781 -16.288 -16.730  0.00  0.00    +0.010 C 
BRANCH  36  39
ATOM     38  C   LIG    1       -7.429 -15.325 -14.281  0.00  0.00    +0.004 C 
ATOM     39  C   LIG    1       -6.231 -14.597 -14.896  0.00  0.00    +0.002 C 
ENDBRANCH  36  39
ENDBRANCH   1  36
BRANCH  20  40
ATOM     40  O   LIG    1       -6.117  -6.405 -22.030  0.00  0.00    -0.380 OA
ATOM     41  H   LIG    1       -5.838  -6.540 -22.958  0.00  0.00    +0.211 HD
ENDBRANCH  20  40
BRANCH  22  42
ATOM     42  O   LIG    1       -3.824  -6.395 -23.974  0.00  0.00    -0.385 OA
ATOM     43  H   LIG    1       -3.553  -5.467 -24.095  0.00  0.00    +0.210 HD
ENDBRANCH  22  42
BRANCH  13  44
ATOM     44  O   LIG    1       -5.050  -5.830 -13.088  0.00  0.00    -0.343 OA
BRANCH  44  45
ATOM     45  C   LIG    1       -5.389  -6.576 -11.893  0.00  0.00    +0.254 C 
ATOM     46  O   LIG    1       -6.791  -6.849 -11.837  0.00  0.00    -0.346 OA
ATOM     47  C   LIG    1       -7.209  -7.582 -10.679  0.00  0.00    +0.150 C 
ATOM     48  C   LIG    1       -6.679  -9.020 -10.694  0.00  0.00    +0.040 C 
ATOM     49  C   LIG    1       -6.923  -6.735  -9.420  0.00  0.00    +0.179 C 
ATOM     50  C   LIG    1       -5.395  -6.446  -9.333  0.00  0.00    +0.154 C 
ATOM     51  C   LIG    1       -4.919  -5.797 -10.648  0.00  0.00    +0.095 C 
BRANCH  50  52
ATOM     52  O   LIG    1       -4.694  -7.671  -9.047  0.00  0.00    -0.377 OA
ATOM     53  C   LIG    1       -3.293  -7.530  -8.835  0.00  0.00    +0.194 C 
ENDBRANCH  50  52
BRANCH  49  54
ATOM     54  O   LIG    1       -7.609  -5.453  -9.476  0.00  0.00    -0.343 OA
BRANCH  54  55
ATOM     55  C   LIG    1       -9.048  -5.470  -9.572  0.00  0.00    +0.254 C 
ATOM     56  O   LIG    1       -9.489  -4.116  -9.769  0.00  0.00    -0.346 OA
ATOM     57  C   LIG    1      -10.917  -3.935  -9.800  0.00  0.00    +0.149 C 
ATOM     58  C   LIG    1      -11.587  -4.568 -11.019  0.00  0.00    +0.040 C 
ATOM     59  C   LIG    1      -11.496  -4.371  -8.447  0.00  0.00    +0.172 C 
ATOM     60  C   LIG    1      -11.135  -5.828  -8.125  0.00  0.00    +0.153 C 
ATOM     61  C   LIG    1       -9.633  -6.057  -8.285  0.00  0.00    +0.095 C 
BRANCH  59  62
ATOM     62  O   LIG    1      -10.939  -3.528  -7.422  0.00  0.00    -0.387 OA
ATOM     63  H   LIG    1      -10.020  -3.329  -7.696  0.00  0.00    +0.210 HD
ENDBRANCH  59  62
BRANCH  60  64
ATOM     64  O   LIG    1      -11.816  -6.797  -8.933  0.00  0.00    -0.377 OA
ATOM     65  C   LIG    1      -13.235  -6.724  -8.845  0.00  0.00    +0.194 C 
ENDBRANCH  60  64
ENDBRANCH  54  55
ENDBRANCH  49  54
ENDBRANCH  44  45
ENDBRANCH  13  44
TORSDOF 11
