REMARK  Name = *****
REMARK                            x       y       z     vdW  Elec       q    Type
REMARK                         _______ _______ _______ _____ _____    ______ ____
ROOT
ATOM      1  C   LIG    1       -2.988  10.308   7.424  0.00  0.00    +0.014 C 
ATOM      2  C   LIG    1       -2.840   8.938   8.093  0.00  0.00    +0.037 C 
ATOM      3  C   LIG    1       -1.350   8.567   8.361  0.00  0.00    +0.127 C 
ATOM      4  C   LIG    1       -0.413   8.314   7.139  0.00  0.00    +0.056 C 
ATOM      5  C   LIG    1        0.170   9.612   6.562  0.00  0.00    +0.014 C 
ATOM      6  C   LIG    1       -0.919   7.376   6.000  0.00  0.00    +0.179 C 
ATOM      7  C   LIG    1       -1.441   6.019   6.470  0.00  0.00    +0.052 C 
ATOM      8  O   LIG    1       -1.720   8.097   5.024  0.00  0.00    -0.461 OA
ATOM      9  C   LIG    1       -2.949   7.711   4.612  0.00  0.00    +0.310 C 
ATOM     10  O   LIG    1       -3.705   6.943   5.196  0.00  0.00    -0.251 OA
ATOM     11  C   LIG    1       -3.367   8.444   3.369  0.00  0.00    +0.152 C 
ATOM     12  C   LIG    1       -2.399   8.305   2.201  0.00  0.00    +0.128 C 
ATOM     13  C   LIG    1       -2.618   7.062   1.322  0.00  0.00    +0.063 C 
ATOM     14  C   LIG    1       -2.215   5.696   1.893  0.00  0.00    +0.119 C 
ATOM     15  C   LIG    1       -3.398   4.863   2.423  0.00  0.00    +0.062 C 
ATOM     16  C   LIG    1       -2.976   3.413   2.724  0.00  0.00    +0.117 C 
ATOM     17  C   LIG    1       -4.122   2.494   3.166  0.00  0.00    +0.034 C 
ATOM     18  C   LIG    1       -4.461   2.430   4.666  0.00  0.00    +0.036 C 
ATOM     19  C   LIG    1       -5.043   3.708   5.294  0.00  0.00    +0.143 C 
ATOM     20  C   LIG    1       -5.707   3.386   6.664  0.00  0.00    +0.150 C 
ATOM     21  C   LIG    1       -6.779   4.367   7.164  0.00  0.00    +0.108 C 
ATOM     22  C   LIG    1       -6.273   5.777   7.373  0.00  0.00    +0.138 C 
ATOM     23  O   LIG    1       -5.070   6.011   7.514  0.00  0.00    -0.297 OA
ATOM     24  C   LIG    1       -7.305   6.876   7.572  0.00  0.00    +0.106 C 
ATOM     25  C   LIG    1       -7.024   8.231   6.891  0.00  0.00    +0.138 C 
ATOM     26  C   LIG    1       -7.819   8.519   5.594  0.00  0.00    +0.155 C 
ATOM     27  C   LIG    1       -7.388   7.688   4.375  0.00  0.00    +0.134 C 
ATOM     28  C   LIG    1       -8.122   7.917   3.023  0.00  0.00    +0.068 C 
ATOM     29  C   LIG    1       -9.498   7.230   2.798  0.00  0.00    +0.147 C 
ATOM     30  C   LIG    1      -10.489   7.846   3.761  0.00  0.00    +0.004 C 
ATOM     31  C   LIG    1      -11.068   7.235   4.811  0.00  0.00    -0.002 C 
ATOM     32  C   LIG    1      -11.523   8.034   5.936  0.00  0.00    -0.000 C 
ATOM     33  C   LIG    1      -11.312   7.597   7.189  0.00  0.00    +0.000 C 
ATOM     34  C   LIG    1      -11.183   8.514   8.305  0.00  0.00    +0.000 C 
ATOM     35  C   LIG    1      -10.502   8.169   9.410  0.00  0.00    -0.000 C 
ATOM     36  C   LIG    1      -10.096   9.121  10.419  0.00  0.00    -0.004 C 
ATOM     37  C   LIG    1       -9.280   8.790  11.432  0.00  0.00    -0.026 C 
ATOM     38  C   LIG    1       -8.762   9.775  12.447  0.00  0.00    +0.031 C 
ATOM     39  C   LIG    1       -7.246   9.671  12.687  0.00  0.00    +0.031 C 
ATOM     40  C   LIG    1       -6.399  10.053  11.500  0.00  0.00    -0.026 C 
ATOM     41  C   LIG    1       -5.440   9.261  10.993  0.00  0.00    -0.005 C 
ATOM     42  C   LIG    1       -4.608   9.626   9.865  0.00  0.00    -0.004 C 
ATOM     43  C   LIG    1       -3.721   8.768   9.333  0.00  0.00    -0.021 C 
ENDROOT
BRANCH   3  44
ATOM     44  O   LIG    1       -1.254   7.392   9.189  0.00  0.00    -0.391 OA
ATOM     45  H   LIG    1       -1.953   6.770   8.926  0.00  0.00    +0.210 HD
ENDBRANCH   3  44
BRANCH  12  46
ATOM     46  O   LIG    1       -2.619   9.439   1.339  0.00  0.00    -0.391 OA
ATOM     47  H   LIG    1       -2.236  10.218   1.780  0.00  0.00    +0.210 HD
ENDBRANCH  12  46
BRANCH  14  48
ATOM     48  O   LIG    1       -1.224   5.863   2.900  0.00  0.00    -0.392 OA
ATOM     49  H   LIG    1       -1.147   4.993   3.352  0.00  0.00    +0.210 HD
ENDBRANCH  14  48
BRANCH  16  50
ATOM     50  O   LIG    1       -1.914   3.402   3.677  0.00  0.00    -0.392 OA
ATOM     51  H   LIG    1       -1.696   2.468   3.854  0.00  0.00    +0.210 HD
ENDBRANCH  16  50
BRANCH  19  52
ATOM     52  O   LIG    1       -5.989   4.245   4.378  0.00  0.00    -0.389 OA
ATOM     53  H   LIG    1       -6.054   5.210   4.573  0.00  0.00    +0.210 HD
ENDBRANCH  19  52
BRANCH  20  54
ATOM     54  O   LIG    1       -4.702   3.210   7.666  0.00  0.00    -0.389 OA
ATOM     55  H   LIG    1       -4.286   4.087   7.796  0.00  0.00    +0.210 HD
ENDBRANCH  20  54
BRANCH  25  56
ATOM     56  O   LIG    1       -5.647   8.505   6.618  0.00  0.00    -0.391 OA
ATOM     57  H   LIG    1       -5.126   7.673   6.721  0.00  0.00    +0.210 HD
ENDBRANCH  25  56
BRANCH  26  58
ATOM     58  C   LIG    1       -7.742   9.997   5.256  0.00  0.00    +0.313 C 
ATOM     59  O   LIG    1       -8.688  10.623   4.796  0.00  0.00    -0.251 OA
BRANCH  58  60
ATOM     60  O   LIG    1       -6.524  10.560   5.418  0.00  0.00    -0.480 OA
ATOM     61  H   LIG    1       -5.881   9.938   5.847  0.00  0.00    +0.295 HD
ENDBRANCH  58  60
ENDBRANCH  26  58
BRANCH  27  62
ATOM     62  O   LIG    1       -7.422   6.307   4.732  0.00  0.00    -0.391 OA
ATOM     63  H   LIG    1       -8.341   5.987   4.588  0.00  0.00    +0.210 HD
ENDBRANCH  27  62
BRANCH  29  64
ATOM     64  O   LIG    1       -9.476   5.811   2.998  0.00  0.00    -0.341 OA
BRANCH  64  65
ATOM     65  C   LIG    1       -8.579   5.073   2.148  0.00  0.00    +0.281 C 
ATOM     66  C   LIG    1       -8.539   3.588   2.588  0.00  0.00    +0.189 C 
ATOM     67  C   LIG    1       -9.769   2.801   2.116  0.00  0.00    +0.116 C 
ATOM     68  C   LIG    1       -9.937   3.015   0.606  0.00  0.00    +0.162 C 
ATOM     69  C   LIG    1       -9.902   4.498   0.184  0.00  0.00    +0.148 C 
ATOM     70  C   LIG    1      -11.233   5.220   0.366  0.00  0.00    +0.040 C 
ATOM     71  O   LIG    1       -8.827   5.251   0.760  0.00  0.00    -0.343 OA
BRANCH  67  72
ATOM     72  N   LIG    1      -10.977   3.093   2.915  0.00  0.00    -0.323 NA
ATOM     73  H   LIG    1      -10.754   2.801   3.873  0.00  0.00    +0.119 HD
ATOM     74  H   LIG    1      -11.053   4.110   3.020  0.00  0.00    +0.119 HD
ENDBRANCH  67  72
BRANCH  66  75
ATOM     75  O   LIG    1       -8.419   3.446   4.015  0.00  0.00    -0.385 OA
ATOM     76  H   LIG    1       -7.490   3.701   4.208  0.00  0.00    +0.210 HD
ENDBRANCH  66  75
BRANCH  68  77
ATOM     77  O   LIG    1       -8.848   2.341  -0.060  0.00  0.00    -0.388 OA
ATOM     78  H   LIG    1       -8.978   1.385   0.073  0.00  0.00    +0.210 HD
ENDBRANCH  68  77
ENDBRANCH  64  65
ENDBRANCH  29  64
TORSDOF 15
