REMARK  Name = *****
REMARK                            x       y       z     vdW  Elec       q    Type
REMARK                         _______ _______ _______ _____ _____    ______ ____
ROOT
ATOM      1  C   LIG    1        2.991   0.358   1.110  0.00  0.00    +0.148 C 
ATOM      2  C   LIG    1        4.242  -0.526   1.250  0.00  0.00    +0.242 C 
ATOM      3  O   LIG    1        4.202  -1.634   1.792  0.00  0.00    -0.274 OA
ATOM      4  N   LIG    1        5.403  -0.045   0.657  0.00  0.00    -0.228 N 
ATOM      5  C   LIG    1        6.541  -0.943   0.580  0.00  0.00    +0.143 C 
ATOM      6  C   LIG    1        5.638   1.293   0.423  0.00  0.00    +0.315 C 
ATOM      7  O   LIG    1        6.742   1.755   0.138  0.00  0.00    -0.252 OA
ATOM      8  N   LIG    1        4.596   2.146   0.620  0.00  0.00    -0.239 N 
ATOM      9  H   LIG    1        4.841   3.127   0.611  0.00  0.00    +0.159 HD
ATOM     10  C   LIG    1        3.401   1.828   1.198  0.00  0.00    +0.240 C 
ATOM     11  O   LIG    1        2.703   2.718   1.679  0.00  0.00    -0.274 OA
ENDROOT
BRANCH   1  12
ATOM     12  C   LIG    1        2.285   0.079  -0.249  0.00  0.00    -0.024 A 
ATOM     13  C   LIG    1        1.494   1.064  -0.874  0.00  0.00    +0.005 A 
ATOM     14  C   LIG    1        0.847   0.811  -2.086  0.00  0.00    +0.000 A 
ATOM     15  C   LIG    1        0.959  -0.436  -2.692  0.00  0.00    +0.000 A 
ATOM     16  C   LIG    1        1.706  -1.435  -2.079  0.00  0.00    +0.000 A 
ATOM     17  C   LIG    1        2.355  -1.185  -0.866  0.00  0.00    +0.005 A 
ENDBRANCH   1  12
BRANCH   1  19
ATOM     18  C   LIG    1        2.456   0.234   3.655  0.00  0.00    +0.005 C 
ATOM     19  C   LIG    1        1.959   0.021   2.226  0.00  0.00    +0.027 C 
ENDBRANCH   1  19
TORSDOF 2
