REMARK  Name = *****
REMARK                            x       y       z     vdW  Elec       q    Type
REMARK                         _______ _______ _______ _____ _____    ______ ____
ROOT
ATOM      1  C   LIG    1        9.723  -2.983  -3.192  0.00  0.00    +0.037 C 
ATOM      2  C   LIG    1        8.473  -2.175  -3.337  0.00  0.00    -0.002 C 
ATOM      3  C   LIG    1        7.585  -1.880  -2.376  0.00  0.00    +0.092 C 
ATOM      4  C   LIG    1        7.682  -2.446  -0.979  0.00  0.00    +0.259 C 
ATOM      5  O   LIG    1        7.540  -1.706  -0.010  0.00  0.00    -0.269 OA
ATOM      6  N   LIG    1        7.477  -3.821  -0.959  0.00  0.00    -0.297 N 
ATOM      7  H   LIG    1        7.408  -4.232  -1.885  0.00  0.00    +0.150 HD
ATOM      8  C   LIG    1        6.455  -4.357  -0.032  0.00  0.00    +0.185 C 
ATOM      9  C   LIG    1        5.145  -3.710  -0.539  0.00  0.00    +0.329 C 
ATOM     10  O   LIG    1        4.862  -3.667  -1.737  0.00  0.00    -0.249 OA
ATOM     11  O   LIG    1        4.450  -3.066   0.432  0.00  0.00    -0.455 OA
ATOM     12  C   LIG    1        3.350  -2.250  -0.013  0.00  0.00    +0.208 C 
ATOM     13  C   LIG    1        2.023  -2.978   0.213  0.00  0.00    +0.144 C 
ATOM     14  C   LIG    1        1.727  -3.713  -1.081  0.00  0.00    +0.217 C 
ATOM     15  N   LIG    1        0.952  -2.996  -1.970  0.00  0.00    -0.304 N 
ATOM     16  H   LIG    1        0.508  -2.162  -1.598  0.00  0.00    +0.149 HD
ATOM     17  C   LIG    1        1.261  -2.849  -3.408  0.00  0.00    +0.161 C 
ATOM     18  C   LIG    1        2.058  -1.513  -3.445  0.00  0.00    +0.234 C 
ATOM     19  N   LIG    1        3.410  -1.555  -3.667  0.00  0.00    -0.302 N 
ATOM     20  H   LIG    1        3.861  -2.468  -3.628  0.00  0.00    +0.149 HD
ATOM     21  C   LIG    1        4.286  -0.389  -3.419  0.00  0.00    +0.170 C 
ATOM     22  C   LIG    1        3.996   0.846  -4.284  0.00  0.00    +0.112 C 
ATOM     23  S   LIG    1        3.301   2.322  -3.414  0.00  0.00    -0.091 S 
ATOM     24  S   LIG    1        4.430   2.562  -1.702  0.00  0.00    -0.093 S 
ATOM     25  C   LIG    1        3.153   2.671  -0.383  0.00  0.00    +0.085 C 
ATOM     26  C   LIG    1        3.244   1.585   0.698  0.00  0.00    +0.038 C 
ATOM     27  C   LIG    1        2.945   0.204   0.185  0.00  0.00    -0.027 C 
ATOM     28  C   LIG    1        5.729  -0.864  -3.699  0.00  0.00    +0.238 C 
ATOM     29  O   LIG    1        6.111  -1.130  -4.836  0.00  0.00    -0.273 OA
ATOM     30  O   LIG    1        1.500  -0.469  -3.094  0.00  0.00    -0.274 OA
ATOM     31  O   LIG    1        2.247  -4.794  -1.328  0.00  0.00    -0.276 OA
ATOM     32  C   LIG    1        3.487  -0.921   0.681  0.00  0.00    +0.013 C 
ATOM     33  N   LIG    1        6.426  -1.141  -2.538  0.00  0.00    -0.280 N 
ATOM     34  H   LIG    1        5.946  -0.958  -1.658  0.00  0.00    +0.155 HD
ENDROOT
BRANCH   8  35
ATOM     35  C   LIG    1        6.809  -4.240   1.468  0.00  0.00    +0.014 C 
ATOM     36  C   LIG    1        5.764  -4.912   2.372  0.00  0.00    +0.009 C 
ATOM     37  C   LIG    1        8.169  -4.896   1.750  0.00  0.00    +0.009 C 
ENDBRANCH   8  35
BRANCH  17  38
ATOM     38  C   LIG    1        1.834  -4.067  -4.160  0.00  0.00    +0.012 C 
ATOM     39  C   LIG    1        2.102  -3.746  -5.639  0.00  0.00    +0.009 C 
ATOM     40  C   LIG    1        0.862  -5.256  -4.112  0.00  0.00    +0.009 C 
ENDBRANCH  17  38
TORSDOF 2
