REMARK  Name = *****
REMARK                            x       y       z     vdW  Elec       q    Type
REMARK                         _______ _______ _______ _____ _____    ______ ____
ROOT
ATOM      1  N   LIG    1        4.435   0.069  -3.908  0.00  0.00    -0.149 NA
ATOM      2  N   LIG    1        4.715   1.061  -4.612  0.00  0.00    -0.149 NA
ENDROOT
BRANCH   1   7
ATOM      3  C   LIG    1        4.196  -0.620  -0.279  0.00  0.00    +0.102 A 
ATOM      4  C   LIG    1        4.486   0.636   0.266  0.00  0.00    +0.131 A 
ATOM      5  C   LIG    1        4.763   1.725  -0.559  0.00  0.00    +0.048 A 
ATOM      6  C   LIG    1        4.759   1.560  -1.945  0.00  0.00    +0.033 A 
ATOM      7  C   LIG    1        4.478   0.314  -2.523  0.00  0.00    +0.087 A 
ATOM      8  C   LIG    1        4.203  -0.767  -1.675  0.00  0.00    +0.048 A 
BRANCH   3  10
ATOM      9  O   LIG    1        3.648  -2.918   0.021  0.00  0.00    -0.245 OA
ATOM     10  C   LIG    1        3.871  -1.833   0.529  0.00  0.00    +0.340 C 
BRANCH  10  11
ATOM     11  O   LIG    1        3.835  -1.640   1.865  0.00  0.00    -0.477 OA
ATOM     12  H   LIG    1        4.039  -0.712   2.116  0.00  0.00    +0.295 HD
ENDBRANCH  10  11
ENDBRANCH   3  10
BRANCH   4  13
ATOM     13  O   LIG    1        4.505   0.810   1.626  0.00  0.00    -0.506 OA
ATOM     14  H   LIG    1        4.816   1.716   1.818  0.00  0.00    +0.292 HD
ENDBRANCH   4  13
ENDBRANCH   1   7
BRANCH   2  15
ATOM     15  C   LIG    1        4.639   0.759  -5.987  0.00  0.00    +0.087 A 
ATOM     16  C   LIG    1        4.328   1.790  -6.882  0.00  0.00    +0.048 A 
ATOM     17  C   LIG    1        4.236   1.546  -8.264  0.00  0.00    +0.102 A 
ATOM     18  C   LIG    1        4.468   0.249  -8.741  0.00  0.00    +0.131 A 
ATOM     19  C   LIG    1        4.793  -0.785  -7.866  0.00  0.00    +0.048 A 
ATOM     20  C   LIG    1        4.885  -0.523  -6.501  0.00  0.00    +0.033 A 
BRANCH  17  21
ATOM     21  C   LIG    1        3.886   2.704  -9.139  0.00  0.00    +0.340 C 
ATOM     22  O   LIG    1        3.671   3.818  -8.697  0.00  0.00    -0.245 OA
BRANCH  21  23
ATOM     23  O   LIG    1        3.827   2.427 -10.460  0.00  0.00    -0.477 OA
ATOM     24  H   LIG    1        4.003   1.480 -10.652  0.00  0.00    +0.295 HD
ENDBRANCH  21  23
ENDBRANCH  17  21
BRANCH  18  25
ATOM     25  O   LIG    1        4.379  -0.022 -10.082  0.00  0.00    -0.506 OA
ATOM     26  H   LIG    1        4.520  -0.979 -10.217  0.00  0.00    +0.292 HD
ENDBRANCH  18  25
ENDBRANCH   2  15
TORSDOF 8
