REMARK  Name = *****
REMARK                            x       y       z     vdW  Elec       q    Type
REMARK                         _______ _______ _______ _____ _____    ______ ____
ROOT
ATOM      1  C   LIG    1        6.192  -2.359   0.146  0.00  0.00    +0.253 C 
ATOM      2  C   LIG    1        7.418  -1.576   0.634  0.00  0.00    +0.195 C 
ATOM      3  C   LIG    1        8.506  -2.640   0.617  0.00  0.00    +0.178 C 
ATOM      4  C   LIG    1        7.758  -3.916   0.983  0.00  0.00    +0.178 C 
ATOM      5  O   LIG    1        6.418  -3.762   0.459  0.00  0.00    -0.346 OA
ENDROOT
BRANCH   1  10
ATOM      6  C   LIG    1        1.995  -0.067   0.979  0.00  0.00    +0.147 A 
ATOM      7  C   LIG    1        3.049  -0.962   1.228  0.00  0.00    +0.147 A 
ATOM      8  N   LIG    1        3.262  -1.876   2.239  0.00  0.00    -0.231 NA
ATOM      9  C   LIG    1        4.381  -2.475   1.899  0.00  0.00    +0.203 A 
ATOM     10  N   LIG    1        4.947  -1.942   0.769  0.00  0.00    -0.285 N 
ATOM     11  C   LIG    1        4.096  -0.969   0.317  0.00  0.00    +0.167 A 
ATOM     12  N   LIG    1        4.221  -0.193  -0.771  0.00  0.00    -0.216 NA
ATOM     13  C   LIG    1        3.172   0.648  -0.886  0.00  0.00    +0.225 A 
ATOM     14  N   LIG    1        2.085   0.755  -0.089  0.00  0.00    -0.219 NA
BRANCH   6  15
ATOM     15  N   LIG    1        0.867   0.015   1.786  0.00  0.00    -0.341 N 
ATOM     16  H   LIG    1        1.009  -0.360   2.717  0.00  0.00    +0.144 HD
ATOM     17  H   LIG    1        0.399   0.906   1.700  0.00  0.00    +0.144 HD
ENDBRANCH   6  15
ENDBRANCH   1  10
BRANCH   2  18
ATOM     18  O   LIG    1        7.781  -0.477  -0.201  0.00  0.00    -0.385 OA
ATOM     19  H   LIG    1        8.315  -0.864  -0.927  0.00  0.00    +0.210 HD
ENDBRANCH   2  18
BRANCH   3  20
ATOM     20  O   LIG    1        9.011  -2.723  -0.731  0.00  0.00    -0.386 OA
ATOM     21  H   LIG    1        9.716  -3.397  -0.743  0.00  0.00    +0.210 HD
ENDBRANCH   3  20
BRANCH   4  22
ATOM     22  C   LIG    1        7.695  -4.177   2.495  0.00  0.00    +0.206 C 
BRANCH  22  23
ATOM     23  O   LIG    1        7.103  -3.076   3.167  0.00  0.00    -0.284 OA
BRANCH  23  24
ATOM     24  P   LIG    1        6.934  -3.160   4.752  0.00  0.00    +0.472 P 
ATOM     25  O   LIG    1        8.199  -3.265   5.537  0.00  0.00    -0.228 OA
BRANCH  24  26
ATOM     26  O   LIG    1        5.999  -4.427   5.000  0.00  0.00    -0.303 OA
ATOM     27  H   LIG    1        6.250  -4.857   5.841  0.00  0.00    +0.222 HD
ENDBRANCH  24  26
BRANCH  24  28
ATOM     28  O   LIG    1        5.952  -1.980   5.157  0.00  0.00    -0.303 OA
ATOM     29  H   LIG    1        5.050  -2.098   4.805  0.00  0.00    +0.222 HD
ENDBRANCH  24  28
ENDBRANCH  23  24
ENDBRANCH  22  23
ENDBRANCH   4  22
TORSDOF 9
