REMARK  Name = *****
REMARK                            x       y       z     vdW  Elec       q    Type
REMARK                         _______ _______ _______ _____ _____    ______ ____
ROOT
ATOM      1  C   LIG    1        4.772  -1.383  -0.333  0.00  0.00    +0.061 C 
ATOM      2  C   LIG    1        5.982  -0.439  -0.590  0.00  0.00    +0.054 C 
ATOM      3  C   LIG    1        7.291  -1.165  -0.830  0.00  0.00    -0.039 A 
ATOM      4  C   LIG    1        7.493  -2.483  -0.365  0.00  0.00    -0.003 A 
ATOM      5  C   LIG    1        8.724  -3.104  -0.631  0.00  0.00    +0.120 A 
ATOM      6  C   LIG    1        9.752  -2.427  -1.276  0.00  0.00    +0.045 A 
ATOM      7  C   LIG    1        9.565  -1.112  -1.692  0.00  0.00    +0.004 A 
ATOM      8  C   LIG    1        6.400  -3.212   0.377  0.00  0.00    +0.041 C 
ATOM      9  C   LIG    1        8.339  -0.486  -1.471  0.00  0.00    +0.004 A 
ATOM     10  C   LIG    1        5.244  -2.311   0.812  0.00  0.00    +0.024 C 
ENDROOT
BRANCH   5  11
ATOM     11  O   LIG    1        8.983  -4.402  -0.282  0.00  0.00    -0.506 OA
ATOM     12  H   LIG    1        8.145  -4.848  -0.093  0.00  0.00    +0.292 HD
ENDBRANCH   5  11
BRANCH   1  13
ATOM     13  N   LIG    1        4.273  -2.098  -1.550  0.00  0.00    -0.299 NA
BRANCH  13  14
ATOM     14  C   LIG    1        3.850  -1.186  -2.643  0.00  0.00    +0.084 C 
BRANCH  14  16
ATOM     15  C   LIG    1        2.207   0.535  -3.568  0.00  0.00    +0.005 C 
ATOM     16  C   LIG    1        2.554  -0.389  -2.406  0.00  0.00    +0.012 C 
ENDBRANCH  14  16
ENDBRANCH  13  14
BRANCH  13  17
ATOM     17  C   LIG    1        3.240  -3.116  -1.238  0.00  0.00    +0.090 C 
BRANCH  17  18
ATOM     18  C   LIG    1        2.857  -4.037  -2.416  0.00  0.00    +0.058 C 
BRANCH  18  19
ATOM     19  C   LIG    1        1.812  -5.045  -2.012  0.00  0.00    -0.009 A 
ATOM     20  S   LIG    1        0.148  -4.673  -2.202  0.00  0.00    -0.102 S 
ATOM     21  C   LIG    1       -0.326  -6.207  -1.619  0.00  0.00    +0.045 A 
ATOM     22  C   LIG    1        0.755  -6.982  -1.268  0.00  0.00    +0.008 A 
ATOM     23  C   LIG    1        1.993  -6.310  -1.488  0.00  0.00    +0.011 A 
ENDBRANCH  18  19
ENDBRANCH  17  18
ENDBRANCH  13  17
ENDBRANCH   1  13
TORSDOF 7
