REMARK  Name = *****
REMARK                            x       y       z     vdW  Elec       q    Type
REMARK                         _______ _______ _______ _____ _____    ______ ____
ROOT
ATOM      1  C   LIG    1        0.907   0.037  -0.060  0.00  0.00    +0.037 C 
ATOM      2  C   LIG    1        2.427   0.037  -0.030  0.00  0.00    +0.108 C 
ATOM      3  C   LIG    1        2.963   0.001   1.393  0.00  0.00    +0.037 C 
ENDROOT
BRANCH   2   4
ATOM      4  O   LIG    1        2.911  -1.097  -0.743  0.00  0.00    -0.392 OA
ATOM      5  H   LIG    1        2.580  -1.896  -0.296  0.00  0.00    +0.210 HD
ENDBRANCH   2   4
TORSDOF 1
