REMARK  Name = *****
REMARK                            x       y       z     vdW  Elec       q    Type
REMARK                         _______ _______ _______ _____ _____    ______ ____
ROOT
ATOM      1  C   LIG    1        1.967   2.073  -5.596  0.00  0.00    +0.341 C 
ATOM      2  O   LIG    1        2.035   3.219  -6.033  0.00  0.00    -0.247 OA
ENDROOT
BRANCH   1   3
ATOM      3  O   LIG    1        1.921   0.943  -6.354  0.00  0.00    -0.459 OA
BRANCH   3  11
ATOM      4  C   LIG    1       -0.797   1.541 -10.452  0.00  0.00    +0.007 C 
ATOM      5  C   LIG    1        0.617   1.339  -9.907  0.00  0.00    -0.010 C 
ATOM      6  C   LIG    1        1.206   0.017 -10.424  0.00  0.00    +0.010 C 
ATOM      7  C   LIG    1        2.623  -0.271  -9.882  0.00  0.00    -0.031 C 
ATOM      8  C   LIG    1        3.043  -1.693 -10.302  0.00  0.00    +0.011 C 
ATOM      9  C   LIG    1        3.646   0.716 -10.475  0.00  0.00    +0.011 C 
ATOM     10  C   LIG    1        2.613  -0.189  -8.340  0.00  0.00    +0.051 C 
ATOM     11  C   LIG    1        2.011   1.109  -7.787  0.00  0.00    +0.177 C 
ATOM     12  C   LIG    1        0.619   1.372  -8.372  0.00  0.00    +0.048 C 
ENDBRANCH   3  11
ENDBRANCH   1   3
BRANCH   1  13
ATOM     13  C   LIG    1        1.894   1.746  -4.096  0.00  0.00    +0.253 C 
BRANCH  13  14
ATOM     14  C   LIG    1        3.117   1.016  -3.579  0.00  0.00    -0.008 A 
ATOM     15  C   LIG    1        4.371   1.647  -3.510  0.00  0.00    +0.007 A 
ATOM     16  C   LIG    1        5.482   0.967  -3.004  0.00  0.00    +0.000 A 
ATOM     17  C   LIG    1        5.357  -0.349  -2.569  0.00  0.00    +0.000 A 
ATOM     18  C   LIG    1        4.120  -0.989  -2.633  0.00  0.00    +0.000 A 
ATOM     19  C   LIG    1        3.010  -0.309  -3.139  0.00  0.00    +0.007 A 
ENDBRANCH  13  14
BRANCH  13  20
ATOM     20  O   LIG    1        1.712   2.915  -3.292  0.00  0.00    -0.376 OA
ATOM     21  H   LIG    1        2.068   3.660  -3.813  0.00  0.00    +0.211 HD
ENDBRANCH  13  20
ENDBRANCH   1  13
TORSDOF 5
