REMARK  Name = *****
REMARK                            x       y       z     vdW  Elec       q    Type
REMARK                         _______ _______ _______ _____ _____    ______ ____
ROOT
ATOM      1  N   LIG    1        2.630   0.085  -2.088  0.00  0.00    -0.313 NA
ATOM      2  H   LIG    1        2.533   0.877  -2.725  0.00  0.00    +0.122 HD
ENDROOT
BRANCH   1   4
ATOM      3  C   LIG    1        2.037  -0.767  -0.005  0.00  0.00    +0.024 C 
ATOM      4  C   LIG    1        1.882   0.414  -0.859  0.00  0.00    +0.051 C 
BRANCH   4   5
ATOM      5  C   LIG    1        0.365   0.579  -0.831  0.00  0.00    +0.023 C 
BRANCH   5   6
ATOM      6  C   LIG    1       -0.141   0.726   0.648  0.00  0.00    +0.036 C 
BRANCH   6   7
ATOM      7  C   LIG    1       -1.619   0.874   0.749  0.00  0.00    -0.047 A 
ATOM      8  C   LIG    1       -2.161   2.153   0.742  0.00  0.00    +0.007 A 
ATOM      9  C   LIG    1       -3.534   2.312   0.846  0.00  0.00    +0.045 A 
ATOM     10  C   LIG    1       -4.353   1.188   0.915  0.00  0.00    +0.117 A 
ATOM     11  C   LIG    1       -3.822  -0.096   0.937  0.00  0.00    +0.045 A 
ATOM     12  C   LIG    1       -2.445  -0.257   0.871  0.00  0.00    +0.007 A 
BRANCH  10  13
ATOM     13  O   LIG    1       -5.709   1.319   0.948  0.00  0.00    -0.507 OA
ATOM     14  H   LIG    1       -5.917   2.258   0.814  0.00  0.00    +0.292 HD
ENDBRANCH  10  13
ENDBRANCH   6   7
ENDBRANCH   5   6
ENDBRANCH   4   5
ENDBRANCH   1   4
BRANCH   1  15
ATOM     15  C   LIG    1        4.113  -0.188  -1.927  0.00  0.00    +0.086 C 
BRANCH  15  16
ATOM     16  C   LIG    1        4.765  -1.464  -1.179  0.00  0.00    +0.050 C 
BRANCH  16  17
ATOM     17  C   LIG    1        4.930  -1.568   0.349  0.00  0.00    -0.043 A 
ATOM     18  C   LIG    1        6.084  -1.210   1.020  0.00  0.00    +0.052 A 
ATOM     19  C   LIG    1        6.036  -1.062   2.412  0.00  0.00    +0.159 A 
ATOM     20  C   LIG    1        4.856  -1.083   3.119  0.00  0.00    +0.158 A 
ATOM     21  C   LIG    1        3.713  -1.488   2.461  0.00  0.00    +0.049 A 
ATOM     22  C   LIG    1        3.936  -2.015   1.202  0.00  0.00    +0.007 A 
BRANCH  19  23
ATOM     23  O   LIG    1        7.223  -0.856   3.124  0.00  0.00    -0.503 OA
ATOM     24  H   LIG    1        6.898  -0.781   4.044  0.00  0.00    +0.292 HD
ENDBRANCH  19  23
BRANCH  20  25
ATOM     25  O   LIG    1        4.815  -0.805   4.454  0.00  0.00    -0.503 OA
ATOM     26  H   LIG    1        3.914  -0.992   4.770  0.00  0.00    +0.292 HD
ENDBRANCH  20  25
ENDBRANCH  16  17
ENDBRANCH  15  16
ENDBRANCH   1  15
TORSDOF 10
