REMARK  Name = *****
REMARK                            x       y       z     vdW  Elec       q    Type
REMARK                         _______ _______ _______ _____ _____    ______ ____
ROOT
ATOM      1  O   LIG    1        0.770   0.269  -0.983  0.00  0.00    -0.245 OA
ATOM      2  C   LIG    1        1.884  -0.217  -0.926  0.00  0.00    +0.340 C 
ENDROOT
BRANCH   2   3
ATOM      3  C   LIG    1        2.405  -1.196  -1.918  0.00  0.00    +0.059 A 
ATOM      4  C   LIG    1        1.523  -1.690  -2.892  0.00  0.00    +0.015 A 
ATOM      5  C   LIG    1        1.963  -2.634  -3.824  0.00  0.00    +0.001 A 
ATOM      6  C   LIG    1        3.282  -3.083  -3.792  0.00  0.00    +0.000 A 
ATOM      7  C   LIG    1        4.170  -2.580  -2.842  0.00  0.00    +0.001 A 
ATOM      8  C   LIG    1        3.733  -1.637  -1.908  0.00  0.00    +0.015 A 
ENDBRANCH   2   3
BRANCH   2   9
ATOM      9  O   LIG    1        2.812  -0.001   0.042  0.00  0.00    -0.456 OA
BRANCH   9  10
ATOM     10  C   LIG    1        2.456   0.953   1.048  0.00  0.00    +0.268 C 
BRANCH  10  11
ATOM     11  C   LIG    1        2.895   2.332   0.627  0.00  0.00    -0.010 A 
ATOM     12  C   LIG    1        2.037   3.159  -0.113  0.00  0.00    +0.007 A 
ATOM     13  C   LIG    1        2.452   4.426  -0.523  0.00  0.00    +0.000 A 
ATOM     14  C   LIG    1        3.729   4.880  -0.201  0.00  0.00    +0.000 A 
ATOM     15  C   LIG    1        4.593   4.066   0.529  0.00  0.00    +0.000 A 
ATOM     16  C   LIG    1        4.181   2.796   0.936  0.00  0.00    +0.007 A 
ENDBRANCH  10  11
ENDBRANCH   9  10
ENDBRANCH   2   9
TORSDOF 4
