REMARK  Name = *****
REMARK                            x       y       z     vdW  Elec       q    Type
REMARK                         _______ _______ _______ _____ _____    ______ ____
ROOT
ATOM      1  C   LIG    1       -2.541  -1.554   1.935  0.00  0.00    +0.178 C 
ATOM      2  C   LIG    1       -2.783  -2.753   0.940  0.00  0.00    +0.022 C 
ATOM      3  C   LIG    1       -1.569  -2.881  -0.045  0.00  0.00    +0.016 C 
ATOM      4  C   LIG    1       -4.022  -2.297   0.097  0.00  0.00    +0.003 C 
ATOM      5  C   LIG    1       -5.387  -2.939   0.458  0.00  0.00    -0.003 C 
ATOM      6  C   LIG    1       -5.268  -4.446   0.740  0.00  0.00    -0.000 C 
ATOM      7  C   LIG    1       -4.313  -4.633   1.928  0.00  0.00    +0.005 C 
ATOM      8  C   LIG    1       -4.832  -5.235  -0.531  0.00  0.00    +0.018 C 
ATOM      9  C   LIG    1       -5.543  -4.834  -1.807  0.00  0.00    -0.067 C 
ATOM     10  C   LIG    1       -5.438  -5.628  -2.892  0.00  0.00    +0.016 C 
ATOM     11  C   LIG    1       -4.686  -6.929  -2.913  0.00  0.00    +0.199 C 
ATOM     12  C   LIG    1       -4.656  -7.631  -1.546  0.00  0.00    +0.049 C 
ATOM     13  C   LIG    1       -6.120  -3.447  -1.948  0.00  0.00    +0.031 C 
ATOM     14  C   LIG    1       -4.894  -6.756  -0.303  0.00  0.00    +0.012 C 
ATOM     15  C   LIG    1       -6.452  -2.737  -0.635  0.00  0.00    +0.008 C 
ATOM     16  C   LIG    1       -4.070  -0.756   0.230  0.00  0.00    +0.009 C 
ATOM     17  C   LIG    1       -2.898  -4.140   1.635  0.00  0.00    +0.012 C 
ATOM     18  C   LIG    1       -2.847  -0.343   1.041  0.00  0.00    +0.062 C 
ENDROOT
BRANCH   1  20
ATOM     19  C   LIG    1       -4.202  -1.592   4.037  0.00  0.00    +0.008 C 
ATOM     20  C   LIG    1       -3.454  -1.594   3.105  0.00  0.00    -0.058 C 
ENDBRANCH   1  20
BRANCH   1  21
ATOM     21  O   LIG    1       -1.165  -1.571   2.366  0.00  0.00    -0.445 OA
BRANCH  21  22
ATOM     22  C   LIG    1       -0.658  -0.506   3.041  0.00  0.00    +0.305 C 
ATOM     23  O   LIG    1       -1.270   0.489   3.400  0.00  0.00    -0.251 OA
ATOM     24  C   LIG    1        0.814  -0.691   3.254  0.00  0.00    +0.136 C 
ENDBRANCH  21  22
ENDBRANCH   1  21
BRANCH  11  25
ATOM     25  O   LIG    1       -3.333  -6.627  -3.329  0.00  0.00    -0.457 OA
BRANCH  25  26
ATOM     26  C   LIG    1       -3.093  -6.631  -4.671  0.00  0.00    +0.304 C 
ATOM     27  O   LIG    1       -3.823  -7.109  -5.530  0.00  0.00    -0.251 OA
ATOM     28  C   LIG    1       -1.806  -5.920  -4.976  0.00  0.00    +0.136 C 
ENDBRANCH  25  26
ENDBRANCH  11  25
TORSDOF 5
