REMARK  Name = *****
REMARK                            x       y       z     vdW  Elec       q    Type
REMARK                         _______ _______ _______ _____ _____    ______ ____
ROOT
ATOM      1  C   LIG    1        8.004  -1.585  -1.844  0.00  0.00    +0.101 C 
ENDROOT
BRANCH   1   2
ATOM      2  N   LIG    1        8.092  -2.084  -0.418  0.00  0.00    -0.277 NA
BRANCH   2   3
ATOM      3  C   LIG    1        7.990  -3.554  -0.367  0.00  0.00    +0.206 C 
BRANCH   3   4
ATOM      4  C   LIG    1        8.103  -4.231   0.998  0.00  0.00    +0.319 C 
ATOM      5  O   LIG    1        7.193  -4.570   1.733  0.00  0.00    -0.250 OA
BRANCH   4   6
ATOM      6  O   LIG    1        9.387  -4.447   1.369  0.00  0.00    -0.480 OA
ATOM      7  H   LIG    1        9.364  -4.521   2.354  0.00  0.00    +0.295 HD
ENDBRANCH   4   6
ENDBRANCH   3   4
ENDBRANCH   2   3
BRANCH   2   8
ATOM      8  C   LIG    1        9.244  -1.552   0.330  0.00  0.00    +0.192 C 
BRANCH   8   9
ATOM      9  C   LIG    1       10.600  -1.724  -0.520  0.00  0.00    +0.324 C 
ATOM     10  O   LIG    1       10.753  -1.477  -1.696  0.00  0.00    -0.249 OA
BRANCH   9  11
ATOM     11  O   LIG    1       11.719  -1.888   0.226  0.00  0.00    -0.479 OA
ATOM     12  H   LIG    1       12.435  -1.599  -0.384  0.00  0.00    +0.295 HD
ENDBRANCH   9  11
ENDBRANCH   8   9
BRANCH   8  13
ATOM     13  C   LIG    1        9.402  -1.663   1.959  0.00  0.00    +0.190 C 
BRANCH  13  14
ATOM     14  O   LIG    1       10.488  -1.026   2.695  0.00  0.00    -0.373 OA
BRANCH  14  15
ATOM     15  C   LIG    1       10.421   0.365   3.078  0.00  0.00    +0.195 C 
BRANCH  15  16
ATOM     16  C   LIG    1       10.815   1.318   1.970  0.00  0.00    -0.022 A 
ATOM     17  C   LIG    1       11.330   2.574   1.968  0.00  0.00    +0.006 A 
ATOM     18  C   LIG    1       11.419   3.298   0.740  0.00  0.00    +0.000 A 
ATOM     19  C   LIG    1       11.058   2.769  -0.503  0.00  0.00    +0.000 A 
ATOM     20  C   LIG    1       10.675   1.483  -0.522  0.00  0.00    +0.000 A 
ATOM     21  C   LIG    1       10.623   0.875   0.704  0.00  0.00    +0.006 A 
ENDBRANCH  15  16
ENDBRANCH  14  15
ENDBRANCH  13  14
ENDBRANCH   8  13
ENDBRANCH   2   8
ENDBRANCH   1   2
BRANCH   1  22
ATOM     22  C   LIG    1        8.088  -0.065  -2.334  0.00  0.00    +0.100 C 
BRANCH  22  23
ATOM     23  N   LIG    1        7.120   0.959  -1.891  0.00  0.00    -0.290 NA
BRANCH  23  24
ATOM     24  C   LIG    1        7.199   2.220  -2.740  0.00  0.00    +0.100 C 
BRANCH  24  25
ATOM     25  C   LIG    1        8.059   3.506  -2.340  0.00  0.00    +0.101 C 
BRANCH  25  26
ATOM     26  N   LIG    1        7.959   4.761  -3.196  0.00  0.00    -0.281 NA
BRANCH  26  27
ATOM     27  C   LIG    1        6.529   5.156  -3.251  0.00  0.00    +0.206 C 
BRANCH  27  28
ATOM     28  C   LIG    1        6.163   6.437  -3.934  0.00  0.00    +0.319 C 
ATOM     29  O   LIG    1        4.932   6.802  -4.146  0.00  0.00    -0.250 OA
BRANCH  28  30
ATOM     30  O   LIG    1        7.148   7.242  -4.267  0.00  0.00    -0.480 OA
ATOM     31  H   LIG    1        6.810   7.903  -4.911  0.00  0.00    +0.295 HD
ENDBRANCH  28  30
ENDBRANCH  27  28
ENDBRANCH  26  27
BRANCH  26  32
ATOM     32  C   LIG    1        8.784   4.617  -4.434  0.00  0.00    +0.206 C 
BRANCH  32  33
ATOM     33  C   LIG    1        8.884   5.726  -5.499  0.00  0.00    +0.319 C 
ATOM     34  O   LIG    1        8.031   6.071  -6.305  0.00  0.00    -0.250 OA
BRANCH  33  35
ATOM     35  O   LIG    1       10.137   6.221  -5.660  0.00  0.00    -0.480 OA
ATOM     36  H   LIG    1       10.035   6.804  -6.444  0.00  0.00    +0.295 HD
ENDBRANCH  33  35
ENDBRANCH  32  33
ENDBRANCH  26  32
ENDBRANCH  25  26
ENDBRANCH  24  25
ENDBRANCH  23  24
BRANCH  23  37
ATOM     37  C   LIG    1        6.979   1.353  -0.473  0.00  0.00    +0.205 C 
BRANCH  37  39
ATOM     38  O   LIG    1        7.208   0.410   1.729  0.00  0.00    -0.250 OA
ATOM     39  C   LIG    1        6.740   0.310   0.599  0.00  0.00    +0.319 C 
BRANCH  39  40
ATOM     40  O   LIG    1        5.893  -0.680   0.260  0.00  0.00    -0.480 OA
ATOM     41  H   LIG    1        5.880  -0.764  -0.713  0.00  0.00    +0.295 HD
ENDBRANCH  39  40
ENDBRANCH  37  39
ENDBRANCH  23  37
ENDBRANCH  22  23
ENDBRANCH   1  22
TORSDOF 25
