REMARK  Name = *****
REMARK                            x       y       z     vdW  Elec       q    Type
REMARK                         _______ _______ _______ _____ _____    ______ ____
ROOT
ATOM      1  C   LIG    1        0.056  -2.254   1.218  0.00  0.00    +0.034 A 
ATOM      2  C   LIG    1        0.446  -2.520  -0.098  0.00  0.00    +0.027 A 
ATOM      3  C   LIG    1       -0.394  -3.257  -0.978  0.00  0.00    -0.037 A 
ATOM      4  C   LIG    1        0.158  -3.551  -2.351  0.00  0.00    +0.044 C 
ATOM      5  C   LIG    1       -1.677  -3.688  -0.537  0.00  0.00    +0.040 A 
ATOM      6  C   LIG    1       -2.075  -3.311   0.750  0.00  0.00    +0.015 A 
ATOM      7  C   LIG    1       -1.228  -2.603   1.605  0.00  0.00    +0.024 A 
ENDROOT
BRANCH   5   8
ATOM      8  C   LIG    1       -2.664  -4.417  -1.434  0.00  0.00    +0.251 C 
ATOM      9  N   LIG    1       -3.705  -5.231  -0.905  0.00  0.00    -0.267 N 
ATOM     10  C   LIG    1       -3.691  -5.867   0.365  0.00  0.00    +0.042 A 
ATOM     11  C   LIG    1       -4.801  -5.757   1.236  0.00  0.00    +0.004 A 
ATOM     12  C   LIG    1       -4.711  -6.375   2.500  0.00  0.00    +0.028 A 
ATOM     13  C   LIG    1       -3.581  -7.107   2.862  0.00  0.00    +0.041 A 
ATOM     14  C   LIG    1       -2.529  -7.268   1.967  0.00  0.00    +0.022 A 
ATOM     15 CL   LIG    1       -3.487  -7.814   4.428  0.00  0.00    -0.084 Cl
ATOM     16  C   LIG    1       -6.015  -4.917   0.873  0.00  0.00    +0.146 C 
ATOM     17  C   LIG    1       -6.772  -5.426  -0.359  0.00  0.00    +0.038 C 
ATOM     18  C   LIG    1       -6.075  -5.142  -1.688  0.00  0.00    +0.022 C 
ATOM     19  C   LIG    1       -2.586  -6.653   0.717  0.00  0.00    +0.025 A 
ATOM     20  C   LIG    1       -4.705  -5.797  -1.823  0.00  0.00    +0.114 C 
ATOM     21  O   LIG    1       -2.590  -4.191  -2.644  0.00  0.00    -0.270 OA
BRANCH  16  22
ATOM     22  O   LIG    1       -6.939  -4.864   1.968  0.00  0.00    -0.387 OA
ATOM     23  H   LIG    1       -7.571  -5.595   1.867  0.00  0.00    +0.210 HD
ENDBRANCH  16  22
ENDBRANCH   5   8
BRANCH   1  25
ATOM     24  C   LIG    1        0.907  -1.856   3.509  0.00  0.00    +0.248 C 
ATOM     25  N   LIG    1        0.992  -1.693   2.122  0.00  0.00    -0.281 N 
ATOM     26  H   LIG    1        1.874  -1.396   1.737  0.00  0.00    +0.155 HD
ATOM     27  O   LIG    1        0.014  -2.417   4.111  0.00  0.00    -0.270 OA
BRANCH  24  30
ATOM     28  C   LIG    1        1.923  -3.318   5.939  0.00  0.00    +0.044 C 
ATOM     29  C   LIG    1        2.599  -2.092   5.382  0.00  0.00    -0.038 A 
ATOM     30  C   LIG    1        2.096  -1.372   4.277  0.00  0.00    +0.040 A 
ATOM     31  C   LIG    1        2.727  -0.182   3.872  0.00  0.00    +0.013 A 
ATOM     32  C   LIG    1        3.903   0.238   4.493  0.00  0.00    +0.001 A 
ATOM     33  C   LIG    1        4.445  -0.512   5.532  0.00  0.00    +0.000 A 
ATOM     34  C   LIG    1        3.789  -1.655   5.987  0.00  0.00    +0.004 A 
ENDBRANCH  24  30
ENDBRANCH   1  25
TORSDOF 4
