REMARK  Name = *****
REMARK                            x       y       z     vdW  Elec       q    Type
REMARK                         _______ _______ _______ _____ _____    ______ ____
ROOT
ATOM      1  CA  GLU A  1        1.809  -1.004   0.511  0.00  0.00    +0.161 C 
ENDROOT
BRANCH   1   2
ATOM      2  N   GLU A  1        2.754  -0.352   1.478  0.00  0.00    -0.318 NA
ATOM      3  H1  GLU A  1        3.701  -0.378   1.086  0.00  0.00    +0.119 HD
ATOM      4  H2  GLU A  1        2.519   0.647   1.490  0.00  0.00    +0.119 HD
ENDBRANCH   1   2
BRANCH   1   5
ATOM      5  C   GLU A  1        1.754  -2.508   0.845  0.00  0.00    +0.322 C 
ATOM      6  O   GLU A  1        1.141  -3.360   0.211  0.00  0.00    -0.249 OA
BRANCH   5   7
ATOM      7  OXT GLU A  1        2.450  -2.787   1.978  0.00  0.00    -0.479 OA
ATOM      8  HXT GLU A  1        2.768  -1.910   2.311  0.00  0.00    +0.295 HD
ENDBRANCH   5   7
ENDBRANCH   1   5
BRANCH   1   9
ATOM      9  CB  GLU A  1        2.247  -0.663  -0.924  0.00  0.00    +0.041 C 
BRANCH   9  10
ATOM     10  CG  GLU A  1        1.415  -1.300  -2.043  0.00  0.00    +0.122 C 
BRANCH  10  11
ATOM     11  CD  GLU A  1       -0.031  -0.865  -2.034  0.00  0.00    +0.305 C 
ATOM     12  OE1 GLU A  1       -0.521  -0.084  -1.234  0.00  0.00    -0.251 OA
BRANCH  11  13
ATOM     13  OE2 GLU A  1       -0.745  -1.418  -3.038  0.00  0.00    -0.481 OA
ATOM     14  HE2 GLU A  1       -0.237  -2.048  -3.585  0.00  0.00    +0.295 HD
ENDBRANCH  11  13
ENDBRANCH  10  11
ENDBRANCH   9  10
ENDBRANCH   1   9
TORSDOF 7
