REMARK  Name = *****
REMARK                            x       y       z     vdW  Elec       q    Type
REMARK                         _______ _______ _______ _____ _____    ______ ____
ROOT
ATOM      1  C   LIG    1        4.882   0.776   2.915  0.00  0.00    +0.180 C 
ATOM      2  O   LIG    1        4.396   1.888   3.114  0.00  0.00    -0.290 OA
ENDROOT
BRANCH   1   3
ATOM      3  C   LIG    1        5.351  -0.034   4.102  0.00  0.00    +0.019 A 
ATOM      4  C   LIG    1        5.803  -1.347   4.009  0.00  0.00    +0.011 A 
ATOM      5  C   LIG    1        6.163  -2.060   5.161  0.00  0.00    +0.001 A 
ATOM      6  C   LIG    1        6.065  -1.457   6.413  0.00  0.00    +0.000 A 
ATOM      7  C   LIG    1        5.625  -0.143   6.517  0.00  0.00    +0.001 A 
ATOM      8  C   LIG    1        5.266   0.577   5.372  0.00  0.00    +0.011 A 
ENDBRANCH   1   3
BRANCH   1   9
ATOM      9  C   LIG    1        4.973   0.137   1.501  0.00  0.00    +0.125 C 
ATOM     10  C   LIG    1        3.655  -0.637   1.330  0.00  0.00    +0.032 C 
BRANCH   9  11
ATOM     11  N   LIG    1        5.207   1.168   0.435  0.00  0.00    -0.293 NA
BRANCH  11  13
ATOM     12  C   LIG    1        6.304  -0.360  -1.300  0.00  0.00    +0.020 C 
ATOM     13  C   LIG    1        5.177   0.605  -0.932  0.00  0.00    +0.082 C 
ENDBRANCH  11  13
BRANCH  11  14
ATOM     14  C   LIG    1        6.426   1.952   0.712  0.00  0.00    +0.082 C 
ATOM     15  C   LIG    1        6.680   3.145  -0.208  0.00  0.00    +0.020 C 
ENDBRANCH  11  14
ENDBRANCH   9  11
ENDBRANCH   1   9
TORSDOF 5
