REMARK  Name = *****
REMARK                            x       y       z     vdW  Elec       q    Type
REMARK                         _______ _______ _______ _____ _____    ______ ____
ROOT
ATOM      1  C   LIG    1        2.736   1.241  -0.864  0.00  0.00    +0.024 C 
ATOM      2  C   LIG    1        3.515   2.602  -0.496  0.00  0.00    -0.014 C 
ATOM      3  C   LIG    1        4.991   2.646  -0.936  0.00  0.00    +0.013 C 
ATOM      4  C   LIG    1        3.531   2.942   1.020  0.00  0.00    +0.013 C 
ATOM      5  C   LIG    1        2.632   3.685  -1.216  0.00  0.00    -0.003 C 
ATOM      6  C   LIG    1        1.217   3.107  -1.094  0.00  0.00    +0.009 C 
ATOM      7  C   LIG    1        2.810   3.652  -2.743  0.00  0.00    +0.004 C 
ATOM      8  C   LIG    1        2.135   2.336  -3.135  0.00  0.00    +0.005 C 
ATOM      9  C   LIG    1        1.597   1.798  -1.792  0.00  0.00    +0.010 C 
ATOM     10  C   LIG    1        3.603   0.174  -1.559  0.00  0.00    +0.028 C 
ENDROOT
BRANCH   1  12
ATOM     11  C   LIG    1        1.211  -0.430   0.220  0.00  0.00    +0.101 C 
ATOM     12  N   LIG    1        2.182   0.642   0.377  0.00  0.00    -0.313 NA
ATOM     13  H   LIG    1        2.951   0.304   0.954  0.00  0.00    +0.122 HD
ENDBRANCH   1  12
TORSDOF 1
