REMARK  Name = *****
REMARK                            x       y       z     vdW  Elec       q    Type
REMARK                         _______ _______ _______ _____ _____    ______ ____
ROOT
ATOM      1  C   LIG    1       -5.277 -17.062   6.038  0.00  0.00    +0.007 C 
ENDROOT
BRANCH   1   2
ATOM      2  C   LIG    1       -5.951 -16.750   7.402  0.00  0.00    +0.041 C 
BRANCH   2   3
ATOM      3  C   LIG    1       -5.758 -17.841   8.371  0.00  0.00    +0.232 C 
BRANCH   3   4
ATOM      4  O   LIG    1       -4.622 -18.739   7.493  0.00  0.00    -0.465 OA
BRANCH   4   5
ATOM      5  C   LIG    1       -3.414 -19.373   6.686  0.00  0.00    +0.312 C 
ATOM      6  O   LIG    1       -3.394 -18.899   5.573  0.00  0.00    -0.251 OA
BRANCH   5   7
ATOM      7  C   LIG    1       -1.938 -20.493   7.264  0.00  0.00    +0.171 C 
BRANCH   7   8
ATOM      8  C   LIG    1       -0.821 -20.490   9.004  0.00  0.00    +0.145 C 
BRANCH   8   9
ATOM      9  N   LIG    1        0.019 -21.436   9.893  0.00  0.00    +0.247 N 
ATOM     10  C   LIG    1       -0.644 -22.661  10.382  0.00  0.00    +0.193 C 
ATOM     11  C   LIG    1        0.512 -20.603  11.204  0.00  0.00    +0.102 C 
ATOM     12  C   LIG    1        1.235 -19.334  10.777  0.00  0.00    +0.008 A 
ATOM     13  C   LIG    1        1.688 -19.156   9.493  0.00  0.00    -0.030 A 
ATOM     14  C   LIG    1        1.698 -17.837   8.957  0.00  0.00    +0.053 A 
ATOM     15  C   LIG    1        1.468 -16.657   9.734  0.00  0.00    +0.162 A 
ATOM     16  C   LIG    1        1.443 -16.889  11.108  0.00  0.00    +0.162 A 
ATOM     17  C   LIG    1        2.050 -20.463   8.840  0.00  0.00    +0.086 C 
ATOM     18  C   LIG    1        1.310 -18.237  11.571  0.00  0.00    +0.059 A 
ATOM     19  C   LIG    1        1.007 -21.553   8.762  0.00  0.00    +0.138 C 
BRANCH  15  20
ATOM     20  O   LIG    1        1.347 -15.512   8.985  0.00  0.00    -0.491 OA
ATOM     21  C   LIG    1        0.745 -14.257   9.365  0.00  0.00    +0.277 C 
ENDBRANCH  15  20
BRANCH  16  22
ATOM     22  O   LIG    1        1.509 -15.900  12.072  0.00  0.00    -0.491 OA
ATOM     23  C   LIG    1        0.939 -16.401  13.295  0.00  0.00    +0.277 C 
ENDBRANCH  16  22
BRANCH  11  24
ATOM     24  C   LIG    1       -0.662 -20.366  12.383  0.00  0.00    +0.095 C 
BRANCH  24  25
ATOM     25  C   LIG    1       -1.794 -19.298  12.319  0.00  0.00    -0.038 A 
ATOM     26  C   LIG    1       -1.856 -18.208  11.391  0.00  0.00    +0.053 A 
ATOM     27  C   LIG    1       -2.904 -17.236  11.210  0.00  0.00    +0.162 A 
ATOM     28  C   LIG    1       -3.937 -17.375  12.083  0.00  0.00    +0.162 A 
ATOM     29  C   LIG    1       -3.842 -18.355  13.121  0.00  0.00    +0.050 A 
ATOM     30  C   LIG    1       -2.794 -19.276  13.276  0.00  0.00    +0.007 A 
BRANCH  28  31
ATOM     31  O   LIG    1       -4.875 -16.380  12.104  0.00  0.00    -0.491 OA
ATOM     32  C   LIG    1       -4.894 -15.892  13.440  0.00  0.00    +0.277 C 
ENDBRANCH  28  31
BRANCH  27  33
ATOM     33  O   LIG    1       -2.687 -16.143  10.395  0.00  0.00    -0.491 OA
ATOM     34  C   LIG    1       -3.589 -15.380   9.508  0.00  0.00    +0.277 C 
ENDBRANCH  27  33
ENDBRANCH  24  25
ENDBRANCH  11  24
ENDBRANCH   8   9
ENDBRANCH   7   8
ENDBRANCH   5   7
ENDBRANCH   4   5
ENDBRANCH   3   4
ENDBRANCH   2   3
ENDBRANCH   1   2
BRANCH   1  35
ATOM     35  C   LIG    1       -5.749 -18.367   5.278  0.00  0.00    +0.041 C 
BRANCH  35  36
ATOM     36  C   LIG    1       -5.708 -19.959   5.634  0.00  0.00    +0.232 C 
BRANCH  36  37
ATOM     37  O   LIG    1       -4.789 -21.133   5.892  0.00  0.00    -0.465 OA
BRANCH  37  38
ATOM     38  C   LIG    1       -3.826 -21.761   5.165  0.00  0.00    +0.312 C 
ATOM     39  O   LIG    1       -3.054 -21.225   4.377  0.00  0.00    -0.251 OA
BRANCH  38  40
ATOM     40  C   LIG    1       -3.594 -23.239   5.623  0.00  0.00    +0.171 C 
BRANCH  40  41
ATOM     41  C   LIG    1       -4.645 -24.188   6.320  0.00  0.00    +0.145 C 
BRANCH  41  43
ATOM     42  C   LIG    1       -5.699 -22.678   8.331  0.00  0.00    +0.102 C 
ATOM     43  N   LIG    1       -5.027 -24.169   7.861  0.00  0.00    +0.247 N 
ATOM     44  C   LIG    1       -5.984 -25.309   8.240  0.00  0.00    +0.193 C 
ATOM     45  C   LIG    1       -3.926 -24.599   8.811  0.00  0.00    +0.138 C 
ATOM     46  C   LIG    1       -2.788 -23.774   8.643  0.00  0.00    +0.086 C 
ATOM     47  C   LIG    1       -3.338 -22.433   8.909  0.00  0.00    -0.030 A 
ATOM     48  C   LIG    1       -2.579 -21.474   8.898  0.00  0.00    +0.053 A 
ATOM     49  C   LIG    1       -2.445 -19.680   8.841  0.00  0.00    +0.162 A 
ATOM     50  C   LIG    1       -3.253 -18.847   9.173  0.00  0.00    +0.162 A 
ATOM     51  C   LIG    1       -4.425 -20.166   9.030  0.00  0.00    +0.059 A 
ATOM     52  C   LIG    1       -4.483 -21.785   8.818  0.00  0.00    +0.008 A 
BRANCH  50  53
ATOM     53  O   LIG    1       -2.901 -17.809   7.849  0.00  0.00    -0.491 OA
ATOM     54  C   LIG    1       -2.507 -16.476   7.522  0.00  0.00    +0.277 C 
ENDBRANCH  50  53
BRANCH  49  55
ATOM     55  O   LIG    1       -0.890 -19.097   7.886  0.00  0.00    -0.491 OA
ATOM     56  C   LIG    1       -0.697 -17.946   7.233  0.00  0.00    +0.277 C 
ENDBRANCH  49  55
BRANCH  42  57
ATOM     57  C   LIG    1       -7.004 -22.406   7.360  0.00  0.00    +0.095 C 
BRANCH  57  61
ATOM     58  C   LIG    1      -10.283 -19.405   7.817  0.00  0.00    +0.162 A 
ATOM     59  C   LIG    1       -9.861 -20.195   8.889  0.00  0.00    +0.162 A 
ATOM     60  C   LIG    1       -8.762 -21.109   8.748  0.00  0.00    +0.053 A 
ATOM     61  C   LIG    1       -8.069 -21.291   7.549  0.00  0.00    -0.038 A 
ATOM     62  C   LIG    1       -8.509 -20.445   6.499  0.00  0.00    +0.007 A 
ATOM     63  C   LIG    1       -9.506 -19.452   6.660  0.00  0.00    +0.050 A 
BRANCH  58  65
ATOM     64  C   LIG    1      -12.612 -19.061   8.329  0.00  0.00    +0.277 C 
ATOM     65  O   LIG    1      -11.376 -18.572   7.771  0.00  0.00    -0.491 OA
ENDBRANCH  58  65
BRANCH  59  66
ATOM     66  O   LIG    1      -10.454 -20.248  10.123  0.00  0.00    -0.491 OA
ATOM     67  C   LIG    1      -10.868 -19.032  10.738  0.00  0.00    +0.277 C 
ENDBRANCH  59  66
ENDBRANCH  57  61
ENDBRANCH  42  57
ENDBRANCH  41  43
ENDBRANCH  40  41
ENDBRANCH  38  40
ENDBRANCH  37  38
ENDBRANCH  36  37
ENDBRANCH  35  36
ENDBRANCH   1  35
TORSDOF 26
