REMARK  Name = *****
REMARK                            x       y       z     vdW  Elec       q    Type
REMARK                         _______ _______ _______ _____ _____    ______ ____
ROOT
ATOM      1  C   LIG    1        0.883   1.367  -0.048  0.00  0.00    +0.018 C 
ATOM      2  C   LIG    1        2.428   1.570   0.289  0.00  0.00    +0.009 C 
ATOM      3  C   LIG    1        3.689   2.403  -0.305  0.00  0.00    +0.064 C 
ATOM      4  C   LIG    1        3.394   2.844  -1.776  0.00  0.00    +0.011 C 
ATOM      5  C   LIG    1        3.912   1.857  -2.732  0.00  0.00    +0.040 C 
ATOM      6  C   LIG    1        3.356   0.545  -2.201  0.00  0.00    -0.043 A 
ATOM      7  C   LIG    1        3.639  -0.527  -3.060  0.00  0.00    +0.007 A 
ATOM      8  C   LIG    1        3.420  -1.809  -2.604  0.00  0.00    +0.045 A 
ATOM      9  C   LIG    1        2.938  -2.049  -1.344  0.00  0.00    +0.117 A 
ATOM     10  C   LIG    1        2.622  -0.988  -0.470  0.00  0.00    +0.049 A 
ATOM     11  C   LIG    1        3.601   4.363  -2.035  0.00  0.00    +0.005 C 
ATOM     12  C   LIG    1        2.349   4.985  -1.377  0.00  0.00    +0.000 C 
ATOM     13  C   LIG    1        1.935   5.568  -0.042  0.00  0.00    +0.000 C 
ATOM     14  C   LIG    1        1.217   4.401   0.819  0.00  0.00    +0.001 C 
ATOM     15  C   LIG    1        2.782   0.377  -0.854  0.00  0.00    -0.033 A 
ATOM     16  C   LIG    1        1.995   3.010   1.239  0.00  0.00    +0.013 C 
ENDROOT
BRANCH   3  17
ATOM     17  N   LIG    1        5.000   1.744   0.008  0.00  0.00    -0.326 NA
ATOM     18  H   LIG    1        4.941   1.362   0.954  0.00  0.00    +0.118 HD
ATOM     19  H   LIG    1        5.114   0.908  -0.570  0.00  0.00    +0.118 HD
ENDBRANCH   3  17
BRANCH   9  20
ATOM     20  O   LIG    1        2.781  -3.342  -0.904  0.00  0.00    -0.507 OA
ATOM     21  H   LIG    1        3.089  -3.933  -1.591  0.00  0.00    +0.292 HD
ENDBRANCH   9  20
TORSDOF 2
