REMARK  Name = *****
REMARK                            x       y       z     vdW  Elec       q    Type
REMARK                         _______ _______ _______ _____ _____    ______ ____
ROOT
ATOM      1  C   LIG    1       -1.823   4.054  -2.680  0.00  0.00    +0.010 C 
ATOM      2  C   LIG    1       -1.501   3.352  -4.014  0.00  0.00    +0.021 C 
ATOM      3  C   LIG    1       -0.577   4.189  -4.960  0.00  0.00    +0.097 C 
ATOM      4  C   LIG    1        0.839   4.183  -4.341  0.00  0.00    +0.038 C 
ATOM      5  C   LIG    1        1.382   2.789  -4.044  0.00  0.00    +0.086 C 
ATOM      6  N   LIG    1        0.492   1.931  -3.256  0.00  0.00    -0.299 NA
ATOM      7  C   LIG    1       -0.904   1.952  -3.726  0.00  0.00    +0.089 C 
ENDROOT
BRANCH   3   8
ATOM      8  C   LIG    1       -1.134   5.623  -5.159  0.00  0.00    -0.030 A 
ATOM      9  C   LIG    1       -0.419   6.772  -4.772  0.00  0.00    +0.005 A 
ATOM     10  C   LIG    1       -0.932   8.055  -4.978  0.00  0.00    +0.000 A 
ATOM     11  C   LIG    1       -2.171   8.223  -5.583  0.00  0.00    +0.000 A 
ATOM     12  C   LIG    1       -2.911   7.105  -5.954  0.00  0.00    +0.000 A 
ATOM     13  C   LIG    1       -2.404   5.818  -5.738  0.00  0.00    +0.005 A 
ENDBRANCH   3   8
BRANCH   6  14
ATOM     14  C   LIG    1        1.030   0.531  -3.162  0.00  0.00    +0.057 C 
ATOM     15  C   LIG    1        0.095  -0.384  -2.340  0.00  0.00    +0.021 C 
ATOM     16  C   LIG    1        0.726  -1.692  -1.867  0.00  0.00    +0.028 C 
ATOM     17  C   LIG    1        2.045  -1.470  -1.086  0.00  0.00    +0.082 C 
ATOM     18  C   LIG    1        3.002  -0.818  -2.121  0.00  0.00    +0.028 C 
ATOM     19  C   LIG    1        2.491   0.525  -2.644  0.00  0.00    +0.021 C 
BRANCH  17  20
ATOM     20  C   LIG    1        1.883  -0.661   0.222  0.00  0.00    -0.027 A 
ATOM     21  C   LIG    1        0.673  -0.667   0.949  0.00  0.00    +0.008 A 
ATOM     22  C   LIG    1        0.530   0.051   2.141  0.00  0.00    +0.039 A 
ATOM     23  C   LIG    1        1.605   0.765   2.643  0.00  0.00    +0.123 A 
ATOM     24  F   LIG    1        1.474   1.442   3.792  0.00  0.00    -0.205 F 
ATOM     25  C   LIG    1        2.819   0.775   1.974  0.00  0.00    +0.039 A 
ATOM     26  C   LIG    1        2.959   0.064   0.776  0.00  0.00    +0.008 A 
ENDBRANCH  17  20
BRANCH  17  27
ATOM     27  C   LIG    1        2.593  -2.804  -0.743  0.00  0.00    +0.074 C 
ATOM     28  N   LIG    1        3.025  -3.868  -0.494  0.00  0.00    -0.196 NA
ENDBRANCH  17  27
ENDBRANCH   6  14
BRANCH   3  29
ATOM     29  C   LIG    1       -0.494   3.495  -6.353  0.00  0.00    +0.316 C 
ATOM     30  O   LIG    1       -1.089   2.472  -6.665  0.00  0.00    -0.250 OA
BRANCH  29  31
ATOM     31  O   LIG    1        0.308   4.118  -7.252  0.00  0.00    -0.480 OA
ATOM     32  H   LIG    1        0.636   4.990  -6.963  0.00  0.00    +0.295 HD
ENDBRANCH  29  31
ENDBRANCH   3  29
TORSDOF 6
