REMARK  Name = *****
REMARK                            x       y       z     vdW  Elec       q    Type
REMARK                         _______ _______ _______ _____ _____    ______ ____
ROOT
ATOM      1  C   LIG    1        4.550   1.450  -1.414  0.00  0.00    +0.162 A 
ATOM      2  C   LIG    1        5.553   0.732  -2.091  0.00  0.00    +0.162 A 
ATOM      3  C   LIG    1        6.758   1.378  -2.399  0.00  0.00    +0.049 A 
ATOM      4  C   LIG    1        6.998   2.692  -2.005  0.00  0.00    +0.004 A 
ATOM      5  C   LIG    1        6.022   3.391  -1.300  0.00  0.00    +0.004 A 
ATOM      6  C   LIG    1        4.812   2.766  -1.001  0.00  0.00    +0.049 A 
ENDROOT
BRANCH   1   7
ATOM      7  O   LIG    1        3.354   0.837  -1.161  0.00  0.00    -0.489 OA
BRANCH   7   9
ATOM      8  C   LIG    1        0.993   0.818  -1.481  0.00  0.00    +0.048 C 
ATOM      9  C   LIG    1        2.208   1.693  -1.235  0.00  0.00    +0.226 C 
ENDBRANCH   7   9
ENDBRANCH   1   7
BRANCH   2  10
ATOM     10  O   LIG    1        5.475  -0.547  -2.580  0.00  0.00    -0.486 OA
BRANCH  10  11
ATOM     11  C   LIG    1        4.736  -1.511  -1.814  0.00  0.00    +0.262 C 
BRANCH  11  12
ATOM     12  C   LIG    1        5.318  -2.922  -2.079  0.00  0.00    +0.169 C 
ATOM     13  O   LIG    1        6.731  -3.011  -1.778  0.00  0.00    -0.371 OA
ATOM     14  C   LIG    1        6.992  -3.027  -0.369  0.00  0.00    +0.175 C 
ATOM     15  C   LIG    1        6.253  -4.178   0.325  0.00  0.00    +0.109 C 
ATOM     16  N   LIG    1        4.799  -4.104   0.100  0.00  0.00    -0.311 NA
ATOM     17  H   LIG    1        4.366  -4.944   0.485  0.00  0.00    +0.122 HD
ATOM     18  C   LIG    1        4.549  -4.052  -1.352  0.00  0.00    +0.115 C 
ENDBRANCH  11  12
ENDBRANCH  10  11
ENDBRANCH   2  10
TORSDOF 5
