REMARK  Name = *****
REMARK                            x       y       z     vdW  Elec       q    Type
REMARK                         _______ _______ _______ _____ _____    ______ ____
ROOT
ATOM      1  C   LIG    1        4.907  -1.085   2.917  0.00  0.00    -0.000 C 
ATOM      2  C   LIG    1        5.346  -1.825   3.963  0.00  0.00    -0.066 C 
ATOM      3  C   LIG    1        6.099  -3.143   3.815  0.00  0.00    +0.021 C 
ATOM      4  C   LIG    1        6.297  -3.775   2.425  0.00  0.00    +0.009 C 
ATOM      5  C   LIG    1        6.201  -5.280   2.620  0.00  0.00    +0.005 C 
ATOM      6  C   LIG    1        5.220  -5.491   3.783  0.00  0.00    -0.002 C 
ATOM      7  C   LIG    1        5.541  -4.282   4.735  0.00  0.00    -0.022 C 
ATOM      8  C   LIG    1        6.706  -4.690   5.689  0.00  0.00    +0.012 C 
ATOM      9  C   LIG    1        4.370  -3.826   5.630  0.00  0.00    +0.008 C 
ATOM     10  C   LIG    1        4.647  -2.500   6.335  0.00  0.00    +0.005 C 
ATOM     11  C   LIG    1        5.205  -1.408   5.415  0.00  0.00    +0.031 C 
ENDROOT
BRANCH   1  15
ATOM     12  C   LIG    1        2.170   2.475   2.957  0.00  0.00    +0.012 C 
ATOM     13  C   LIG    1        3.248   2.275   2.176  0.00  0.00    -0.051 C 
ATOM     14  C   LIG    1        3.820   0.950   1.956  0.00  0.00    -0.042 C 
ATOM     15  C   LIG    1        4.269   0.208   2.996  0.00  0.00    +0.004 C 
ATOM     16  C   LIG    1        3.888   0.584   0.496  0.00  0.00    +0.066 C 
ATOM     17  C   LIG    1        4.611   1.668  -0.316  0.00  0.00    +0.119 C 
ATOM     18  C   LIG    1        3.997   3.051  -0.080  0.00  0.00    +0.036 C 
ATOM     19  C   LIG    1        3.922   3.385   1.409  0.00  0.00    +0.037 C 
BRANCH  17  20
ATOM     20  O   LIG    1        4.546   1.357  -1.707  0.00  0.00    -0.392 OA
ATOM     21  H   LIG    1        3.608   1.361  -1.966  0.00  0.00    +0.210 HD
ENDBRANCH  17  20
ENDBRANCH   1  15
BRANCH   6  22
ATOM     22  C   LIG    1        3.737  -5.772   3.342  0.00  0.00    -0.010 C 
ATOM     23  C   LIG    1        3.668  -7.094   2.549  0.00  0.00    +0.008 C 
BRANCH  22  24
ATOM     24  C   LIG    1        3.024  -4.637   2.566  0.00  0.00    +0.003 C 
BRANCH  24  25
ATOM     25  C   LIG    1        1.496  -4.824   2.446  0.00  0.00    +0.000 C 
BRANCH  25  26
ATOM     26  C   LIG    1        0.746  -3.566   1.956  0.00  0.00    +0.003 C 
BRANCH  26  27
ATOM     27  C   LIG    1        0.875  -2.326   2.868  0.00  0.00    -0.017 C 
ATOM     28  C   LIG    1        0.440  -2.619   4.305  0.00  0.00    +0.007 C 
ATOM     29  C   LIG    1        0.091  -1.128   2.325  0.00  0.00    +0.007 C 
ENDBRANCH  26  27
ENDBRANCH  25  26
ENDBRANCH  24  25
ENDBRANCH  22  24
ENDBRANCH   6  22
TORSDOF 7
