REMARK  Name = *****
REMARK                            x       y       z     vdW  Elec       q    Type
REMARK                         _______ _______ _______ _____ _____    ______ ____
ROOT
ATOM      1  C   LIG    1        4.983  -3.216  -1.055  0.00  0.00    +0.178 C 
ENDROOT
BRANCH   1   6
ATOM      2 CL   LIG    1        0.076  -1.362  -4.139  0.00  0.00    -0.084 Cl
ATOM      3  C   LIG    1        1.461  -1.886  -3.258  0.00  0.00    +0.041 A 
ATOM      4  C   LIG    1        1.401  -3.034  -2.486  0.00  0.00    +0.020 A 
ATOM      5  C   LIG    1        2.529  -3.463  -1.773  0.00  0.00    +0.008 A 
ATOM      6  C   LIG    1        3.739  -2.744  -1.827  0.00  0.00    -0.014 A 
ATOM      7  C   LIG    1        3.777  -1.587  -2.620  0.00  0.00    +0.008 A 
ATOM      8  C   LIG    1        2.648  -1.152  -3.328  0.00  0.00    +0.020 A 
ENDBRANCH   1   6
BRANCH   1   9
ATOM      9  C   LIG    1        5.953  -4.016  -1.928  0.00  0.00    -0.015 A 
ATOM     10  C   LIG    1        7.262  -3.550  -2.143  0.00  0.00    +0.006 A 
ATOM     11  C   LIG    1        8.160  -4.267  -2.937  0.00  0.00    +0.000 A 
ATOM     12  C   LIG    1        7.785  -5.492  -3.487  0.00  0.00    +0.000 A 
ATOM     13  C   LIG    1        6.505  -5.986  -3.254  0.00  0.00    +0.000 A 
ATOM     14  C   LIG    1        5.588  -5.247  -2.500  0.00  0.00    +0.006 A 
ENDBRANCH   1   9
BRANCH   1  15
ATOM     15  O   LIG    1        4.573  -3.975   0.103  0.00  0.00    -0.366 OA
BRANCH  15  16
ATOM     16  C   LIG    1        5.628  -4.195   1.054  0.00  0.00    +0.176 C 
BRANCH  16  17
ATOM     17  C   LIG    1        5.077  -4.962   2.277  0.00  0.00    +0.112 C 
BRANCH  17  18
ATOM     18  N   LIG    1        6.068  -5.260   3.336  0.00  0.00    -0.300 NA
ATOM     19  C   LIG    1        5.441  -5.909   4.504  0.00  0.00    +0.084 C 
ATOM     20  C   LIG    1        5.002  -7.356   4.252  0.00  0.00    +0.015 C 
ATOM     21  C   LIG    1        6.146  -8.205   3.705  0.00  0.00    +0.002 C 
ATOM     22  C   LIG    1        6.852  -7.514   2.542  0.00  0.00    +0.015 C 
ATOM     23  C   LIG    1        7.212  -6.068   2.887  0.00  0.00    +0.084 C 
ENDBRANCH  17  18
ENDBRANCH  16  17
ENDBRANCH  15  16
ENDBRANCH   1  15
TORSDOF 6
