REMARK  Name = *****
REMARK                            x       y       z     vdW  Elec       q    Type
REMARK                         _______ _______ _______ _____ _____    ______ ____
ROOT
ATOM      1  C   LIG    1        3.162   1.495   1.014  0.00  0.00    +0.005 C 
ATOM      2  C   LIG    1        3.335   2.967   0.521  0.00  0.00    +0.033 C 
ATOM      3  C   LIG    1        3.912   3.898   1.610  0.00  0.00    +0.019 C 
ATOM      4  C   LIG    1        1.874   3.425   0.212  0.00  0.00    +0.013 C 
ATOM      5  C   LIG    1        1.340   3.073  -1.191  0.00  0.00    +0.063 C 
ATOM      6  C   LIG    1        2.312   3.393  -2.337  0.00  0.00    +0.013 C 
ATOM      7  C   LIG    1        3.635   2.676  -2.069  0.00  0.00    +0.079 C 
ATOM      8  C   LIG    1        2.404   4.915  -2.787  0.00  0.00    -0.024 C 
ATOM      9  C   LIG    1        2.310   4.904  -4.341  0.00  0.00    +0.012 C 
ATOM     10  C   LIG    1        1.268   5.762  -2.146  0.00  0.00    +0.009 C 
ATOM     11  C   LIG    1        1.168   7.165  -2.750  0.00  0.00    +0.079 C 
ATOM     12  C   LIG    1        2.496   7.894  -2.741  0.00  0.00    +0.134 C 
ATOM     13  O   LIG    1        2.520   9.126  -2.800  0.00  0.00    -0.297 OA
ATOM     14  C   LIG    1        3.787   7.105  -2.840  0.00  0.00    +0.075 C 
ATOM     15  C   LIG    1       -0.080   5.053  -2.162  0.00  0.00    +0.079 C 
ATOM     16  C   LIG    1        3.710   5.645  -2.385  0.00  0.00    +0.015 C 
ATOM     17  C   LIG    1       -0.022   3.702  -1.485  0.00  0.00    +0.137 C 
ATOM     18  O   LIG    1       -1.065   3.112  -1.196  0.00  0.00    -0.297 OA
ATOM     19  C   LIG    1        1.038   2.740   1.304  0.00  0.00    +0.005 C 
ATOM     20  C   LIG    1        4.224   3.060  -0.732  0.00  0.00    +0.140 C 
ATOM     21  O   LIG    1        5.409   3.393  -0.672  0.00  0.00    -0.297 OA
ATOM     22  C   LIG    1        1.814   1.513   1.762  0.00  0.00    +0.005 C 
ENDROOT
BRANCH   1  24
ATOM     23  C   LIG    1        5.653   0.825   1.225  0.00  0.00    +0.008 C 
ATOM     24  C   LIG    1        4.282   0.866   1.905  0.00  0.00    -0.010 C 
BRANCH  24  25
ATOM     25  C   LIG    1        3.929  -0.554   2.433  0.00  0.00    +0.015 C 
BRANCH  25  26
ATOM     26  C   LIG    1        3.852  -1.641   1.363  0.00  0.00    +0.121 C 
BRANCH  26  27
ATOM     27  C   LIG    1        3.504  -2.973   1.977  0.00  0.00    +0.305 C 
ATOM     28  O   LIG    1        2.357  -3.376   2.122  0.00  0.00    -0.251 OA
BRANCH  27  29
ATOM     29  O   LIG    1        4.579  -3.680   2.386  0.00  0.00    -0.481 OA
ATOM     30  H   LIG    1        5.434  -3.241   2.223  0.00  0.00    +0.295 HD
ENDBRANCH  27  29
ENDBRANCH  26  27
ENDBRANCH  25  26
ENDBRANCH  24  25
ENDBRANCH   1  24
TORSDOF 5
