REMARK  Name = *****
REMARK                            x       y       z     vdW  Elec       q    Type
REMARK                         _______ _______ _______ _____ _____    ______ ____
ROOT
ATOM      1  C   LIG    1        4.776  -0.838   0.477  0.00  0.00    -0.046 A 
ATOM      2  C   LIG    1        5.300  -1.638  -0.548  0.00  0.00    +0.007 A 
ATOM      3  C   LIG    1        6.653  -1.561  -0.882  0.00  0.00    +0.045 A 
ATOM      4  C   LIG    1        7.483  -0.682  -0.199  0.00  0.00    +0.117 A 
ATOM      5  C   LIG    1        6.986   0.117   0.825  0.00  0.00    +0.045 A 
ATOM      6  C   LIG    1        5.633   0.033   1.165  0.00  0.00    +0.007 A 
ENDROOT
BRANCH   4   7
ATOM      7  O   LIG    1        8.794  -0.626  -0.569  0.00  0.00    -0.507 OA
ATOM      8  H   LIG    1        9.236   0.055  -0.037  0.00  0.00    +0.292 HD
ENDBRANCH   4   7
BRANCH   1   9
ATOM      9  C   LIG    1        3.306  -0.903   0.823  0.00  0.00    +0.053 C 
BRANCH   9  11
ATOM     10  C   LIG    1        2.665   1.521   0.312  0.00  0.00    +0.024 C 
ATOM     11  C   LIG    1        2.424   0.047  -0.017  0.00  0.00    +0.052 C 
BRANCH  11  12
ATOM     12  N   LIG    1        1.000  -0.237   0.217  0.00  0.00    -0.327 NA
ATOM     13  H   LIG    1        0.808  -1.219   0.021  0.00  0.00    +0.118 HD
ATOM     14  H   LIG    1        0.774  -0.092   1.201  0.00  0.00    +0.118 HD
ENDBRANCH  11  12
ENDBRANCH   9  11
ENDBRANCH   1   9
TORSDOF 4
