REMARK  Name = *****
REMARK                            x       y       z     vdW  Elec       q    Type
REMARK                         _______ _______ _______ _____ _____    ______ ____
ROOT
ATOM      1  C   LIG    1        5.738   0.423  -2.800  0.00  0.00    +0.338 C 
ATOM      2  O   LIG    1        5.482   1.521  -3.267  0.00  0.00    -0.245 OA
ENDROOT
BRANCH   1   5
ATOM      3  C   LIG    1        2.190  -0.743  -1.809  0.00  0.00    +0.065 C 
ATOM      4  C   LIG    1        3.341   0.246  -1.990  0.00  0.00    +0.096 C 
ATOM      5  C   LIG    1        4.702  -0.450  -2.172  0.00  0.00    +0.065 C 
ATOM      6  C   LIG    1        4.836  -1.768  -1.878  0.00  0.00    +0.016 C 
ATOM      7  C   LIG    1        6.106  -2.571  -2.012  0.00  0.00    +0.061 C 
ATOM      8  N   LIG    1        3.728  -2.502  -1.478  0.00  0.00    -0.321 N 
ATOM      9  H   LIG    1        3.857  -3.502  -1.343  0.00  0.00    +0.152 HD
ATOM     10  C   LIG    1        2.420  -2.054  -1.574  0.00  0.00    +0.016 C 
ATOM     11  C   LIG    1        1.369  -3.125  -1.416  0.00  0.00    +0.061 C 
BRANCH   4  12
ATOM     12  C   LIG    1        3.389   1.280  -0.844  0.00  0.00    -0.029 A 
ATOM     13  C   LIG    1        3.238   0.908   0.505  0.00  0.00    +0.088 A 
ATOM     14  C   LIG    1        3.273   1.885   1.516  0.00  0.00    +0.273 A 
ATOM     15  C   LIG    1        3.497   3.232   1.206  0.00  0.00    +0.084 A 
ATOM     16  C   LIG    1        3.665   3.604  -0.125  0.00  0.00    +0.007 A 
ATOM     17  C   LIG    1        3.598   2.641  -1.137  0.00  0.00    +0.005 A 
BRANCH  14  18
ATOM     18  N   LIG    1        3.054   1.495   2.914  0.00  0.00    +0.080 N 
ATOM     19  O   LIG    1        2.840   0.298   3.154  0.00  0.00    -0.576 OA
ATOM     20  O   LIG    1        3.084   2.387   3.775  0.00  0.00    +0.041 OA
ENDBRANCH  14  18
ENDBRANCH   4  12
BRANCH   3  21
ATOM     21  C   LIG    1        0.848  -0.106  -1.845  0.00  0.00    +0.337 C 
ATOM     22  O   LIG    1        0.529   0.791  -2.588  0.00  0.00    -0.245 OA
BRANCH  21  24
ATOM     23  C   LIG    1       -0.638   0.503  -0.164  0.00  0.00    +0.280 C 
ATOM     24  O   LIG    1        0.194  -0.508  -0.710  0.00  0.00    -0.465 OA
ENDBRANCH  21  24
ENDBRANCH   3  21
ENDBRANCH   1   5
BRANCH   1  25
ATOM     25  O   LIG    1        6.959  -0.160  -2.855  0.00  0.00    -0.460 OA
BRANCH  25  26
ATOM     26  C   LIG    1        7.979   0.559  -3.580  0.00  0.00    +0.247 C 
BRANCH  26  27
ATOM     27  C   LIG    1        7.694   0.533  -5.093  0.00  0.00    +0.125 C 
BRANCH  27  28
ATOM     28  N   LIG    1        8.804   1.033  -5.927  0.00  0.00    -0.297 NA
ATOM     29  C   LIG    1        9.861   0.017  -6.132  0.00  0.00    +0.100 C 
ATOM     30  C   LIG    1        9.501  -1.133  -7.118  0.00  0.00    +0.100 C 
ATOM     31  N   LIG    1        8.975  -0.705  -8.444  0.00  0.00    -0.289 NA
ATOM     32  C   LIG    1        7.897   0.278  -8.170  0.00  0.00    +0.100 C 
ATOM     33  C   LIG    1        8.296   1.452  -7.251  0.00  0.00    +0.100 C 
BRANCH  31  34
ATOM     34  C   LIG    1       10.055  -0.170  -9.337  0.00  0.00    +0.117 C 
BRANCH  34  35
ATOM     35  C   LIG    1        9.555   0.471 -10.657  0.00  0.00    -0.026 A 
ATOM     36  C   LIG    1        8.362   0.091 -11.302  0.00  0.00    +0.005 A 
ATOM     37  C   LIG    1        7.888   0.783 -12.425  0.00  0.00    +0.000 A 
ATOM     38  C   LIG    1        8.618   1.843 -12.955  0.00  0.00    +0.000 A 
ATOM     39  C   LIG    1        9.820   2.213 -12.359  0.00  0.00    +0.000 A 
ATOM     40  C   LIG    1       10.286   1.534 -11.226  0.00  0.00    +0.005 A 
ENDBRANCH  34  35
BRANCH  34  41
ATOM     41  C   LIG    1       11.171  -1.208  -9.587  0.00  0.00    -0.026 A 
ATOM     42  C   LIG    1       12.480  -0.955  -9.128  0.00  0.00    +0.005 A 
ATOM     43  C   LIG    1       13.509  -1.884  -9.318  0.00  0.00    +0.000 A 
ATOM     44  C   LIG    1       13.257  -3.075  -9.991  0.00  0.00    +0.000 A 
ATOM     45  C   LIG    1       11.965  -3.356 -10.432  0.00  0.00    +0.000 A 
ATOM     46  C   LIG    1       10.925  -2.441 -10.214  0.00  0.00    +0.005 A 
ENDBRANCH  34  41
ENDBRANCH  31  34
ENDBRANCH  27  28
ENDBRANCH  26  27
ENDBRANCH  25  26
ENDBRANCH   1  25
TORSDOF 12
