REMARK  Name = *****
REMARK                            x       y       z     vdW  Elec       q    Type
REMARK                         _______ _______ _______ _____ _____    ______ ____
ROOT
ATOM      1  O   LIG    1        1.437   0.733   1.144  0.00  0.00    -0.461 OA
ENDROOT
BRANCH   1  10
ATOM      2  C   LIG    1        4.957   3.368  -0.258  0.00  0.00    +0.193 C 
ATOM      3  N   LIG    1        4.907   1.939  -0.773  0.00  0.00    +0.247 N 
ATOM      4  C   LIG    1        6.135   1.780  -1.685  0.00  0.00    +0.193 C 
ATOM      5  C   LIG    1        4.881   0.811   0.293  0.00  0.00    +0.102 C 
ATOM      6  C   LIG    1        4.508  -0.448  -0.471  0.00  0.00    +0.201 C 
ATOM      7  C   LIG    1        3.696   0.013  -1.650  0.00  0.00    +0.201 C 
ATOM      8  O   LIG    1        3.129  -0.782  -0.612  0.00  0.00    -0.357 OA
ATOM      9  C   LIG    1        3.818   1.137   1.351  0.00  0.00    +0.102 C 
ATOM     10  C   LIG    1        2.476   1.667   0.792  0.00  0.00    +0.187 C 
ATOM     11  C   LIG    1        2.400   1.962  -0.729  0.00  0.00    +0.102 C 
ATOM     12  C   LIG    1        3.625   1.528  -1.539  0.00  0.00    +0.102 C 
ENDBRANCH   1  10
BRANCH   1  13
ATOM     13  C   LIG    1        0.178   1.266   1.231  0.00  0.00    +0.317 C 
ATOM     14  O   LIG    1       -0.060   2.468   1.137  0.00  0.00    -0.250 OA
BRANCH  13  15
ATOM     15  C   LIG    1       -0.848   0.171   1.438  0.00  0.00    +0.153 C 
BRANCH  15  16
ATOM     16  C   LIG    1       -1.064  -0.124   2.910  0.00  0.00    -0.032 A 
ATOM     17  C   LIG    1       -1.596   0.838   3.782  0.00  0.00    +0.004 A 
ATOM     18  C   LIG    1       -1.785   0.544   5.133  0.00  0.00    +0.000 A 
ATOM     19  C   LIG    1       -1.443  -0.711   5.631  0.00  0.00    +0.000 A 
ATOM     20  C   LIG    1       -0.911  -1.675   4.778  0.00  0.00    +0.000 A 
ATOM     21  C   LIG    1       -0.723  -1.385   3.425  0.00  0.00    +0.004 A 
ENDBRANCH  15  16
BRANCH  15  22
ATOM     22  C   LIG    1       -2.142   0.551   0.710  0.00  0.00    +0.175 C 
BRANCH  22  23
ATOM     23  O   LIG    1       -1.899   0.649  -0.695  0.00  0.00    -0.394 OA
ATOM     24  H   LIG    1       -2.731   0.956  -1.099  0.00  0.00    +0.209 HD
ENDBRANCH  22  23
ENDBRANCH  15  22
ENDBRANCH  13  15
ENDBRANCH   1  13
TORSDOF 6
