REMARK  Name = *****
REMARK                            x       y       z     vdW  Elec       q    Type
REMARK                         _______ _______ _______ _____ _____    ______ ____
ROOT
ATOM      1  C   LIG    1        4.471  -8.458  -0.091  0.00  0.00    +0.080 A 
ATOM      2  N   LIG    1        3.209  -8.091   0.225  0.00  0.00    -0.214 NA
ATOM      3  C   LIG    1        2.309  -8.050  -0.754  0.00  0.00    +0.216 A 
ATOM      4  N   LIG    1        2.550  -8.379  -2.021  0.00  0.00    -0.180 NA
ATOM      5  C   LIG    1        3.808  -8.740  -2.302  0.00  0.00    +0.221 A 
ATOM      6  C   LIG    1        4.820  -8.806  -1.378  0.00  0.00    +0.095 A 
ENDROOT
BRANCH   1  10
ATOM      7  C   LIG    1        7.157  -8.827   3.254  0.00  0.00    -0.045 A 
ATOM      8  C   LIG    1        7.636  -8.373   2.018  0.00  0.00    +0.004 A 
ATOM      9  C   LIG    1        6.771  -8.229   0.928  0.00  0.00    +0.010 A 
ATOM     10  C   LIG    1        5.405  -8.534   1.046  0.00  0.00    +0.001 A 
ATOM     11  C   LIG    1        4.936  -8.942   2.308  0.00  0.00    +0.010 A 
ATOM     12  C   LIG    1        5.794  -9.086   3.398  0.00  0.00    +0.004 A 
BRANCH   7  13
ATOM     13  C   LIG    1        8.088  -8.994   4.429  0.00  0.00    +0.065 C 
BRANCH  13  14
ATOM     14  C   LIG    1        8.179  -7.742   5.310  0.00  0.00    +0.165 C 
BRANCH  14  15
ATOM     15  N   LIG    1        8.631  -6.553   4.545  0.00  0.00    -0.318 NA
ATOM     16  H   LIG    1        8.632  -5.741   5.161  0.00  0.00    +0.119 HD
ATOM     17  H   LIG    1        9.603  -6.703   4.273  0.00  0.00    +0.119 HD
ENDBRANCH  14  15
BRANCH  14  18
ATOM     18  C   LIG    1        9.129  -8.055   6.473  0.00  0.00    +0.324 C 
ATOM     19  O   LIG    1        8.786  -8.597   7.508  0.00  0.00    -0.249 OA
BRANCH  18  20
ATOM     20  O   LIG    1       10.411  -7.679   6.168  0.00  0.00    -0.464 OA
BRANCH  20  22
ATOM     21  C   LIG    1       11.260  -6.792   8.249  0.00  0.00    +0.048 C 
ATOM     22  C   LIG    1       11.370  -7.895   7.212  0.00  0.00    +0.229 C 
ENDBRANCH  20  22
ENDBRANCH  18  20
ENDBRANCH  14  18
ENDBRANCH  13  14
ENDBRANCH   7  13
ENDBRANCH   1  10
BRANCH   3  23
ATOM     23  N   LIG    1        1.017  -7.719  -0.408  0.00  0.00    -0.327 N 
ATOM     24  H   LIG    1        0.876  -7.905   0.576  0.00  0.00    +0.145 HD
ATOM     25  H   LIG    1        0.368  -8.138  -1.058  0.00  0.00    +0.145 HD
ENDBRANCH   3  23
BRANCH   5  26
ATOM     26  O   LIG    1        4.123  -9.085  -3.603  0.00  0.00    -0.459 OA
BRANCH  26  27
ATOM     27  C   LIG    1        3.282  -8.411  -4.590  0.00  0.00    +0.311 C 
BRANCH  27  28
ATOM     28  C   LIG    1        3.616  -9.025  -5.965  0.00  0.00    +0.027 A 
ATOM     29  C   LIG    1        2.655  -9.294  -6.977  0.00  0.00    +0.074 A 
ATOM     30  C   LIG    1        3.058  -9.905  -8.184  0.00  0.00    +0.048 A 
ATOM     31  C   LIG    1        4.397 -10.220  -8.405  0.00  0.00    +0.043 A 
ATOM     32 CL   LIG    1        4.873 -10.927  -9.900  0.00  0.00    -0.084 Cl
ATOM     33  C   LIG    1        5.352  -9.952  -7.435  0.00  0.00    +0.020 A 
ATOM     34  C   LIG    1        4.965  -9.361  -6.230  0.00  0.00    +0.011 A 
BRANCH  29  35
ATOM     35  N   LIG    1        1.279  -8.939  -6.854  0.00  0.00    -0.239 N 
ATOM     36  N   LIG    1        0.884  -7.896  -6.089  0.00  0.00    -0.172 NA
ATOM     37  C   LIG    1       -0.437  -7.799  -6.279  0.00  0.00    +0.060 A 
ATOM     38  C   LIG    1       -1.222  -6.739  -5.599  0.00  0.00    +0.067 C 
ATOM     39  C   LIG    1       -0.915  -8.805  -7.140  0.00  0.00    +0.044 A 
ATOM     40  C   LIG    1        0.202  -9.523  -7.490  0.00  0.00    +0.115 A 
ENDBRANCH  29  35
ENDBRANCH  27  28
BRANCH  27  41
ATOM     41  C   LIG    1        3.502  -6.873  -4.571  0.00  0.00    +0.431 C 
ATOM     42  F   LIG    1        2.378  -6.184  -4.271  0.00  0.00    -0.167 F 
ATOM     43  F   LIG    1        3.965  -6.395  -5.755  0.00  0.00    -0.167 F 
ATOM     44  F   LIG    1        4.439  -6.508  -3.652  0.00  0.00    -0.167 F 
ENDBRANCH  27  41
ENDBRANCH  26  27
ENDBRANCH   5  26
TORSDOF 13
