REMARK  Name = *****
REMARK                            x       y       z     vdW  Elec       q    Type
REMARK                         _______ _______ _______ _____ _____    ______ ____
ROOT
ATOM      1  N   LIG    1        6.488  -2.662  -0.443  0.00  0.00    -0.299 N 
ATOM      2  C   LIG    1        7.160  -2.325  -1.644  0.00  0.00    +0.038 A 
ATOM      3  C   LIG    1        8.569  -2.382  -1.698  0.00  0.00    -0.016 A 
ATOM      4  C   LIG    1        9.236  -2.117  -2.923  0.00  0.00    +0.006 A 
ATOM      5  C   LIG    1        8.548  -1.778  -4.078  0.00  0.00    +0.000 A 
ATOM      6  C   LIG    1        7.170  -1.670  -4.024  0.00  0.00    +0.002 A 
ATOM      7  C   LIG    1        9.398  -2.705  -0.446  0.00  0.00    +0.019 C 
ATOM      8  C   LIG    1       10.293  -3.937  -0.746  0.00  0.00    +0.021 C 
ATOM      9  C   LIG    1       10.286  -1.470  -0.141  0.00  0.00    +0.021 C 
ATOM     10  C   LIG    1        8.562  -3.015   0.804  0.00  0.00    -0.016 A 
ATOM     11  C   LIG    1        9.220  -3.322   2.023  0.00  0.00    +0.006 A 
ATOM     12  C   LIG    1        8.522  -3.621   3.183  0.00  0.00    +0.000 A 
ATOM     13  C   LIG    1        7.138  -3.640   3.145  0.00  0.00    +0.002 A 
ATOM     14  C   LIG    1        6.475  -3.347   1.950  0.00  0.00    +0.024 A 
ATOM     15  C   LIG    1        6.498  -1.933  -2.825  0.00  0.00    +0.024 A 
ATOM     16  C   LIG    1        7.152  -3.009   0.759  0.00  0.00    +0.038 A 
ENDROOT
BRANCH   1  17
ATOM     17  C   LIG    1        5.008  -2.747  -0.467  0.00  0.00    +0.112 C 
BRANCH  17  18
ATOM     18  C   LIG    1        4.353  -1.444   0.014  0.00  0.00    +0.035 C 
BRANCH  18  19
ATOM     19  C   LIG    1        2.824  -1.573   0.085  0.00  0.00    +0.085 C 
BRANCH  19  21
ATOM     20  C   LIG    1        0.750  -2.141  -1.009  0.00  0.00    +0.104 C 
ATOM     21  N   LIG    1        2.187  -1.929  -1.196  0.00  0.00    -0.308 NA
ATOM     22  C   LIG    1        2.405  -0.909  -2.223  0.00  0.00    +0.104 C 
ENDBRANCH  19  21
ENDBRANCH  18  19
ENDBRANCH  17  18
ENDBRANCH   1  17
TORSDOF 4
