REMARK  Name = *****
REMARK                            x       y       z     vdW  Elec       q    Type
REMARK                         _______ _______ _______ _____ _____    ______ ____
ROOT
ATOM      1  C   LIG    1       -5.361   0.075  -0.352  0.00  0.00    +0.064 C 
ATOM      2  C   LIG    1       -6.504  -0.652  -1.116  0.00  0.00    +0.007 C 
ATOM      3  C   LIG    1       -5.804  -1.051  -2.412  0.00  0.00    +0.009 C 
ATOM      4  C   LIG    1       -5.425   0.391  -2.759  0.00  0.00    -0.002 C 
ATOM      5  C   LIG    1       -6.799   1.089  -2.742  0.00  0.00    +0.004 C 
ATOM      6  C   LIG    1       -7.553   0.347  -1.637  0.00  0.00    +0.005 C 
ATOM      7  C   LIG    1       -4.613   0.841  -1.508  0.00  0.00    +0.039 C 
ENDROOT
BRANCH   7   8
ATOM      8  C   LIG    1       -3.113   0.548  -1.542  0.00  0.00    -0.043 A 
ATOM      9  C   LIG    1       -2.465  -0.034  -2.642  0.00  0.00    +0.004 A 
ATOM     10  C   LIG    1       -1.087  -0.273  -2.631  0.00  0.00    +0.000 A 
ATOM     11  C   LIG    1       -0.328   0.069  -1.516  0.00  0.00    +0.000 A 
ATOM     12  C   LIG    1       -0.944   0.660  -0.420  0.00  0.00    +0.000 A 
ATOM     13  C   LIG    1       -2.322   0.904  -0.434  0.00  0.00    +0.004 A 
ENDBRANCH   7   8
BRANCH   1  14
ATOM     14  N   LIG    1       -5.834   0.960   0.723  0.00  0.00    -0.313 NA
ATOM     15  H   LIG    1       -5.045   1.470   1.117  0.00  0.00    +0.122 HD
BRANCH  14  17
ATOM     16  C   LIG    1       -6.992   1.179   2.872  0.00  0.00    +0.020 C 
ATOM     17  C   LIG    1       -6.519   0.224   1.786  0.00  0.00    +0.077 C 
ENDBRANCH  14  17
ENDBRANCH   1  14
TORSDOF 3
