REMARK  Name = *****
REMARK                            x       y       z     vdW  Elec       q    Type
REMARK                         _______ _______ _______ _____ _____    ______ ____
ROOT
ATOM      1  C   LIG    1       -3.296  -2.360  -0.637  0.00  0.00    +0.132 C 
ATOM      2  C   LIG    1       -3.493  -1.946  -2.148  0.00  0.00    +0.017 C 
ATOM      3  C   LIG    1       -4.022  -0.466  -2.085  0.00  0.00    +0.003 C 
ATOM      4  C   LIG    1       -5.367  -0.232  -2.829  0.00  0.00    +0.001 C 
ATOM      5  C   LIG    1       -5.315  -0.796  -4.278  0.00  0.00    +0.025 C 
ATOM      6  C   LIG    1       -5.000  -2.294  -4.217  0.00  0.00    -0.072 C 
ATOM      7  C   LIG    1       -5.276  -3.144  -5.221  0.00  0.00    +0.008 C 
ATOM      8  C   LIG    1       -4.382   0.077  -5.195  0.00  0.00    +0.022 C 
ATOM      9  C   LIG    1       -4.729   1.563  -5.090  0.00  0.00    -0.070 C 
ATOM     10  C   LIG    1       -4.850   2.365  -6.165  0.00  0.00    -0.027 C 
ATOM     11  C   LIG    1       -4.587   1.921  -7.571  0.00  0.00    +0.027 C 
ATOM     12  C   LIG    1       -3.802   0.616  -7.623  0.00  0.00    +0.005 C 
ATOM     13  C   LIG    1       -4.893   2.120  -3.699  0.00  0.00    +0.031 C 
ATOM     14  C   LIG    1       -4.398  -0.407  -6.663  0.00  0.00    +0.009 C 
ATOM     15  C   LIG    1       -5.800   1.244  -2.845  0.00  0.00    +0.009 C 
ATOM     16  C   LIG    1       -4.104  -0.102  -0.595  0.00  0.00    +0.008 C 
ATOM     17  C   LIG    1       -4.521  -2.849  -2.886  0.00  0.00    +0.041 C 
ATOM     18  C   LIG    1       -3.101  -1.019   0.083  0.00  0.00    +0.049 C 
ENDROOT
BRANCH   1  20
ATOM     19  C   LIG    1       -5.356  -3.655   0.494  0.00  0.00    +0.007 C 
ATOM     20  C   LIG    1       -4.444  -3.071  -0.026  0.00  0.00    -0.070 C 
ENDBRANCH   1  20
BRANCH   1  21
ATOM     21  O   LIG    1       -2.153  -3.182  -0.450  0.00  0.00    -0.376 OA
ATOM     22  H   LIG    1       -2.111  -3.402   0.496  0.00  0.00    +0.211 HD
ENDBRANCH   1  21
BRANCH   2  23
ATOM     23  C   LIG    1       -2.152  -2.045  -2.966  0.00  0.00    +0.008 C 
ATOM     24  C   LIG    1       -0.956  -1.220  -2.501  0.00  0.00    +0.004 C 
ENDBRANCH   2  23
TORSDOF 3
