REMARK  Name = *****
REMARK                            x       y       z     vdW  Elec       q    Type
REMARK                         _______ _______ _______ _____ _____    ______ ____
ROOT
ATOM      1  C   LIG    1        5.444  -5.484  -1.300  0.00  0.00    -0.046 A 
ATOM      2  C   LIG    1        4.752  -6.542  -1.921  0.00  0.00    +0.005 A 
ATOM      3  C   LIG    1        5.391  -7.761  -2.197  0.00  0.00    +0.029 A 
ATOM      4  C   LIG    1        6.722  -7.942  -1.804  0.00  0.00    +0.113 A 
ATOM      5  C   LIG    1        7.423  -6.899  -1.200  0.00  0.00    +0.029 A 
ATOM      6  C   LIG    1        6.781  -5.688  -0.935  0.00  0.00    +0.005 A 
ENDROOT
BRANCH   4   7
ATOM      7  S   LIG    1        7.500  -9.545  -1.980  0.00  0.00    +0.103 S 
ATOM      8  O   LIG    1        8.791  -9.465  -1.293  0.00  0.00    -0.146 OA
ATOM      9  O   LIG    1        7.441  -9.877  -3.381  0.00  0.00    -0.146 OA
BRANCH   7  10
ATOM     10  N   LIG    1        6.553 -10.547  -1.152  0.00  0.00    -0.076 NA
ATOM     11  C   LIG    1        6.661 -10.840   0.088  0.00  0.00    +0.299 C 
BRANCH  11  12
ATOM     12  N   LIG    1        5.806 -11.638   0.765  0.00  0.00    -0.295 N 
ATOM     13  H   LIG    1        5.911 -11.646   1.772  0.00  0.00    +0.151 HD
BRANCH  12  14
ATOM     14  C   LIG    1        5.098 -12.750   0.144  0.00  0.00    +0.075 C 
ATOM     15  C   LIG    1        5.975 -14.010   0.061  0.00  0.00    +0.022 C 
ATOM     16  C   LIG    1        6.206 -14.677   1.416  0.00  0.00    +0.002 C 
ATOM     17  C   LIG    1        4.890 -14.961   2.133  0.00  0.00    +0.000 C 
ATOM     18  C   LIG    1        4.022 -13.713   2.255  0.00  0.00    +0.002 C 
ATOM     19  C   LIG    1        3.801 -13.027   0.907  0.00  0.00    +0.022 C 
ENDBRANCH  12  14
ENDBRANCH  11  12
BRANCH  11  20
ATOM     20  O   LIG    1        7.649 -10.437   0.915  0.00  0.00    -0.481 OA
ATOM     21  H   LIG    1        8.420 -10.085   0.430  0.00  0.00    +0.295 HD
ENDBRANCH  11  20
ENDBRANCH   7  10
ENDBRANCH   4   7
BRANCH   1  22
ATOM     22  C   LIG    1        4.714  -4.195  -0.965  0.00  0.00    +0.054 C 
BRANCH  22  23
ATOM     23  C   LIG    1        5.554  -2.901  -0.922  0.00  0.00    +0.109 C 
BRANCH  23  25
ATOM     24  C   LIG    1        7.404  -1.930  -2.289  0.00  0.00    +0.248 C 
ATOM     25  N   LIG    1        6.201  -2.595  -2.189  0.00  0.00    -0.311 N 
ATOM     26  H   LIG    1        5.716  -2.817  -3.049  0.00  0.00    +0.149 HD
ATOM     27  O   LIG    1        8.004  -1.486  -1.315  0.00  0.00    -0.270 OA
BRANCH  24  29
ATOM     28  C   LIG    1        7.757  -2.618  -4.746  0.00  0.00    +0.132 A 
ATOM     29  C   LIG    1        7.965  -1.729  -3.670  0.00  0.00    +0.080 A 
ATOM     30  C   LIG    1        8.770  -0.589  -3.872  0.00  0.00    +0.036 A 
ATOM     31  C   LIG    1        9.387  -0.367  -5.104  0.00  0.00    +0.042 A 
ATOM     32 CL   LIG    1       10.336   1.042  -5.369  0.00  0.00    -0.084 Cl
ATOM     33  C   LIG    1        9.241  -1.281  -6.138  0.00  0.00    +0.023 A 
ATOM     34  C   LIG    1        8.436  -2.401  -5.954  0.00  0.00    +0.048 A 
BRANCH  28  36
ATOM     35  C   LIG    1        6.271  -4.219  -5.719  0.00  0.00    +0.277 C 
ATOM     36  O   LIG    1        6.940  -3.702  -4.568  0.00  0.00    -0.494 OA
ENDBRANCH  28  36
ENDBRANCH  24  29
ENDBRANCH  23  25
ENDBRANCH  22  23
ENDBRANCH   1  22
TORSDOF 10
