REMARK  Name = *****
REMARK                            x       y       z     vdW  Elec       q    Type
REMARK                         _______ _______ _______ _____ _____    ______ ____
ROOT
ATOM      1  C   LIG    1        0.772   3.869  -2.567  0.00  0.00    +0.013 C 
ATOM      2  C   LIG    1        2.084   4.030  -2.812  0.00  0.00    -0.036 C 
ATOM      3  C   LIG    1        2.794   3.827  -4.153  0.00  0.00    +0.085 C 
ATOM      4  C   LIG    1        3.569   5.066  -4.530  0.00  0.00    +0.050 C 
ATOM      5  C   LIG    1        3.739   5.450  -5.809  0.00  0.00    +0.141 C 
ATOM      6  C   LIG    1        3.189   4.671  -6.970  0.00  0.00    +0.192 C 
ATOM      7  C   LIG    1        2.662   3.248  -6.662  0.00  0.00    +0.090 C 
ATOM      8  C   LIG    1        1.904   2.755  -7.955  0.00  0.00    +0.132 C 
ATOM      9  C   LIG    1        2.548   3.274  -9.282  0.00  0.00    +0.127 C 
ATOM     10  C   LIG    1        3.673   4.023  -9.366  0.00  0.00    +0.121 C 
ATOM     11  C   LIG    1        4.253   4.374  -8.042  0.00  0.00    +0.211 C 
ATOM     12  O   LIG    1        5.445   4.220  -7.792  0.00  0.00    -0.288 OA
ATOM     13  C   LIG    1        4.102   5.936  -3.433  0.00  0.00    +0.197 C 
ATOM     14  O   LIG    1        4.574   7.040  -3.696  0.00  0.00    -0.287 OA
ATOM     15  C   LIG    1        4.001   5.427  -2.043  0.00  0.00    +0.071 A 
ATOM     16  C   LIG    1        4.869   5.878  -1.036  0.00  0.00    +0.128 A 
ATOM     17  C   LIG    1        4.736   5.414   0.272  0.00  0.00    +0.046 A 
ATOM     18  C   LIG    1        3.740   4.490   0.579  0.00  0.00    +0.004 A 
ATOM     19  C   LIG    1        2.874   4.035  -0.417  0.00  0.00    +0.009 A 
ATOM     20  C   LIG    1        1.883   3.304  -5.328  0.00  0.00    +0.135 C 
ATOM     21  C   LIG    1        2.986   4.506  -1.736  0.00  0.00    -0.007 A 
ENDROOT
BRANCH  10  22
ATOM     22  C   LIG    1        4.338   4.478 -10.611  0.00  0.00    +0.248 C 
ATOM     23  O   LIG    1        5.479   4.936 -10.636  0.00  0.00    -0.270 OA
ATOM     24  N   LIG    1        3.605   4.423 -11.751  0.00  0.00    -0.325 N 
ATOM     25  H   LIG    1        2.686   3.990 -11.757  0.00  0.00    +0.145 HD
ATOM     26  H   LIG    1        4.036   4.706 -12.618  0.00  0.00    +0.145 HD
ENDBRANCH  10  22
BRANCH   8  27
ATOM     27  N   LIG    1        1.654   1.307  -8.207  0.00  0.00    -0.298 NA
ATOM     28  C   LIG    1        2.856   0.477  -8.301  0.00  0.00    +0.105 C 
ATOM     29  C   LIG    1        0.663   0.678  -7.343  0.00  0.00    +0.105 C 
ENDBRANCH   8  27
BRANCH   5  30
ATOM     30  O   LIG    1        4.301   6.665  -6.178  0.00  0.00    -0.507 OA
ATOM     31  H   LIG    1        4.629   7.118  -5.364  0.00  0.00    +0.292 HD
ENDBRANCH   5  30
BRANCH   6  32
ATOM     32  O   LIG    1        2.127   5.496  -7.464  0.00  0.00    -0.373 OA
ATOM     33  H   LIG    1        2.502   6.401  -7.514  0.00  0.00    +0.211 HD
ENDBRANCH   6  32
BRANCH   9  34
ATOM     34  O   LIG    1        1.887   2.822 -10.424  0.00  0.00    -0.509 OA
ATOM     35  H   LIG    1        1.340   2.068 -10.101  0.00  0.00    +0.292 HD
ENDBRANCH   9  34
BRANCH  16  36
ATOM     36  O   LIG    1        5.882   6.747  -1.325  0.00  0.00    -0.506 OA
ATOM     37  H   LIG    1        6.269   7.095  -0.506  0.00  0.00    +0.292 HD
ENDBRANCH  16  36
BRANCH  20  38
ATOM     38  O   LIG    1        1.389   2.012  -4.976  0.00  0.00    -0.390 OA
ATOM     39  H   LIG    1        2.122   1.478  -4.623  0.00  0.00    +0.210 HD
ENDBRANCH  20  38
TORSDOF 7
