REMARK  Name = *****
REMARK                            x       y       z     vdW  Elec       q    Type
REMARK                         _______ _______ _______ _____ _____    ______ ____
ROOT
ATOM      1  C   LIG    1       10.652   0.697   2.847  0.00  0.00    +0.124 A 
ATOM      2  C   LIG    1       10.172  -0.366   3.634  0.00  0.00    -0.001 A 
ATOM      3  C   LIG    1       10.999  -0.875   4.658  0.00  0.00    +0.007 A 
ATOM      4  C   LIG    1       12.283  -0.390   4.861  0.00  0.00    +0.001 A 
ATOM      5  C   LIG    1       12.767   0.625   4.045  0.00  0.00    +0.004 A 
ATOM      6  C   LIG    1       11.961   1.166   3.036  0.00  0.00    +0.046 A 
ENDROOT
BRANCH   1   7
ATOM      7  O   LIG    1        9.793   1.206   1.899  0.00  0.00    -0.490 OA
BRANCH   7   8
ATOM      8  C   LIG    1       10.006   2.578   1.527  0.00  0.00    +0.244 C 
BRANCH   8   9
ATOM      9  C   LIG    1        8.716   3.142   0.888  0.00  0.00    +0.124 C 
BRANCH   9  11
ATOM     10  C   LIG    1        7.478   5.046   0.032  0.00  0.00    +0.104 C 
ATOM     11  N   LIG    1        8.771   4.583   0.553  0.00  0.00    -0.305 NA
ATOM     12  C   LIG    1        9.816   4.882  -0.426  0.00  0.00    +0.104 C 
ENDBRANCH   9  11
ENDBRANCH   8   9
ENDBRANCH   7   8
ENDBRANCH   1   7
BRANCH   2  13
ATOM     13  C   LIG    1        8.748  -0.888   3.483  0.00  0.00    +0.074 C 
BRANCH  13  14
ATOM     14  C   LIG    1        8.519  -2.323   3.931  0.00  0.00    -0.043 A 
ATOM     15  C   LIG    1        8.704  -3.391   3.040  0.00  0.00    +0.004 A 
ATOM     16  C   LIG    1        8.541  -4.709   3.474  0.00  0.00    +0.000 A 
ATOM     17  C   LIG    1        8.212  -4.976   4.801  0.00  0.00    +0.000 A 
ATOM     18  C   LIG    1        8.040  -3.925   5.700  0.00  0.00    +0.000 A 
ATOM     19  C   LIG    1        8.181  -2.607   5.265  0.00  0.00    +0.004 A 
ENDBRANCH  13  14
ENDBRANCH   2  13
TORSDOF 6
