REMARK  Name = *****
REMARK                            x       y       z     vdW  Elec       q    Type
REMARK                         _______ _______ _______ _____ _____    ______ ____
ROOT
ATOM      1  C   LIG    1        1.270   0.411  -0.313  0.00  0.00    +0.193 C 
ATOM      2  N   LIG    1        2.868   0.596  -1.008  0.00  0.00    +0.246 N 
ATOM      3  C   LIG    1        3.692   0.705   0.390  0.00  0.00    +0.104 C 
ATOM      4  C   LIG    1        4.526   1.510  -0.445  0.00  0.00    +0.123 C 
ATOM      5  C   LIG    1        3.079   2.677  -0.828  0.00  0.00    +0.082 C 
ATOM      6  C   LIG    1        1.623   2.323  -1.966  0.00  0.00    +0.253 C 
ATOM      7  O   LIG    1        1.012   3.634  -1.809  0.00  0.00    -0.476 OA
ATOM      8  C   LIG    1        1.141   3.880  -0.404  0.00  0.00    +0.167 A 
ATOM      9  C   LIG    1        0.118   4.295   0.416  0.00  0.00    +0.159 A 
ATOM     10  C   LIG    1        0.212   4.011   1.788  0.00  0.00    +0.049 A 
ATOM     11  C   LIG    1        1.262   3.207   2.305  0.00  0.00    +0.008 A 
ATOM     12  C   LIG    1        2.266   2.752   1.454  0.00  0.00    -0.034 A 
ATOM     13  C   LIG    1        2.013   0.871  -3.160  0.00  0.00    +0.174 C 
ATOM     14  O   LIG    1        1.154   0.446  -3.930  0.00  0.00    -0.293 OA
ATOM     15  C   LIG    1        3.765   0.151  -3.228  0.00  0.00    +0.081 C 
ATOM     16  C   LIG    1        2.261   3.279   0.185  0.00  0.00    +0.015 A 
ATOM     17  C   LIG    1        3.806   3.503  -1.697  0.00  0.00    +0.070 C 
ATOM     18  C   LIG    1        5.026   0.355  -1.832  0.00  0.00    +0.049 C 
ATOM     19  C   LIG    1        3.126   1.507   1.663  0.00  0.00    +0.092 C 
ATOM     20  C   LIG    1        3.686   2.100  -2.267  0.00  0.00    +0.134 C 
ENDROOT
BRANCH   4  21
ATOM     21  O   LIG    1        5.630   2.130   0.153  0.00  0.00    -0.382 OA
ATOM     22  H   LIG    1        6.400   1.532   0.145  0.00  0.00    +0.210 HD
ENDBRANCH   4  21
BRANCH   9  23
ATOM     23  O   LIG    1       -1.023   4.842  -0.073  0.00  0.00    -0.503 OA
ATOM     24  H   LIG    1       -0.900   4.971  -1.032  0.00  0.00    +0.292 HD
ENDBRANCH   9  23
BRANCH   2  25
ATOM     25  C   LIG    1        2.855  -1.190  -1.309  0.00  0.00    +0.137 C 
BRANCH  25  26
ATOM     26  C   LIG    1        2.394  -2.122  -0.199  0.00  0.00    +0.035 C 
ATOM     27  C   LIG    1        1.066  -2.842  -0.325  0.00  0.00    +0.009 C 
ATOM     28  C   LIG    1        2.346  -3.613  -0.443  0.00  0.00    +0.009 C 
ENDBRANCH  25  26
ENDBRANCH   2  25
TORSDOF 4
