REMARK  Name = *****
REMARK                            x       y       z     vdW  Elec       q    Type
REMARK                         _______ _______ _______ _____ _____    ______ ____
ROOT
ATOM      1  C   LIG    1        8.967   6.174  -5.243  0.00  0.00    +0.027 C 
ENDROOT
BRANCH   1   3
ATOM      2  C   LIG    1        9.968   4.349  -3.667  0.00  0.00    -0.031 C 
ATOM      3  C   LIG    1        9.304   4.787  -4.755  0.00  0.00    -0.031 C 
BRANCH   2   4
ATOM      4  C   LIG    1       10.187   2.854  -3.499  0.00  0.00    +0.027 C 
BRANCH   4   5
ATOM      5  C   LIG    1        9.756   2.063  -2.241  0.00  0.00    +0.004 C 
BRANCH   5   6
ATOM      6  C   LIG    1        8.279   2.004  -1.760  0.00  0.00    +0.000 C 
BRANCH   6   7
ATOM      7  C   LIG    1        7.222   1.357  -2.681  0.00  0.00    +0.000 C 
BRANCH   7   8
ATOM      8  C   LIG    1        5.749   1.411  -2.164  0.00  0.00    -0.000 C 
BRANCH   8   9
ATOM      9  C   LIG    1        5.315   0.589  -0.929  0.00  0.00    -0.000 C 
BRANCH   9  11
ATOM     10  C   LIG    1        3.359   2.129  -0.228  0.00  0.00    +0.004 C 
ATOM     11  C   LIG    1        3.801   0.715  -0.589  0.00  0.00    -0.003 C 
ENDBRANCH   9  11
ENDBRANCH   8   9
ENDBRANCH   7   8
ENDBRANCH   6   7
ENDBRANCH   5   6
ENDBRANCH   4   5
ENDBRANCH   2   4
ENDBRANCH   1   3
BRANCH   1  12
ATOM     12  C   LIG    1        7.532   6.466  -4.801  0.00  0.00    +0.004 C 
BRANCH  12  13
ATOM     13  C   LIG    1        6.882   7.705  -5.403  0.00  0.00    +0.000 C 
BRANCH  13  14
ATOM     14  C   LIG    1        7.569   9.018  -5.040  0.00  0.00    +0.000 C 
BRANCH  14  15
ATOM     15  C   LIG    1        6.840  10.236  -5.618  0.00  0.00    +0.000 C 
BRANCH  15  16
ATOM     16  C   LIG    1        6.777  10.224  -7.151  0.00  0.00    +0.011 C 
BRANCH  16  17
ATOM     17  C   LIG    1        6.036  11.438  -7.733  0.00  0.00    +0.120 C 
BRANCH  17  18
ATOM     18  C   LIG    1        6.724  12.730  -7.406  0.00  0.00    +0.305 C 
ATOM     19  O   LIG    1        6.471  13.397  -6.368  0.00  0.00    -0.251 OA
BRANCH  18  20
ATOM     20  O   LIG    1        7.646  13.126  -8.271  0.00  0.00    -0.481 OA
ATOM     21  H   LIG    1        7.755  12.512  -9.033  0.00  0.00    +0.295 HD
ENDBRANCH  18  20
ENDBRANCH  17  18
ENDBRANCH  16  17
ENDBRANCH  15  16
ENDBRANCH  14  15
ENDBRANCH  13  14
ENDBRANCH  12  13
ENDBRANCH   1  12
TORSDOF 16
