REMARK  Name = *****
REMARK                            x       y       z     vdW  Elec       q    Type
REMARK                         _______ _______ _______ _____ _____    ______ ____
ROOT
ATOM      1  C   LIG    1        3.322  -1.338  -1.935  0.00  0.00    +0.111 C 
ENDROOT
BRANCH   1   3
ATOM      2  O   LIG    1        3.635  -1.700   0.465  0.00  0.00    -0.251 OA
ATOM      3  C   LIG    1        3.178  -2.094  -0.613  0.00  0.00    +0.309 C 
BRANCH   3   4
ATOM      4  O   LIG    1        2.609  -3.309  -0.685  0.00  0.00    -0.480 OA
ATOM      5  H   LIG    1        2.152  -3.501  -1.553  0.00  0.00    +0.295 HD
ENDBRANCH   3   4
ENDBRANCH   1   3
BRANCH   1   6
ATOM      6  C   LIG    1        4.311  -0.136  -1.708  0.00  0.00    +0.050 C 
BRANCH   6   7
ATOM      7  C   LIG    1        4.609   0.739  -2.916  0.00  0.00    -0.047 A 
ATOM      8  C   LIG    1        5.137   0.177  -4.085  0.00  0.00    +0.003 A 
ATOM      9  C   LIG    1        5.322   0.949  -5.237  0.00  0.00    +0.000 A 
ATOM     10  C   LIG    1        5.079   2.318  -5.209  0.00  0.00    +0.000 A 
ATOM     11  C   LIG    1        4.641   2.912  -4.027  0.00  0.00    +0.000 A 
ATOM     12  C   LIG    1        4.387   2.126  -2.893  0.00  0.00    +0.003 A 
ENDBRANCH   6   7
ENDBRANCH   1   6
BRANCH   1  13
ATOM     13  C   LIG    1        1.987  -0.886  -2.579  0.00  0.00    +0.110 C 
BRANCH  13  14
ATOM     14  C   LIG    1        1.072  -2.018  -3.066  0.00  0.00    +0.216 C 
ATOM     15  N   LIG    1        0.190  -1.749  -4.085  0.00  0.00    -0.301 N 
ATOM     16  C   LIG    1       -0.736  -2.764  -4.583  0.00  0.00    +0.111 C 
ATOM     17  C   LIG    1       -1.221  -2.194  -5.915  0.00  0.00    +0.011 C 
ATOM     18  C   LIG    1       -1.246  -0.680  -5.644  0.00  0.00    +0.011 C 
ATOM     19  C   LIG    1       -2.532  -0.206  -4.949  0.00  0.00    +0.005 C 
ATOM     20  C   LIG    1       -3.778  -0.711  -5.667  0.00  0.00    +0.000 C 
ATOM     21  C   LIG    1       -3.782  -2.234  -5.736  0.00  0.00    +0.000 C 
ATOM     22  C   LIG    1       -2.537  -2.767  -6.437  0.00  0.00    +0.005 C 
ATOM     23  C   LIG    1       -0.010  -0.475  -4.759  0.00  0.00    +0.111 C 
ATOM     24  O   LIG    1        1.109  -3.135  -2.554  0.00  0.00    -0.276 OA
ENDBRANCH  13  14
ENDBRANCH   1  13
TORSDOF 6
