REMARK  Name = *****
REMARK                            x       y       z     vdW  Elec       q    Type
REMARK                         _______ _______ _______ _____ _____    ______ ____
ROOT
ATOM      1  C   LIG    1        2.648  -3.755  -0.449  0.00  0.00    +0.221 C 
ATOM      2  C   LIG    1        1.651  -3.997  -1.713  0.00  0.00    +0.168 C 
ATOM      3  C   LIG    1        1.012  -3.203  -2.905  0.00  0.00    +0.136 C 
ATOM      4  N   LIG    1        0.078  -2.279  -2.323  0.00  0.00    -0.260 N 
ATOM      5  C   LIG    1       -0.117  -2.746  -0.995  0.00  0.00    +0.404 C 
ATOM      6  O   LIG    1       -0.688  -2.212  -0.135  0.00  0.00    -0.226 OA
ATOM      7  C   LIG    1        1.896  -2.865  -4.122  0.00  0.00    +0.077 C 
ATOM      8  C   LIG    1        2.057  -4.087  -5.111  0.00  0.00    +0.017 C 
ATOM      9  C   LIG    1        1.309  -1.682  -4.876  0.00  0.00    +0.141 C 
ATOM     10  O   LIG    1        0.360  -1.905  -5.645  0.00  0.00    -0.297 OA
ATOM     11  C   LIG    1        1.770  -0.209  -4.569  0.00  0.00    +0.055 C 
ATOM     12  C   LIG    1        1.424   0.568  -5.865  0.00  0.00    +0.015 C 
ATOM     13  C   LIG    1        3.307  -0.006  -4.260  0.00  0.00    +0.048 C 
ATOM     14  C   LIG    1        3.861   0.665  -2.910  0.00  0.00    +0.094 C 
ATOM     15  C   LIG    1        3.856   2.206  -3.147  0.00  0.00    +0.044 C 
ATOM     16  C   LIG    1        5.482   0.237  -2.615  0.00  0.00    +0.163 C 
ATOM     17  C   LIG    1        6.123  -0.055  -1.195  0.00  0.00    +0.085 C 
ATOM     18  C   LIG    1        7.467   0.694  -1.008  0.00  0.00    +0.018 C 
ATOM     19  C   LIG    1        5.527   0.008   0.245  0.00  0.00    +0.152 C 
ATOM     20  O   LIG    1        5.524   1.132   0.778  0.00  0.00    -0.296 OA
ATOM     21  C   LIG    1        5.092  -1.227   1.115  0.00  0.00    +0.161 C 
ATOM     22  C   LIG    1        5.056  -0.749   2.590  0.00  0.00    +0.027 C 
ATOM     23  C   LIG    1        3.778  -2.068   0.913  0.00  0.00    +0.318 C 
ATOM     24  O   LIG    1        3.208  -2.542   1.897  0.00  0.00    -0.250 OA
ATOM     25  C   LIG    1        2.036  -5.301  -2.398  0.00  0.00    +0.062 C 
ATOM     26  O   LIG    1        0.420  -4.043  -0.947  0.00  0.00    -0.438 OA
ATOM     27  O   LIG    1        3.427  -2.480  -0.372  0.00  0.00    -0.457 OA
ENDROOT
BRANCH   1  29
ATOM     28  C   LIG    1        3.067  -6.490   0.152  0.00  0.00    +0.007 C 
ATOM     29  C   LIG    1        3.535  -5.033   0.010  0.00  0.00    +0.045 C 
ENDBRANCH   1  29
BRANCH  14  30
ATOM     30  O   LIG    1        2.852   0.379  -1.935  0.00  0.00    -0.374 OA
ATOM     31  C   LIG    1        3.061   0.884  -0.640  0.00  0.00    +0.195 C 
ENDBRANCH  14  30
BRANCH   4  32
ATOM     32  C   LIG    1       -1.206  -1.838  -2.984  0.00  0.00    +0.112 C 
BRANCH  32  33
ATOM     33  C   LIG    1       -2.032  -2.969  -3.722  0.00  0.00    +0.021 C 
BRANCH  33  34
ATOM     34  C   LIG    1       -3.403  -2.539  -4.315  0.00  0.00    +0.023 C 
BRANCH  34  35
ATOM     35  C   LIG    1       -4.183  -3.537  -5.257  0.00  0.00    +0.123 C 
BRANCH  35  36
ATOM     36  N   LIG    1       -4.842  -4.767  -4.801  0.00  0.00    -0.336 N 
ATOM     37  C   LIG    1       -4.263  -5.969  -4.413  0.00  0.00    +0.115 A 
ATOM     38  C   LIG    1       -5.283  -6.918  -4.401  0.00  0.00    +0.090 A 
ATOM     39  N   LIG    1       -6.461  -6.314  -4.771  0.00  0.00    -0.236 NA
ATOM     40  C   LIG    1       -6.137  -5.099  -5.146  0.00  0.00    +0.200 A 
BRANCH  38  41
ATOM     41  C   LIG    1       -5.241  -8.376  -4.209  0.00  0.00    +0.020 A 
ATOM     42  C   LIG    1       -6.200  -9.180  -4.845  0.00  0.00    +0.120 A 
ATOM     43  N   LIG    1       -6.328 -10.533  -4.710  0.00  0.00    -0.263 NA
ATOM     44  C   LIG    1       -5.484 -11.131  -3.853  0.00  0.00    +0.111 A 
ATOM     45  C   LIG    1       -4.489 -10.443  -3.175  0.00  0.00    +0.020 A 
ATOM     46  C   LIG    1       -4.351  -9.056  -3.377  0.00  0.00    +0.013 A 
ENDBRANCH  38  41
ENDBRANCH  35  36
ENDBRANCH  34  35
ENDBRANCH  33  34
ENDBRANCH  32  33
ENDBRANCH   4  32
BRANCH  16  47
ATOM     47  O   LIG    1        5.861  -0.903  -3.497  0.00  0.00    -0.342 OA
BRANCH  47  48
ATOM     48  C   LIG    1        7.258  -1.137  -3.872  0.00  0.00    +0.281 C 
ATOM     49  C   LIG    1        8.185  -1.855  -2.822  0.00  0.00    +0.187 C 
ATOM     50  C   LIG    1        7.693  -3.281  -2.469  0.00  0.00    +0.092 C 
ATOM     51  C   LIG    1        6.715  -3.753  -3.541  0.00  0.00    +0.053 C 
ATOM     52  C   LIG    1        7.365  -3.385  -4.850  0.00  0.00    +0.120 C 
ATOM     53  C   LIG    1        6.649  -4.105  -5.959  0.00  0.00    +0.038 C 
ATOM     54  O   LIG    1        7.276  -1.964  -5.080  0.00  0.00    -0.346 OA
BRANCH  50  55
ATOM     55  N   LIG    1        7.203  -3.556  -1.127  0.00  0.00    -0.303 NA
ATOM     56  C   LIG    1        5.816  -3.319  -0.936  0.00  0.00    +0.105 C 
ATOM     57  C   LIG    1        8.010  -3.128   0.004  0.00  0.00    +0.105 C 
ENDBRANCH  50  55
BRANCH  49  58
ATOM     58  O   LIG    1        9.534  -1.896  -3.332  0.00  0.00    -0.385 OA
ATOM     59  H   LIG    1       10.009  -2.611  -2.876  0.00  0.00    +0.210 HD
ENDBRANCH  49  58
ENDBRANCH  47  48
ENDBRANCH  16  47
TORSDOF 12
