REMARK  Name = *****
REMARK                            x       y       z     vdW  Elec       q    Type
REMARK                         _______ _______ _______ _____ _____    ______ ____
ROOT
ATOM      1  C   LIG    1        3.021  -0.133  -1.102  0.00  0.00    +0.208 C 
ENDROOT
BRANCH   1   2
ATOM      2  C   LIG    1        4.047  -1.249  -0.748  0.00  0.00    +0.242 C 
ATOM      3  N   LIG    1        5.063  -0.830   0.093  0.00  0.00    -0.313 N 
ATOM      4  H   LIG    1        4.905   0.037   0.596  0.00  0.00    +0.149 HD
ATOM      5  O   LIG    1        4.003  -2.382  -1.189  0.00  0.00    -0.273 OA
BRANCH   3   6
ATOM      6  C   LIG    1        6.096  -1.752   0.536  0.00  0.00    +0.106 C 
BRANCH   6   7
ATOM      7  C   LIG    1        7.491  -1.190   0.272  0.00  0.00    +0.046 C 
BRANCH   7   8
ATOM      8  C   LIG    1        8.579  -2.162   0.713  0.00  0.00    +0.157 C 
BRANCH   8   9
ATOM      9  O   LIG    1        8.483  -2.424   2.106  0.00  0.00    -0.395 OA
ATOM     10  H   LIG    1        8.606  -1.581   2.575  0.00  0.00    +0.209 HD
ENDBRANCH   8   9
ENDBRANCH   7   8
ENDBRANCH   6   7
ENDBRANCH   3   6
ENDBRANCH   1   2
BRANCH   1  12
ATOM     11  C   LIG    1        2.331  -1.244  -3.309  0.00  0.00    +0.016 C 
ATOM     12  C   LIG    1        1.826  -0.622  -1.988  0.00  0.00    +0.023 C 
ATOM     13  C   LIG    1        0.926   0.576  -2.386  0.00  0.00    +0.016 C 
BRANCH  12  14
ATOM     14  C   LIG    1        0.969  -1.666  -1.239  0.00  0.00    +0.165 C 
BRANCH  14  15
ATOM     15  O   LIG    1        0.472  -1.135  -0.012  0.00  0.00    -0.394 OA
ATOM     16  H   LIG    1       -0.158  -1.792   0.337  0.00  0.00    +0.209 HD
ENDBRANCH  14  15
ENDBRANCH  12  14
ENDBRANCH   1  12
BRANCH   1  17
ATOM     17  O   LIG    1        2.595   0.487   0.118  0.00  0.00    -0.382 OA
ATOM     18  H   LIG    1        1.953  -0.136   0.525  0.00  0.00    +0.210 HD
ENDBRANCH   1  17
TORSDOF 9
