REMARK  Name = *****
REMARK                            x       y       z     vdW  Elec       q    Type
REMARK                         _______ _______ _______ _____ _____    ______ ____
ROOT
ATOM      1  C   LIG    1        2.812  -0.089  -1.687  0.00  0.00    +0.036 C 
ATOM      2  C   LIG    1        2.357   0.271  -0.271  0.00  0.00    +0.140 C 
ENDROOT
BRANCH   2   3
ATOM      3  C   LIG    1        0.855   0.241  -0.095  0.00  0.00    +0.013 A 
ATOM      4  S   LIG    1        0.200  -0.220   1.419  0.00  0.00    -0.091 S 
ATOM      5  C   LIG    1       -1.413   0.113   0.925  0.00  0.00    +0.020 A 
ATOM      6  C   LIG    1       -1.464   0.514  -0.410  0.00  0.00    -0.011 A 
ATOM      7  C   LIG    1       -2.728   0.819  -0.970  0.00  0.00    +0.009 A 
ATOM      8  C   LIG    1       -3.887   0.727  -0.193  0.00  0.00    +0.001 A 
ATOM      9  C   LIG    1       -3.809   0.335   1.137  0.00  0.00    +0.001 A 
ATOM     10  C   LIG    1       -2.577   0.019   1.713  0.00  0.00    +0.015 A 
ATOM     11  C   LIG    1       -0.149   0.569  -0.986  0.00  0.00    +0.021 A 
ENDBRANCH   2   3
BRANCH   2  12
ATOM     12  N   LIG    1        2.858   1.587   0.146  0.00  0.00    -0.160 N 
ATOM     13  C   LIG    1        4.105   1.753   0.702  0.00  0.00    +0.323 C 
ATOM     14  O   LIG    1        4.857   0.853   1.054  0.00  0.00    -0.251 OA
ATOM     15  N   LIG    1        4.471   3.062   0.842  0.00  0.00    -0.312 N 
ATOM     16  H   LIG    1        5.329   3.168   1.370  0.00  0.00    +0.146 HD
ATOM     17  H   LIG    1        3.717   3.663   1.160  0.00  0.00    +0.146 HD
BRANCH  12  18
ATOM     18  O   LIG    1        2.361   2.670  -0.629  0.00  0.00    -0.291 OA
ATOM     19  H   LIG    1        3.182   3.148  -0.860  0.00  0.00    +0.242 HD
ENDBRANCH  12  18
ENDBRANCH   2  12
TORSDOF 3
