REMARK  Name = *****
REMARK                            x       y       z     vdW  Elec       q    Type
REMARK                         _______ _______ _______ _____ _____    ______ ____
ROOT
ATOM      1  C   LIG    1        3.021  -1.068  -3.692  0.00  0.00    -0.023 A 
ATOM      2  C   LIG    1        2.784  -2.434  -3.869  0.00  0.00    +0.036 A 
ATOM      3  C   LIG    1        3.308  -3.090  -4.979  0.00  0.00    +0.109 A 
ATOM      4  C   LIG    1        4.096  -2.398  -5.914  0.00  0.00    +0.029 A 
ATOM      5  C   LIG    1        4.338  -1.034  -5.729  0.00  0.00    +0.003 A 
ATOM      6  C   LIG    1        3.803  -0.371  -4.623  0.00  0.00    +0.008 A 
ENDROOT
BRANCH   3   7
ATOM      7  S   LIG    1        3.033  -4.838  -5.195  0.00  0.00    +0.072 S 
ATOM      8  O   LIG    1        2.663  -5.396  -3.909  0.00  0.00    -0.150 OA
ATOM      9  O   LIG    1        4.140  -5.361  -5.968  0.00  0.00    -0.150 OA
BRANCH   7  10
ATOM     10  N   LIG    1        1.612  -4.802  -6.130  0.00  0.00    -0.216 N 
ATOM     11  H   LIG    1        0.839  -4.768  -5.468  0.00  0.00    +0.174 HD
BRANCH  10  12
ATOM     12  C   LIG    1        1.460  -5.920  -7.020  0.00  0.00    +0.048 A 
ATOM     13  C   LIG    1        0.864  -7.102  -6.579  0.00  0.00    +0.024 A 
ATOM     14  C   LIG    1        0.729  -8.178  -7.459  0.00  0.00    +0.002 A 
ATOM     15  C   LIG    1        1.201  -8.076  -8.768  0.00  0.00    +0.000 A 
ATOM     16  C   LIG    1        1.821  -6.902  -9.195  0.00  0.00    +0.002 A 
ATOM     17  C   LIG    1        1.958  -5.825  -8.318  0.00  0.00    +0.024 A 
ENDBRANCH  10  12
ENDBRANCH   7  10
ENDBRANCH   3   7
BRANCH   1  19
ATOM     18  C   LIG    1        3.166  -0.330  -1.367  0.00  0.00    +0.070 C 
ATOM     19  C   LIG    1        2.478  -0.388  -2.518  0.00  0.00    +0.013 C 
BRANCH  18  21
ATOM     20  O   LIG    1        1.367   0.653  -0.160  0.00  0.00    -0.269 OA
ATOM     21  C   LIG    1        2.526   0.246  -0.156  0.00  0.00    +0.259 C 
ATOM     22  N   LIG    1        3.290   0.316   0.973  0.00  0.00    -0.194 N 
ATOM     23  H   LIG    1        2.775   0.431   1.844  0.00  0.00    +0.182 HD
BRANCH  22  24
ATOM     24  O   LIG    1        4.522  -0.358   1.052  0.00  0.00    -0.295 OA
ATOM     25  H   LIG    1        5.156   0.383   0.981  0.00  0.00    +0.241 HD
ENDBRANCH  22  24
ENDBRANCH  18  21
ENDBRANCH   1  19
TORSDOF 6
