REMARK  Name = *****
REMARK                            x       y       z     vdW  Elec       q    Type
REMARK                         _______ _______ _______ _____ _____    ______ ____
ROOT
ATOM      1  C   LIG    1        3.307  -3.583  -0.385  0.00  0.00    +0.072 A 
ATOM      2  C   LIG    1        3.268  -4.970  -0.505  0.00  0.00    +0.136 A 
ATOM      3  F   LIG    1        2.672  -5.573  -1.545  0.00  0.00    -0.205 F 
ATOM      4  C   LIG    1        3.880  -5.792   0.436  0.00  0.00    +0.039 A 
ATOM      5  C   LIG    1        4.656  -5.239   1.454  0.00  0.00    +0.007 A 
ATOM      6  C   LIG    1        4.783  -3.848   1.574  0.00  0.00    -0.041 A 
ATOM      7  C   LIG    1        4.077  -3.030   0.663  0.00  0.00    +0.020 A 
ENDROOT
BRANCH   1   9
ATOM      8  O   LIG    1        3.256  -1.577  -1.557  0.00  0.00    -0.270 OA
ATOM      9  C   LIG    1        2.696  -2.664  -1.392  0.00  0.00    +0.249 C 
ATOM     10  N   LIG    1        1.549  -3.009  -2.117  0.00  0.00    -0.294 N 
ATOM     11  C   LIG    1        0.513  -3.949  -1.657  0.00  0.00    +0.127 C 
ATOM     12  C   LIG    1       -0.663  -3.168  -1.057  0.00  0.00    +0.127 C 
ATOM     13  N   LIG    1       -1.211  -2.270  -2.077  0.00  0.00    -0.298 N 
ATOM     14  C   LIG    1       -2.280  -2.636  -2.873  0.00  0.00    +0.219 C 
ATOM     15  O   LIG    1       -2.426  -2.206  -4.028  0.00  0.00    -0.275 OA
ATOM     16  C   LIG    1       -0.213  -1.321  -2.607  0.00  0.00    +0.127 C 
ATOM     17  C   LIG    1        1.038  -2.060  -3.131  0.00  0.00    +0.127 C 
BRANCH  14  18
ATOM     18  C   LIG    1       -3.317  -3.546  -2.301  0.00  0.00    +0.075 C 
ATOM     19  C   LIG    1       -4.705  -3.565  -2.900  0.00  0.00    +0.013 C 
ATOM     20  C   LIG    1       -3.819  -4.767  -3.047  0.00  0.00    +0.013 C 
ENDBRANCH  14  18
ENDBRANCH   1   9
BRANCH   6  21
ATOM     21  C   LIG    1        5.765  -3.219   2.549  0.00  0.00    +0.092 C 
BRANCH  21  22
ATOM     22  C   LIG    1        5.925  -3.958   3.873  0.00  0.00    +0.074 C 
ATOM     23  C   LIG    1        5.037  -3.630   5.018  0.00  0.00    +0.011 A 
ATOM     24  C   LIG    1        5.220  -4.358   6.192  0.00  0.00    +0.050 A 
ATOM     25  C   LIG    1        4.435  -4.100   7.322  0.00  0.00    +0.014 A 
ATOM     26  C   LIG    1        3.466  -3.099   7.278  0.00  0.00    +0.001 A 
ATOM     27  C   LIG    1        3.279  -2.366   6.107  0.00  0.00    +0.001 A 
ATOM     28  C   LIG    1        6.258  -5.399   6.242  0.00  0.00    +0.273 C 
ATOM     29  O   LIG    1        6.435  -6.080   7.246  0.00  0.00    -0.266 OA
ATOM     30  N   LIG    1        7.010  -5.555   5.104  0.00  0.00    -0.242 N 
ATOM     31  H   LIG    1        7.742  -6.259   5.125  0.00  0.00    +0.192 HD
ATOM     32  C   LIG    1        4.055  -2.633   4.976  0.00  0.00    +0.010 A 
ATOM     33  N   LIG    1        6.855  -4.867   3.941  0.00  0.00    -0.175 NA
ENDBRANCH  21  22
ENDBRANCH   6  21
TORSDOF 4
