REMARK  Name = *****
REMARK                            x       y       z     vdW  Elec       q    Type
REMARK                         _______ _______ _______ _____ _____    ______ ____
ROOT
ATOM      1  C   LIG    1        2.165  -4.676   4.127  0.00  0.00    +0.048 C 
ATOM      2  C   LIG    1        1.831  -6.137   4.127  0.00  0.00    -0.009 A 
ATOM      3  C   LIG    1        1.621  -6.866   2.943  0.00  0.00    +0.126 A 
ATOM      4  C   LIG    1        1.568  -8.269   2.982  0.00  0.00    -0.009 A 
ATOM      5  C   LIG    1        1.610  -9.121   1.741  0.00  0.00    +0.048 C 
ATOM      6  C   LIG    1        1.507  -8.919   4.224  0.00  0.00    +0.007 A 
ATOM      7  C   LIG    1        1.571  -8.184   5.409  0.00  0.00    +0.001 A 
ATOM      8  C   LIG    1        1.762  -6.809   5.356  0.00  0.00    +0.007 A 
ENDROOT
BRANCH   3   9
ATOM      9  O   LIG    1        1.524  -6.190   1.747  0.00  0.00    -0.490 OA
BRANCH   9  10
ATOM     10  C   LIG    1        0.172  -6.249   1.237  0.00  0.00    +0.247 C 
BRANCH  10  11
ATOM     11  C   LIG    1        0.064  -5.447  -0.081  0.00  0.00    +0.085 C 
ATOM     12  C   LIG    1       -1.372  -5.452  -0.605  0.00  0.00    +0.027 C 
BRANCH  11  13
ATOM     13  N   LIG    1        0.945  -5.985  -1.131  0.00  0.00    -0.325 NA
ATOM     14  H   LIG    1        1.863  -6.154  -0.715  0.00  0.00    +0.119 HD
ATOM     15  H   LIG    1        0.606  -6.896  -1.437  0.00  0.00    +0.119 HD
ENDBRANCH  11  13
ENDBRANCH  10  11
ENDBRANCH   9  10
ENDBRANCH   3   9
TORSDOF 4
