REMARK  Name = *****
REMARK                            x       y       z     vdW  Elec       q    Type
REMARK                         _______ _______ _______ _____ _____    ______ ____
ROOT
ATOM      1  C   LIG    1        6.927   1.166   1.444  0.00  0.00    +0.211 C 
ENDROOT
BRANCH   1   2
ATOM      2  C   LIG    1        7.359   1.255  -0.015  0.00  0.00    +0.030 A 
ATOM      3  S   LIG    1        6.187   1.216  -1.270  0.00  0.00    -0.098 S 
ATOM      4  C   LIG    1        7.383   1.321  -2.488  0.00  0.00    +0.045 A 
ATOM      5  C   LIG    1        8.652   1.394  -1.962  0.00  0.00    +0.008 A 
ATOM      6  C   LIG    1        8.638   1.367  -0.537  0.00  0.00    +0.015 A 
ENDBRANCH   1   2
BRANCH   1   7
ATOM      7  C   LIG    1        6.700   2.586   2.010  0.00  0.00    +0.065 C 
BRANCH   7   8
ATOM      8  C   LIG    1        6.286   2.613   3.487  0.00  0.00    +0.084 C 
BRANCH   8  10
ATOM      9  C   LIG    1        5.691   4.046   5.337  0.00  0.00    +0.101 C 
ATOM     10  N   LIG    1        6.072   3.999   3.928  0.00  0.00    -0.319 NA
ATOM     11  H   LIG    1        6.940   4.522   3.808  0.00  0.00    +0.122 HD
ENDBRANCH   8  10
ENDBRANCH   7   8
ENDBRANCH   1   7
BRANCH   1  12
ATOM     12  O   LIG    1        8.012   0.502   2.105  0.00  0.00    -0.483 OA
BRANCH  12  13
ATOM     13  C   LIG    1        7.776  -0.261   3.224  0.00  0.00    +0.129 A 
ATOM     14  C   LIG    1        8.827  -0.304   4.174  0.00  0.00    +0.024 A 
ATOM     15  C   LIG    1        8.625  -1.010   5.388  0.00  0.00    -0.014 A 
ATOM     16  C   LIG    1        9.636  -1.026   6.363  0.00  0.00    +0.008 A 
ATOM     17  C   LIG    1       10.848  -0.373   6.152  0.00  0.00    +0.001 A 
ATOM     18  C   LIG    1       11.069   0.302   4.957  0.00  0.00    +0.001 A 
ATOM     19  C   LIG    1        7.415  -1.685   5.602  0.00  0.00    +0.009 A 
ATOM     20  C   LIG    1        6.418  -1.684   4.633  0.00  0.00    +0.004 A 
ATOM     21  C   LIG    1       10.068   0.338   3.985  0.00  0.00    +0.012 A 
ATOM     22  C   LIG    1        6.597  -0.975   3.442  0.00  0.00    +0.046 A 
ENDBRANCH  12  13
ENDBRANCH   1  12
TORSDOF 6
