REMARK  Name = *****
REMARK                            x       y       z     vdW  Elec       q    Type
REMARK                         _______ _______ _______ _____ _____    ______ ____
ROOT
ATOM      1  C   LIG    1       -2.862  -6.724 -15.698  0.00  0.00    +0.014 C 
ATOM      2  C   LIG    1       -3.809  -6.112 -14.659  0.00  0.00    +0.037 C 
ATOM      3  C   LIG    1       -3.093  -5.973 -13.265  0.00  0.00    +0.127 C 
ATOM      4  C   LIG    1       -3.424  -7.104 -12.243  0.00  0.00    +0.056 C 
ATOM      5  C   LIG    1       -3.127  -8.495 -12.818  0.00  0.00    +0.014 C 
ATOM      6  C   LIG    1       -2.729  -6.984 -10.841  0.00  0.00    +0.179 C 
ATOM      7  C   LIG    1       -1.685  -5.884 -10.661  0.00  0.00    +0.052 C 
ATOM      8  O   LIG    1       -3.730  -6.738  -9.816  0.00  0.00    -0.461 OA
ATOM      9  C   LIG    1       -4.301  -7.818  -9.225  0.00  0.00    +0.310 C 
ATOM     10  O   LIG    1       -4.114  -8.985  -9.545  0.00  0.00    -0.251 OA
ATOM     11  C   LIG    1       -5.242  -7.400  -8.121  0.00  0.00    +0.152 C 
ATOM     12  C   LIG    1       -4.603  -7.391  -6.732  0.00  0.00    +0.128 C 
ATOM     13  C   LIG    1       -3.591  -6.270  -6.429  0.00  0.00    +0.063 C 
ATOM     14  C   LIG    1       -4.219  -4.869  -6.324  0.00  0.00    +0.119 C 
ATOM     15  C   LIG    1       -4.216  -4.113  -7.658  0.00  0.00    +0.062 C 
ATOM     16  C   LIG    1       -5.433  -3.188  -7.797  0.00  0.00    +0.117 C 
ATOM     17  C   LIG    1       -5.583  -2.633  -9.226  0.00  0.00    +0.034 C 
ATOM     18  C   LIG    1       -6.060  -3.702 -10.204  0.00  0.00    +0.036 C 
ATOM     19  C   LIG    1       -6.057  -3.305 -11.689  0.00  0.00    +0.143 C 
ATOM     20  C   LIG    1       -7.235  -2.473 -12.225  0.00  0.00    +0.150 C 
ATOM     21  C   LIG    1       -7.054  -0.960 -12.081  0.00  0.00    +0.108 C 
ATOM     22  C   LIG    1       -8.382  -0.231 -12.202  0.00  0.00    +0.138 C 
ATOM     23  O   LIG    1       -9.375  -0.800 -12.667  0.00  0.00    -0.297 OA
ATOM     24  C   LIG    1       -8.455   1.222 -11.784  0.00  0.00    +0.106 C 
ATOM     25  C   LIG    1       -8.503   1.565 -10.280  0.00  0.00    +0.138 C 
ATOM     26  C   LIG    1       -8.524   0.412  -9.237  0.00  0.00    +0.155 C 
ATOM     27  C   LIG    1       -9.854  -0.315  -8.939  0.00  0.00    +0.134 C 
ATOM     28  C   LIG    1       -9.550  -1.695  -8.278  0.00  0.00    +0.068 C 
ATOM     29  C   LIG    1      -10.610  -2.823  -8.233  0.00  0.00    +0.147 C 
ATOM     30  C   LIG    1      -10.903  -3.334  -9.620  0.00  0.00    +0.004 C 
ATOM     31  C   LIG    1      -12.001  -3.094 -10.353  0.00  0.00    -0.002 C 
ATOM     32  C   LIG    1      -12.088  -3.284 -11.780  0.00  0.00    -0.000 C 
ATOM     33  C   LIG    1      -11.450  -4.196 -12.527  0.00  0.00    +0.000 C 
ATOM     34  C   LIG    1      -11.380  -4.009 -13.958  0.00  0.00    +0.000 C 
ATOM     35  C   LIG    1      -10.514  -4.657 -14.748  0.00  0.00    -0.000 C 
ATOM     36  C   LIG    1      -10.233  -4.245 -16.105  0.00  0.00    -0.004 C 
ATOM     37  C   LIG    1       -9.887  -2.981 -16.406  0.00  0.00    -0.026 C 
ATOM     38  C   LIG    1       -9.377  -2.542 -17.750  0.00  0.00    +0.031 C 
ATOM     39  C   LIG    1       -7.858  -2.285 -17.732  0.00  0.00    +0.031 C 
ATOM     40  C   LIG    1       -7.082  -3.507 -17.309  0.00  0.00    -0.026 C 
ATOM     41  C   LIG    1       -6.078  -3.511 -16.418  0.00  0.00    -0.005 C 
ATOM     42  C   LIG    1       -5.485  -4.741 -15.947  0.00  0.00    -0.004 C 
ATOM     43  C   LIG    1       -4.354  -4.806 -15.227  0.00  0.00    -0.021 C 
ENDROOT
BRANCH   3  44
ATOM     44  O   LIG    1       -3.471  -4.737 -12.657  0.00  0.00    -0.391 OA
ATOM     45  H   LIG    1       -4.453  -4.766 -12.617  0.00  0.00    +0.210 HD
ENDBRANCH   3  44
BRANCH  12  46
ATOM     46  O   LIG    1       -3.960  -8.640  -6.471  0.00  0.00    -0.391 OA
ATOM     47  H   LIG    1       -4.555  -9.365  -6.734  0.00  0.00    +0.210 HD
ENDBRANCH  12  46
BRANCH  14  48
ATOM     48  O   LIG    1       -3.461  -4.102  -5.384  0.00  0.00    -0.392 OA
ATOM     49  H   LIG    1       -3.806  -3.188  -5.430  0.00  0.00    +0.210 HD
ENDBRANCH  14  48
BRANCH  16  50
ATOM     50  O   LIG    1       -5.279  -2.107  -6.876  0.00  0.00    -0.392 OA
ATOM     51  H   LIG    1       -6.015  -1.486  -7.045  0.00  0.00    +0.210 HD
ENDBRANCH  16  50
BRANCH  19  52
ATOM     52  O   LIG    1       -6.111  -4.573 -12.385  0.00  0.00    -0.389 OA
ATOM     53  H   LIG    1       -7.034  -4.886 -12.295  0.00  0.00    +0.210 HD
ENDBRANCH  19  52
BRANCH  20  54
ATOM     54  O   LIG    1       -8.416  -2.939 -11.573  0.00  0.00    -0.389 OA
ATOM     55  H   LIG    1       -9.168  -2.616 -12.122  0.00  0.00    +0.210 HD
ENDBRANCH  20  54
BRANCH  25  56
ATOM     56  O   LIG    1       -9.603   2.446 -10.043  0.00  0.00    -0.391 OA
ATOM     57  H   LIG    1       -9.502   3.235 -10.604  0.00  0.00    +0.210 HD
ENDBRANCH  25  56
BRANCH  26  58
ATOM     58  C   LIG    1       -7.928   0.923  -7.950  0.00  0.00    +0.313 C 
ATOM     59  O   LIG    1       -8.114   2.005  -7.410  0.00  0.00    -0.251 OA
BRANCH  58  60
ATOM     60  O   LIG    1       -7.073   0.056  -7.370  0.00  0.00    -0.480 OA
ATOM     61  H   LIG    1       -6.766   0.556  -6.583  0.00  0.00    +0.295 HD
ENDBRANCH  58  60
ENDBRANCH  26  58
BRANCH  27  62
ATOM     62  O   LIG    1      -10.633  -0.417 -10.119  0.00  0.00    -0.391 OA
ATOM     63  H   LIG    1      -10.277  -1.101 -10.714  0.00  0.00    +0.210 HD
ENDBRANCH  27  62
BRANCH  29  64
ATOM     64  O   LIG    1      -11.727  -2.396  -7.465  0.00  0.00    -0.341 OA
BRANCH  64  65
ATOM     65  C   LIG    1      -12.738  -3.373  -7.194  0.00  0.00    +0.281 C 
ATOM     66  C   LIG    1      -12.359  -4.555  -6.261  0.00  0.00    +0.189 C 
ATOM     67  C   LIG    1      -12.164  -4.091  -4.807  0.00  0.00    +0.116 C 
ATOM     68  C   LIG    1      -13.396  -3.281  -4.360  0.00  0.00    +0.162 C 
ATOM     69  C   LIG    1      -13.817  -2.184  -5.352  0.00  0.00    +0.148 C 
ATOM     70  C   LIG    1      -13.012  -0.893  -5.237  0.00  0.00    +0.040 C 
ATOM     71  O   LIG    1      -13.907  -2.697  -6.688  0.00  0.00    -0.343 OA
BRANCH  67  72
ATOM     72  N   LIG    1      -10.850  -3.426  -4.658  0.00  0.00    -0.323 NA
ATOM     73  H   LIG    1      -10.791  -3.006  -3.728  0.00  0.00    +0.119 HD
ATOM     74  H   LIG    1      -10.787  -2.648  -5.321  0.00  0.00    +0.119 HD
ENDBRANCH  67  72
BRANCH  66  75
ATOM     75  O   LIG    1      -11.210  -5.300  -6.685  0.00  0.00    -0.385 OA
ATOM     76  H   LIG    1      -10.504  -5.046  -6.054  0.00  0.00    +0.210 HD
ENDBRANCH  66  75
BRANCH  68  77
ATOM     77  O   LIG    1      -14.495  -4.205  -4.218  0.00  0.00    -0.388 OA
ATOM     78  H   LIG    1      -14.976  -4.231  -5.068  0.00  0.00    +0.210 HD
ENDBRANCH  68  77
ENDBRANCH  64  65
ENDBRANCH  29  64
TORSDOF 15
