REMARK  Name = *****
REMARK                            x       y       z     vdW  Elec       q    Type
REMARK                         _______ _______ _______ _____ _____    ______ ____
ROOT
ATOM      1  O   LIG    1        8.438   1.968  -2.665  0.00  0.00    -0.488 OA
ENDROOT
BRANCH   1   5
ATOM      2  C   LIG    1       10.621  -1.896  -4.611  0.00  0.00    +0.044 C 
ATOM      3  C   LIG    1       10.467  -0.406  -4.535  0.00  0.00    -0.047 A 
ATOM      4  C   LIG    1        9.539   0.161  -3.651  0.00  0.00    +0.049 A 
ATOM      5  C   LIG    1        9.396   1.548  -3.549  0.00  0.00    +0.121 A 
ATOM      6  C   LIG    1       10.200   2.376  -4.332  0.00  0.00    +0.049 A 
ATOM      7  C   LIG    1       11.130   1.829  -5.227  0.00  0.00    -0.047 A 
ATOM      8  C   LIG    1       11.989   2.743  -6.052  0.00  0.00    +0.044 C 
ATOM      9  C   LIG    1       11.264   0.439  -5.316  0.00  0.00    +0.007 A 
ENDBRANCH   1   5
BRANCH   1  10
ATOM     10  C   LIG    1        8.282   3.380  -2.510  0.00  0.00    +0.275 C 
BRANCH  10  11
ATOM     11  C   LIG    1        7.171   3.650  -1.493  0.00  0.00    +0.232 C 
ATOM     12  O   LIG    1        7.029   5.070  -1.300  0.00  0.00    -0.442 OA
ATOM     13  C   LIG    1        7.649   5.404  -0.128  0.00  0.00    +0.401 C 
ATOM     14  O   LIG    1        7.792   6.538   0.286  0.00  0.00    -0.227 OA
ATOM     15  N   LIG    1        8.059   4.270   0.516  0.00  0.00    -0.278 N 
ATOM     16  H   LIG    1        8.367   4.333   1.478  0.00  0.00    +0.152 HD
ATOM     17  C   LIG    1        7.501   3.122  -0.111  0.00  0.00    +0.155 C 
ENDBRANCH  10  11
ENDBRANCH   1  10
TORSDOF 3
