REMARK  Name = *****
REMARK                            x       y       z     vdW  Elec       q    Type
REMARK                         _______ _______ _______ _____ _____    ______ ____
ROOT
ATOM      1  N   LIG    1        4.311  -0.423   1.620  0.00  0.00    -0.307 N 
ATOM      2  C   LIG    1        5.396  -0.026   2.363  0.00  0.00    +0.170 A 
ATOM      3  N   LIG    1        6.159   1.080   2.178  0.00  0.00    -0.196 NA
ATOM      4  C   LIG    1        7.124   1.196   3.052  0.00  0.00    +0.195 C 
ATOM      5  N   LIG    1        7.347   0.301   4.080  0.00  0.00    -0.293 N 
ATOM      6  H   LIG    1        8.131   0.424   4.698  0.00  0.00    +0.172 HD
ATOM      7  C   LIG    1        6.604  -0.847   4.296  0.00  0.00    +0.280 C 
ATOM      8  O   LIG    1        6.860  -1.624   5.215  0.00  0.00    -0.265 OA
ATOM      9  C   LIG    1        5.536  -0.995   3.334  0.00  0.00    +0.172 A 
ATOM     10  N   LIG    1        4.587  -1.971   3.217  0.00  0.00    -0.229 NA
ATOM     11  C   LIG    1        3.861  -1.595   2.185  0.00  0.00    +0.202 A 
ENDROOT
BRANCH   1  14
ATOM     12  C   LIG    1        1.234  -0.281   0.335  0.00  0.00    +0.010 C 
ATOM     13  C   LIG    1        2.497  -0.384  -0.108  0.00  0.00    -0.046 C 
ATOM     14  C   LIG    1        3.701   0.317   0.516  0.00  0.00    +0.118 C 
ATOM     15  C   LIG    1        4.616   0.470  -0.703  0.00  0.00    +0.061 C 
ATOM     16  C   LIG    1        4.416  -0.832  -1.467  0.00  0.00    +0.126 C 
ATOM     17  C   LIG    1        2.903  -1.096  -1.387  0.00  0.00    +0.070 C 
BRANCH  16  18
ATOM     18  O   LIG    1        4.866  -0.727  -2.809  0.00  0.00    -0.391 OA
ATOM     19  H   LIG    1        4.312  -0.074  -3.274  0.00  0.00    +0.210 HD
ENDBRANCH  16  18
BRANCH  17  20
ATOM     20  C   LIG    1        2.601  -2.598  -1.453  0.00  0.00    +0.166 C 
BRANCH  20  21
ATOM     21  O   LIG    1        2.992  -3.140  -2.712  0.00  0.00    -0.394 OA
ATOM     22  H   LIG    1        3.938  -2.939  -2.849  0.00  0.00    +0.209 HD
ENDBRANCH  20  21
ENDBRANCH  17  20
ENDBRANCH   1  14
BRANCH   4  23
ATOM     23  N   LIG    1        7.984   2.244   2.993  0.00  0.00    -0.329 N 
ATOM     24  H   LIG    1        8.295   2.627   3.876  0.00  0.00    +0.145 HD
ATOM     25  H   LIG    1        7.684   2.959   2.338  0.00  0.00    +0.145 HD
ENDBRANCH   4  23
TORSDOF 5
