REMARK  Name = *****
REMARK                            x       y       z     vdW  Elec       q    Type
REMARK                         _______ _______ _______ _____ _____    ______ ____
ROOT
ATOM      1  C   LIG    1       -2.452   5.452   4.726  0.00  0.00    +0.000 A 
ATOM      2  C   LIG    1       -3.229   6.221   5.605  0.00  0.00    +0.020 A 
ATOM      3  C   LIG    1       -2.655   7.338   6.191  0.00  0.00    +0.034 A 
ATOM      4  C   LIG    1       -3.291   8.324   7.155  0.00  0.00    +0.300 C 
ATOM      5  C   LIG    1       -2.141   9.279   7.416  0.00  0.00    +0.034 A 
ATOM      6  C   LIG    1       -1.004   8.894   6.684  0.00  0.00    -0.008 A 
ATOM      7  C   LIG    1        0.162   9.626   6.772  0.00  0.00    +0.009 A 
ATOM      8  C   LIG    1        0.179  10.753   7.605  0.00  0.00    +0.009 A 
ATOM      9  C   LIG    1       -0.954  11.158   8.357  0.00  0.00    -0.017 A 
ATOM     10  C   LIG    1       -2.128  10.391   8.244  0.00  0.00    +0.018 A 
ATOM     11  F   LIG    1       -3.735   7.725   8.296  0.00  0.00    -0.195 F 
ATOM     12  F   LIG    1       -4.375   8.953   6.618  0.00  0.00    -0.195 F 
ATOM     13  C   LIG    1       -1.319   7.704   5.928  0.00  0.00    -0.008 A 
ATOM     14  C   LIG    1       -0.542   6.953   5.068  0.00  0.00    +0.009 A 
ATOM     15  C   LIG    1       -1.115   5.825   4.469  0.00  0.00    +0.010 A 
ENDROOT
BRANCH   9  16
ATOM     16  C   LIG    1       -0.923  12.383   9.192  0.00  0.00    -0.016 A 
ATOM     17  C   LIG    1       -2.080  13.180   9.307  0.00  0.00    +0.036 A 
ATOM     18  C   LIG    1       -1.968  14.399   9.968  0.00  0.00    +0.067 A 
ATOM     19  C   LIG    1       -0.797  14.845  10.558  0.00  0.00    +0.089 A 
ATOM     20  N   LIG    1       -0.947  16.122  11.023  0.00  0.00    -0.231 NA
ATOM     21  C   LIG    1       -2.152  16.494  10.630  0.00  0.00    +0.129 A 
ATOM     22  C   LIG    1        0.335  14.027  10.536  0.00  0.00    +0.030 A 
ATOM     23  N   LIG    1       -2.852  15.430  10.127  0.00  0.00    -0.340 N 
ATOM     24  H   LIG    1       -3.784  15.494   9.735  0.00  0.00    +0.167 HD
ATOM     25  C   LIG    1        0.258  12.811   9.838  0.00  0.00    +0.010 A 
BRANCH  21  26
ATOM     26  C   LIG    1       -2.642  17.894  10.509  0.00  0.00    +0.145 C 
ATOM     27  N   LIG    1       -4.060  18.089  10.857  0.00  0.00    -0.287 N 
ATOM     28  C   LIG    1       -5.082  17.818   9.965  0.00  0.00    +0.237 C 
ATOM     29  O   LIG    1       -4.867  17.010   9.053  0.00  0.00    -0.274 OA
ATOM     30  C   LIG    1       -4.082  19.013  11.985  0.00  0.00    +0.077 C 
ATOM     31  C   LIG    1       -2.821  18.646  12.764  0.00  0.00    +0.028 C 
ATOM     32  C   LIG    1       -3.689  20.403  11.438  0.00  0.00    +0.023 C 
ATOM     33  C   LIG    1       -2.193  20.271  11.155  0.00  0.00    +0.007 C 
ATOM     34  C   LIG    1       -1.923  18.814  11.536  0.00  0.00    +0.019 C 
BRANCH  28  35
ATOM     35  C   LIG    1       -6.511  18.472  10.145  0.00  0.00    +0.165 C 
BRANCH  35  36
ATOM     36  N   LIG    1       -6.475  19.933  10.021  0.00  0.00    -0.270 N 
ATOM     37  H   LIG    1       -6.335  20.347   9.101  0.00  0.00    +0.153 HD
ATOM     38  C   LIG    1       -6.606  20.811  11.044  0.00  0.00    +0.401 C 
ATOM     39  O   LIG    1       -6.604  20.506  12.247  0.00  0.00    -0.227 OA
BRANCH  38  40
ATOM     40  O   LIG    1       -6.601  22.074  10.574  0.00  0.00    -0.454 OA
ATOM     41  C   LIG    1       -6.301  23.069  11.556  0.00  0.00    +0.282 C 
ENDBRANCH  38  40
ENDBRANCH  35  36
BRANCH  35  42
ATOM     42  C   LIG    1       -7.537  17.953   9.085  0.00  0.00    +0.012 C 
ATOM     43  C   LIG    1       -8.882  18.701   9.172  0.00  0.00    +0.009 C 
ATOM     44  C   LIG    1       -7.827  16.453   9.196  0.00  0.00    +0.009 C 
ENDBRANCH  35  42
ENDBRANCH  28  35
ENDBRANCH  21  26
ENDBRANCH   9  16
BRANCH   1  48
ATOM     45  C   LIG    1       -3.529   2.813   2.472  0.00  0.00    +0.128 A 
ATOM     46  N   LIG    1       -2.717   3.870   2.802  0.00  0.00    -0.340 N 
ATOM     47  H   LIG    1       -2.040   4.291   2.177  0.00  0.00    +0.167 HD
ATOM     48  C   LIG    1       -3.035   4.287   4.074  0.00  0.00    +0.066 A 
ATOM     49  C   LIG    1       -4.010   3.396   4.478  0.00  0.00    +0.139 A 
ATOM     50  N   LIG    1       -4.298   2.490   3.494  0.00  0.00    -0.238 NA
BRANCH  45  53
ATOM     51  C   LIG    1       -1.124   2.166   0.415  0.00  0.00    +0.237 C 
ATOM     52  N   LIG    1       -2.248   1.511   0.869  0.00  0.00    -0.289 N 
ATOM     53  C   LIG    1       -3.518   2.207   1.095  0.00  0.00    +0.143 C 
ATOM     54  C   LIG    1       -4.573   1.102   0.943  0.00  0.00    +0.038 C 
ATOM     55  C   LIG    1       -3.831  -0.141   1.361  0.00  0.00    -0.011 C 
ATOM     56  C   LIG    1       -4.420  -1.516   1.162  0.00  0.00    +0.009 C 
ATOM     57  C   LIG    1       -4.308  -0.951   2.549  0.00  0.00    +0.009 C 
ATOM     58  C   LIG    1       -2.362   0.097   1.189  0.00  0.00    +0.115 C 
ATOM     59  O   LIG    1       -1.149   3.383   0.187  0.00  0.00    -0.274 OA
BRANCH  51  60
ATOM     60  C   LIG    1        0.197   1.360   0.257  0.00  0.00    +0.165 C 
BRANCH  60  62
ATOM     61  C   LIG    1        1.630   1.230  -1.780  0.00  0.00    +0.401 C 
ATOM     62  N   LIG    1        0.917   1.940  -0.873  0.00  0.00    -0.270 N 
ATOM     63  H   LIG    1        0.780   2.932  -1.081  0.00  0.00    +0.153 HD
ATOM     64  O   LIG    1        1.791   0.001  -1.785  0.00  0.00    -0.227 OA
BRANCH  61  66
ATOM     65  C   LIG    1        1.958   1.620  -4.048  0.00  0.00    +0.282 C 
ATOM     66  O   LIG    1        2.083   2.093  -2.710  0.00  0.00    -0.454 OA
ENDBRANCH  61  66
ENDBRANCH  60  62
BRANCH  60  67
ATOM     67  C   LIG    1        1.071   1.438   1.534  0.00  0.00    +0.012 C 
ATOM     68  C   LIG    1        2.389   0.670   1.371  0.00  0.00    +0.009 C 
ATOM     69  C   LIG    1        0.374   0.884   2.773  0.00  0.00    +0.009 C 
ENDBRANCH  60  67
ENDBRANCH  51  60
ENDBRANCH  45  53
ENDBRANCH   1  48
TORSDOF 12
