REMARK  Name = *****
REMARK                            x       y       z     vdW  Elec       q    Type
REMARK                         _______ _______ _______ _____ _____    ______ ____
ROOT
ATOM      1  N   LIG    1        8.954  -3.300  -1.161  0.00  0.00    -0.084 NA
ATOM      2  C   LIG    1        9.427  -4.350  -1.779  0.00  0.00    +0.118 C 
ENDROOT
BRANCH   2   3
ATOM      3  C   LIG    1        8.631  -5.516  -2.320  0.00  0.00    +0.005 A 
ATOM      4  C   LIG    1        7.344  -5.335  -2.840  0.00  0.00    +0.022 A 
ATOM      5  C   LIG    1        6.596  -6.419  -3.337  0.00  0.00    +0.055 A 
ATOM      6  C   LIG    1        7.190  -7.685  -3.406  0.00  0.00    +0.012 A 
ATOM      7  C   LIG    1        8.483  -7.876  -2.925  0.00  0.00    +0.001 A 
ATOM      8  C   LIG    1        9.181  -6.810  -2.349  0.00  0.00    +0.010 A 
BRANCH   5   9
ATOM      9  C   LIG    1        5.160  -6.201  -3.746  0.00  0.00    +0.417 C 
ATOM     10  F   LIG    1        5.032  -5.296  -4.754  0.00  0.00    -0.166 F 
ATOM     11  F   LIG    1        4.400  -5.727  -2.719  0.00  0.00    -0.166 F 
ATOM     12  F   LIG    1        4.536  -7.333  -4.175  0.00  0.00    -0.166 F 
ENDBRANCH   5   9
ENDBRANCH   2   3
BRANCH   2  13
ATOM     13  C   LIG    1       10.921  -4.350  -1.972  0.00  0.00    +0.022 A 
ATOM     14  C   LIG    1       11.522  -4.904  -3.098  0.00  0.00    +0.120 A 
ATOM     15  N   LIG    1       12.857  -4.899  -3.334  0.00  0.00    -0.263 NA
ATOM     16  C   LIG    1       13.631  -4.271  -2.423  0.00  0.00    +0.111 A 
ATOM     17  C   LIG    1       13.134  -3.670  -1.278  0.00  0.00    +0.020 A 
ATOM     18  C   LIG    1       11.759  -3.716  -1.048  0.00  0.00    +0.013 A 
ENDBRANCH   2  13
BRANCH   1  19
ATOM     19  O   LIG    1        7.569  -3.277  -0.948  0.00  0.00    -0.393 OA
BRANCH  19  20
ATOM     20  C   LIG    1        7.239  -2.023  -0.334  0.00  0.00    +0.263 C 
BRANCH  20  21
ATOM     21  C   LIG    1        5.722  -1.904  -0.163  0.00  0.00    +0.044 C 
BRANCH  21  22
ATOM     22  C   LIG    1        5.334  -0.605   0.553  0.00  0.00    +0.014 C 
BRANCH  22  23
ATOM     23  C   LIG    1        3.820  -0.449   0.708  0.00  0.00    +0.120 C 
BRANCH  23  25
ATOM     24  O   LIG    1        4.279   1.647   1.844  0.00  0.00    -0.251 OA
ATOM     25  C   LIG    1        3.477   0.839   1.433  0.00  0.00    +0.305 C 
BRANCH  25  26
ATOM     26  O   LIG    1        2.143   1.005   1.585  0.00  0.00    -0.481 OA
ATOM     27  H   LIG    1        1.599   0.294   1.214  0.00  0.00    +0.295 HD
ENDBRANCH  25  26
ENDBRANCH  23  25
ENDBRANCH  22  23
ENDBRANCH  21  22
ENDBRANCH  20  21
ENDBRANCH  19  20
ENDBRANCH   1  19
TORSDOF 10
