REMARK  Name = *****
REMARK                            x       y       z     vdW  Elec       q    Type
REMARK                         _______ _______ _______ _____ _____    ______ ____
ROOT
ATOM      1  C   LIG    1        6.122  -0.258  -2.801  0.00  0.00    +0.076 C 
ATOM      2  C   LIG    1        6.772  -0.368  -1.414  0.00  0.00    +0.026 C 
ATOM      3  C   LIG    1        6.677  -1.752  -0.734  0.00  0.00    -0.005 C 
ATOM      4  C   LIG    1        5.391  -1.858   0.119  0.00  0.00    +0.019 C 
ATOM      5  C   LIG    1        5.267  -3.240   0.730  0.00  0.00    +0.105 C 
ATOM      6  C   LIG    1        5.216  -4.268  -0.383  0.00  0.00    +0.050 C 
ATOM      7  C   LIG    1        6.598  -4.341  -1.042  0.00  0.00    +0.023 C 
ATOM      8  C   LIG    1        4.554  -5.450   0.304  0.00  0.00    +0.178 C 
ATOM      9  C   LIG    1        5.420  -6.367   1.151  0.00  0.00    +0.052 C 
ATOM     10  O   LIG    1        3.589  -4.816   1.172  0.00  0.00    -0.461 OA
ATOM     11  C   LIG    1        4.000  -3.543   1.476  0.00  0.00    +0.311 C 
ATOM     12  O   LIG    1        3.452  -2.816   2.286  0.00  0.00    -0.251 OA
ATOM     13  C   LIG    1        6.931  -2.953  -1.705  0.00  0.00    -0.000 C 
ATOM     14  C   LIG    1        6.257  -2.761  -3.081  0.00  0.00    +0.006 C 
ATOM     15  C   LIG    1        6.575  -1.403  -3.694  0.00  0.00    +0.022 C 
ENDROOT
BRANCH   1  17
ATOM     16  C   LIG    1        3.963   0.962  -2.562  0.00  0.00    +0.401 C 
ATOM     17  N   LIG    1        4.672  -0.192  -2.748  0.00  0.00    -0.278 N 
ATOM     18  H   LIG    1        4.130  -0.833  -3.315  0.00  0.00    +0.152 HD
ATOM     19  O   LIG    1        2.767   1.010  -2.759  0.00  0.00    -0.227 OA
BRANCH  16  20
ATOM     20  O   LIG    1        4.777   2.023  -2.319  0.00  0.00    -0.451 OA
BRANCH  20  22
ATOM     21  C   LIG    1        4.526   3.424  -4.268  0.00  0.00    +0.048 C 
ATOM     22  C   LIG    1        4.253   3.271  -2.777  0.00  0.00    +0.230 C 
ENDBRANCH  20  22
ENDBRANCH  16  20
ENDBRANCH   1  17
BRANCH   7  23
ATOM     23  C   LIG    1        6.709  -5.485  -2.011  0.00  0.00    -0.021 C 
ATOM     24  C   LIG    1        7.849  -6.152  -2.260  0.00  0.00    +0.024 C 
BRANCH  24  25
ATOM     25  C   LIG    1        7.918  -7.236  -3.243  0.00  0.00    +0.064 A 
ATOM     26  N   LIG    1        7.045  -7.176  -4.270  0.00  0.00    -0.255 NA
ATOM     27  C   LIG    1        7.085  -8.177  -5.181  0.00  0.00    +0.119 A 
ATOM     28  C   LIG    1        7.951  -9.271  -5.141  0.00  0.00    +0.000 A 
ATOM     29  C   LIG    1        8.844  -9.288  -4.059  0.00  0.00    +0.012 A 
ATOM     30  C   LIG    1        8.838  -8.264  -3.107  0.00  0.00    +0.028 A 
BRANCH  28  31
ATOM     31  C   LIG    1        7.920 -10.337  -6.167  0.00  0.00    -0.014 A 
ATOM     32  C   LIG    1        7.535 -10.069  -7.493  0.00  0.00    +0.046 A 
ATOM     33  C   LIG    1        7.506 -11.082  -8.449  0.00  0.00    +0.124 A 
ATOM     34  F   LIG    1        7.134 -10.790  -9.702  0.00  0.00    -0.205 F 
ATOM     35  C   LIG    1        7.858 -12.384  -8.127  0.00  0.00    +0.038 A 
ATOM     36  C   LIG    1        8.241 -12.679  -6.824  0.00  0.00    +0.003 A 
ATOM     37  C   LIG    1        8.267 -11.667  -5.857  0.00  0.00    +0.009 A 
ENDBRANCH  28  31
ENDBRANCH  24  25
ENDBRANCH   7  23
TORSDOF 6
