REMARK  Name = *****
REMARK                            x       y       z     vdW  Elec       q    Type
REMARK                         _______ _______ _______ _____ _____    ______ ____
ROOT
ATOM      1  C   LIG    1        7.817   0.581  -5.289  0.00  0.00    +0.132 C 
ENDROOT
BRANCH   1   2
ATOM      2  C   LIG    1        7.182  -0.107  -4.110  0.00  0.00    +0.308 C 
ATOM      3  O   LIG    1        7.769  -0.859  -3.353  0.00  0.00    -0.251 OA
BRANCH   2   4
ATOM      4  O   LIG    1        5.849   0.175  -4.017  0.00  0.00    -0.459 OA
BRANCH   4   5
ATOM      5  C   LIG    1        5.169  -0.418  -2.886  0.00  0.00    +0.282 C 
BRANCH   5   6
ATOM      6  C   LIG    1        5.115  -1.952  -3.006  0.00  0.00    +0.174 C 
BRANCH   6   8
ATOM      7  C   LIG    1        5.083  -2.468  -0.533  0.00  0.00    +0.192 C 
ATOM      8  N   LIG    1        4.392  -2.695  -1.874  0.00  0.00    +0.239 N 
ATOM      9  C   LIG    1        2.928  -2.302  -1.768  0.00  0.00    +0.192 C 
ATOM     10  C   LIG    1        4.468  -4.193  -2.207  0.00  0.00    +0.192 C 
ENDBRANCH   6   8
ENDBRANCH   5   6
ENDBRANCH   4   5
ENDBRANCH   2   4
ENDBRANCH   1   2
BRANCH   1  11
ATOM     11  C   LIG    1        9.258   0.986  -4.965  0.00  0.00    +0.132 C 
BRANCH  11  12
ATOM     12  C   LIG    1        9.972   1.647  -6.120  0.00  0.00    +0.308 C 
ATOM     13  O   LIG    1        9.460   2.342  -6.966  0.00  0.00    -0.251 OA
BRANCH  12  14
ATOM     14  O   LIG    1       11.285   1.405  -6.030  0.00  0.00    -0.459 OA
BRANCH  14  15
ATOM     15  C   LIG    1       12.114   1.719  -7.174  0.00  0.00    +0.282 C 
BRANCH  15  16
ATOM     16  C   LIG    1       12.557   3.197  -7.332  0.00  0.00    +0.174 C 
BRANCH  16  17
ATOM     17  N   LIG    1       13.382   3.780  -6.147  0.00  0.00    +0.239 N 
ATOM     18  C   LIG    1       13.823   5.214  -6.492  0.00  0.00    +0.192 C 
ATOM     19  C   LIG    1       14.649   2.974  -5.887  0.00  0.00    +0.192 C 
ATOM     20  C   LIG    1       12.545   3.845  -4.882  0.00  0.00    +0.192 C 
ENDBRANCH  16  17
ENDBRANCH  15  16
ENDBRANCH  14  15
ENDBRANCH  12  14
ENDBRANCH  11  12
ENDBRANCH   1  11
TORSDOF 11
