REMARK  Name = *****
REMARK                            x       y       z     vdW  Elec       q    Type
REMARK                         _______ _______ _______ _____ _____    ______ ____
ROOT
ATOM      1  O   LIG    1        3.308  -1.998  -5.867  0.00  0.00    -0.461 OA
ENDROOT
BRANCH   1   6
ATOM      2  N   LIG    1        6.876  -3.677  -5.137  0.00  0.00    +0.247 N 
ATOM      3  C   LIG    1        7.677  -3.580  -6.446  0.00  0.00    +0.193 C 
ATOM      4  C   LIG    1        5.491  -4.373  -5.293  0.00  0.00    +0.070 C 
ATOM      5  C   LIG    1        4.769  -3.828  -6.533  0.00  0.00    +0.099 C 
ATOM      6  C   LIG    1        4.567  -2.301  -6.511  0.00  0.00    +0.187 C 
ATOM      7  C   LIG    1        5.673  -1.520  -5.775  0.00  0.00    +0.099 C 
ATOM      8  C   LIG    1        4.738  -3.994  -4.006  0.00  0.00    +0.060 C 
ATOM      9  C   LIG    1        5.331  -2.662  -3.556  0.00  0.00    +0.060 C 
ATOM     10  C   LIG    1        6.359  -2.293  -4.630  0.00  0.00    +0.070 C 
BRANCH   2  12
ATOM     11  C   LIG    1        9.014  -3.648  -3.649  0.00  0.00    +0.063 C 
ATOM     12  C   LIG    1        7.769  -4.445  -4.055  0.00  0.00    +0.060 C 
ATOM     13  C   LIG    1        8.196  -5.836  -4.551  0.00  0.00    +0.063 C 
ENDBRANCH   2  12
ENDBRANCH   1   6
BRANCH   1  14
ATOM     14  C   LIG    1        2.184  -2.162  -6.633  0.00  0.00    +0.317 C 
ATOM     15  O   LIG    1        2.205  -2.553  -7.802  0.00  0.00    -0.250 OA
BRANCH  14  16
ATOM     16  C   LIG    1        0.936  -1.846  -5.838  0.00  0.00    +0.153 C 
BRANCH  16  17
ATOM     17  C   LIG    1        0.557  -0.380  -5.948  0.00  0.00    -0.032 A 
ATOM     18  C   LIG    1        0.626   0.443  -4.812  0.00  0.00    +0.004 A 
ATOM     19  C   LIG    1        0.256   1.786  -4.883  0.00  0.00    +0.000 A 
ATOM     20  C   LIG    1       -0.185   2.326  -6.088  0.00  0.00    +0.000 A 
ATOM     21  C   LIG    1       -0.247   1.525  -7.227  0.00  0.00    +0.000 A 
ATOM     22  C   LIG    1        0.126   0.182  -7.160  0.00  0.00    +0.004 A 
ENDBRANCH  16  17
BRANCH  16  23
ATOM     23  C   LIG    1       -0.188  -2.806  -6.261  0.00  0.00    +0.175 C 
BRANCH  23  24
ATOM     24  O   LIG    1       -1.264  -2.746  -5.328  0.00  0.00    -0.394 OA
ATOM     25  H   LIG    1       -1.989  -3.291  -5.681  0.00  0.00    +0.209 HD
ENDBRANCH  23  24
ENDBRANCH  16  23
ENDBRANCH  14  16
ENDBRANCH   1  14
TORSDOF 7
