REMARK  Name = *****
REMARK                            x       y       z     vdW  Elec       q    Type
REMARK                         _______ _______ _______ _____ _____    ______ ____
ROOT
ATOM      1  C   LIG    1        9.742   1.275   2.485  0.00  0.00    -0.002 C 
ATOM      2  C   LIG    1        9.580  -0.095   2.734  0.00  0.00    -0.016 C 
ATOM      3  C   LIG    1        8.490  -0.988   2.269  0.00  0.00    +0.015 C 
ATOM      4  C   LIG    1        8.791  -2.213   1.777  0.00  0.00    +0.078 C 
ATOM      5  C   LIG    1       10.248  -2.615   1.743  0.00  0.00    +0.203 C 
ATOM      6  N   LIG    1       10.805  -3.393   0.858  0.00  0.00    -0.229 N 
ATOM      7  C   LIG    1       10.980  -2.069   2.932  0.00  0.00    +0.078 C 
ATOM      8  C   LIG    1       10.505  -0.940   3.481  0.00  0.00    +0.015 C 
ENDROOT
BRANCH   1  12
ATOM      9  C   LIG    1        6.233   3.046   0.361  0.00  0.00    +0.030 A 
ATOM     10  C   LIG    1        6.834   1.829   0.020  0.00  0.00    +0.024 A 
ATOM     11  C   LIG    1        7.980   1.286   0.619  0.00  0.00    +0.010 A 
ATOM     12  C   LIG    1        8.592   1.902   1.695  0.00  0.00    -0.017 A 
ATOM     13  C   LIG    1        8.010   3.122   2.024  0.00  0.00    +0.010 A 
ATOM     14  C   LIG    1        6.955   3.750   1.309  0.00  0.00    +0.024 A 
BRANCH   9  15
ATOM     15  N   LIG    1        5.045   3.482  -0.237  0.00  0.00    -0.330 N 
BRANCH  15  17
ATOM     16  C   LIG    1        4.139   1.059  -0.456  0.00  0.00    +0.024 C 
ATOM     17  C   LIG    1        3.885   2.552  -0.391  0.00  0.00    +0.102 C 
ENDBRANCH  15  17
BRANCH  15  18
ATOM     18  C   LIG    1        4.672   4.922  -0.082  0.00  0.00    +0.102 C 
ATOM     19  C   LIG    1        3.505   5.368  -0.972  0.00  0.00    +0.024 C 
ENDBRANCH  15  18
ENDBRANCH   9  15
ENDBRANCH   1  12
BRANCH   1  20
ATOM     20  C   LIG    1       11.052   2.126   2.957  0.00  0.00    +0.014 A 
ATOM     21  C   LIG    1       11.393   3.520   2.907  0.00  0.00    +0.127 A 
ATOM     22  C   LIG    1       12.643   3.993   3.401  0.00  0.00    +0.063 A 
ATOM     23  C   LIG    1       13.608   3.175   3.963  0.00  0.00    +0.160 A 
ATOM     24  C   LIG    1       13.349   1.839   4.026  0.00  0.00    +0.145 A 
ATOM     25  C   LIG    1       12.138   1.370   3.500  0.00  0.00    +0.058 A 
BRANCH  21  26
ATOM     26  S   LIG    1       10.457   4.922   2.300  0.00  0.00    +0.110 S 
ATOM     27  O   LIG    1        9.518   5.340   3.272  0.00  0.00    -0.142 OA
ATOM     28  O   LIG    1       10.124   4.628   0.893  0.00  0.00    -0.142 OA
BRANCH  26  29
ATOM     29  O   LIG    1       11.469   6.165   2.135  0.00  0.00    -0.250 OA
ATOM     30  H   LIG    1       11.028   6.811   1.543  0.00  0.00    +0.245 HD
ENDBRANCH  26  29
ENDBRANCH  21  26
BRANCH  23  31
ATOM     31  S   LIG    1       15.122   3.886   4.512  0.00  0.00    +0.113 S 
ATOM     32  O   LIG    1       15.810   3.021   5.398  0.00  0.00    -0.142 OA
ATOM     33  O   LIG    1       14.834   5.264   4.891  0.00  0.00    -0.142 OA
BRANCH  31  34
ATOM     34  O   LIG    1       15.990   3.987   3.153  0.00  0.00    -0.250 OA
ATOM     35  H   LIG    1       16.765   4.554   3.345  0.00  0.00    +0.245 HD
ENDBRANCH  31  34
ENDBRANCH  23  31
BRANCH  24  36
ATOM     36  O   LIG    1       14.233   0.955   4.554  0.00  0.00    -0.505 OA
ATOM     37  H   LIG    1       14.049   0.042   4.285  0.00  0.00    +0.292 HD
ENDBRANCH  24  36
ENDBRANCH   1  20
BRANCH   6  38
ATOM     38  C   LIG    1       12.314  -3.412   0.660  0.00  0.00    +0.347 C 
ATOM     39  C   LIG    1       13.003  -4.432   1.546  0.00  0.00    +0.082 C 
ENDBRANCH   6  38
BRANCH   6  40
ATOM     40  C   LIG    1       10.027  -4.171  -0.183  0.00  0.00    +0.347 C 
ATOM     41  C   LIG    1       10.267  -5.662  -0.014  0.00  0.00    +0.082 C 
ENDBRANCH   6  40
TORSDOF 12
