REMARK  Name = *****
REMARK                            x       y       z     vdW  Elec       q    Type
REMARK                         _______ _______ _______ _____ _____    ______ ____
ROOT
ATOM      1  C   LIG    1        3.671   0.742   1.429  0.00  0.00    +0.220 C 
ATOM      2  N   LIG    1        4.836   1.236   0.880  0.00  0.00    -0.288 N 
ATOM      3  C   LIG    1        5.137   2.691   0.845  0.00  0.00    +0.184 C 
ATOM      4  C   LIG    1        6.575   2.767   0.301  0.00  0.00    +0.035 C 
ATOM      5  C   LIG    1        7.178   1.409   0.602  0.00  0.00    +0.021 C 
ATOM      6  C   LIG    1        6.001   0.459   0.473  0.00  0.00    +0.109 C 
ATOM      7  O   LIG    1        2.772   1.532   1.732  0.00  0.00    -0.275 OA
ENDROOT
BRANCH   1   9
ATOM      8  C   LIG    1        2.060  -1.180   1.274  0.00  0.00    +0.018 C 
ATOM      9  C   LIG    1        3.498  -0.771   1.624  0.00  0.00    +0.082 C 
BRANCH   9  10
ATOM     10  C   LIG    1        3.904  -1.148   3.059  0.00  0.00    +0.078 C 
BRANCH  10  11
ATOM     11  S   LIG    1        3.702  -2.921   3.446  0.00  0.00    -0.177 S 
ATOM     12  H   LIG    1        4.568  -3.394   2.539  0.00  0.00    +0.102 HD
ENDBRANCH  10  11
ENDBRANCH   9  10
ENDBRANCH   1   9
BRANCH   3  13
ATOM     13  C   LIG    1        4.260   3.647   0.008  0.00  0.00    +0.326 C 
ATOM     14  O   LIG    1        4.692   4.687  -0.495  0.00  0.00    -0.249 OA
BRANCH  13  15
ATOM     15  O   LIG    1        2.947   3.355  -0.044  0.00  0.00    -0.479 OA
ATOM     16  H   LIG    1        2.693   2.643   0.596  0.00  0.00    +0.295 HD
ENDBRANCH  13  15
ENDBRANCH   3  13
TORSDOF 5
