REMARK  Name = *****
REMARK                            x       y       z     vdW  Elec       q    Type
REMARK                         _______ _______ _______ _____ _____    ______ ____
ROOT
ATOM      1  C   LIG    1        5.698  -6.383   0.966  0.00  0.00    +0.210 C 
ATOM      2  C   LIG    1        6.065  -7.904   1.269  0.00  0.00    +0.127 C 
ATOM      3  C   LIG    1        6.033  -8.729  -0.023  0.00  0.00    +0.048 C 
ATOM      4  C   LIG    1        5.130  -8.451   2.393  0.00  0.00    +0.166 C 
ATOM      5  C   LIG    1        5.332  -9.962   2.825  0.00  0.00    +0.085 C 
ATOM      6  C   LIG    1        4.954 -10.159   4.312  0.00  0.00    +0.027 C 
ATOM      7  N   LIG    1        4.598 -11.034   2.103  0.00  0.00    -0.300 NA
ATOM      8  C   LIG    1        5.348 -11.697   1.045  0.00  0.00    +0.105 C 
ATOM      9  C   LIG    1        3.254 -10.635   1.703  0.00  0.00    +0.087 C 
ATOM     10  C   LIG    1        2.181 -11.705   1.462  0.00  0.00    +0.003 C 
ATOM     11  C   LIG    1        2.576 -13.118   1.061  0.00  0.00    +0.009 C 
ATOM     12  C   LIG    1        1.015 -11.092   0.664  0.00  0.00    +0.041 C 
ATOM     13  C   LIG    1        1.074 -10.405  -0.743  0.00  0.00    +0.090 C 
ATOM     14  C   LIG    1        2.367 -10.663  -1.509  0.00  0.00    +0.044 C 
ATOM     15  C   LIG    1        0.589  -8.851  -0.669  0.00  0.00    +0.158 C 
ATOM     16  C   LIG    1        0.849  -8.048  -2.045  0.00  0.00    +0.047 C 
ATOM     17  C   LIG    1       -0.404  -8.040  -2.937  0.00  0.00    +0.013 C 
ATOM     18  C   LIG    1        1.545  -6.620  -1.813  0.00  0.00    +0.140 C 
ATOM     19  C   LIG    1        3.068  -6.867  -1.533  0.00  0.00    +0.124 C 
ATOM     20  C   LIG    1        4.050  -6.776  -2.725  0.00  0.00    +0.022 C 
ATOM     21  C   LIG    1        3.653  -6.124  -0.351  0.00  0.00    +0.313 C 
ATOM     22  O   LIG    1        2.986  -5.581   0.564  0.00  0.00    -0.250 OA
ATOM     23  O   LIG    1        4.984  -6.330  -0.294  0.00  0.00    -0.458 OA
ENDROOT
BRANCH   1  25
ATOM     24  C   LIG    1        6.638  -4.071   0.439  0.00  0.00    +0.007 C 
ATOM     25  C   LIG    1        6.955  -5.513   0.806  0.00  0.00    +0.044 C 
ENDBRANCH   1  25
BRANCH   2  26
ATOM     26  O   LIG    1        7.407  -7.979   1.806  0.00  0.00    -0.383 OA
ATOM     27  H   LIG    1        7.794  -8.838   1.558  0.00  0.00    +0.210 HD
ENDBRANCH   2  26
BRANCH   4  28
ATOM     28  O   LIG    1        5.350  -7.608   3.547  0.00  0.00    -0.387 OA
ATOM     29  H   LIG    1        6.321  -7.532   3.638  0.00  0.00    +0.210 HD
ENDBRANCH   4  28
BRANCH  13  30
ATOM     30  O   LIG    1        0.126 -11.066  -1.579  0.00  0.00    -0.386 OA
ATOM     31  H   LIG    1       -0.672 -10.529  -1.443  0.00  0.00    +0.210 HD
ENDBRANCH  13  30
BRANCH  15  32
ATOM     32  O   LIG    1       -0.850  -8.655  -0.340  0.00  0.00    -0.342 OA
BRANCH  32  33
ATOM     33  C   LIG    1       -1.436  -9.236   0.833  0.00  0.00    +0.281 C 
ATOM     34  C   LIG    1       -2.733  -8.625   1.447  0.00  0.00    +0.187 C 
ATOM     35  C   LIG    1       -3.997  -8.829   0.574  0.00  0.00    +0.092 C 
ATOM     36  C   LIG    1       -4.123 -10.344   0.294  0.00  0.00    +0.053 C 
ATOM     37  C   LIG    1       -2.838 -11.127   0.051  0.00  0.00    +0.120 C 
ATOM     38  C   LIG    1       -2.666 -11.575  -1.400  0.00  0.00    +0.038 C 
ATOM     39  O   LIG    1       -1.658 -10.636   0.671  0.00  0.00    -0.346 OA
BRANCH  35  40
ATOM     40  N   LIG    1       -4.077  -7.946  -0.620  0.00  0.00    -0.303 NA
ATOM     41  C   LIG    1       -5.367  -8.061  -1.320  0.00  0.00    +0.105 C 
ATOM     42  C   LIG    1       -3.954  -6.518  -0.249  0.00  0.00    +0.105 C 
ENDBRANCH  35  40
BRANCH  34  43
ATOM     43  O   LIG    1       -2.991  -9.265   2.735  0.00  0.00    -0.385 OA
ATOM     44  H   LIG    1       -2.715 -10.198   2.650  0.00  0.00    +0.210 HD
ENDBRANCH  34  43
ENDBRANCH  32  33
ENDBRANCH  15  32
BRANCH  18  45
ATOM     45  O   LIG    1        1.319  -5.745  -2.946  0.00  0.00    -0.347 OA
BRANCH  45  46
ATOM     46  C   LIG    1        1.681  -4.356  -2.750  0.00  0.00    +0.254 C 
ATOM     47  O   LIG    1        1.058  -3.826  -1.585  0.00  0.00    -0.346 OA
ATOM     48  C   LIG    1        1.330  -2.447  -1.299  0.00  0.00    +0.150 C 
ATOM     49  C   LIG    1        2.747  -2.220  -0.776  0.00  0.00    +0.040 C 
ATOM     50  C   LIG    1        0.937  -1.535  -2.476  0.00  0.00    +0.175 C 
ATOM     51  C   LIG    1        1.517  -2.008  -3.836  0.00  0.00    +0.099 C 
ATOM     52  C   LIG    1        3.018  -1.689  -3.974  0.00  0.00    +0.044 C 
ATOM     53  C   LIG    1        1.270  -3.534  -3.988  0.00  0.00    +0.098 C 
BRANCH  50  54
ATOM     54  O   LIG    1       -0.503  -1.500  -2.537  0.00  0.00    -0.386 OA
ATOM     55  H   LIG    1       -0.810  -2.409  -2.708  0.00  0.00    +0.210 HD
ENDBRANCH  50  54
BRANCH  51  56
ATOM     56  O   LIG    1        0.835  -1.385  -4.956  0.00  0.00    -0.374 OA
ATOM     57  C   LIG    1        0.864   0.039  -5.016  0.00  0.00    +0.195 C 
ENDBRANCH  51  56
ENDBRANCH  45  46
ENDBRANCH  18  45
TORSDOF 12
