REMARK  Name = *****
REMARK                            x       y       z     vdW  Elec       q    Type
REMARK                         _______ _______ _______ _____ _____    ______ ____
ROOT
ATOM      1  C   LIG    1        4.549   1.457  -0.808  0.00  0.00    +0.128 A 
ATOM      2  N   LIG    1        5.204   2.736  -0.820  0.00  0.00    -0.182 N 
ATOM      3  C   LIG    1        6.612   2.841  -0.845  0.00  0.00    +0.255 A 
ATOM      4  N   LIG    1        6.962   4.111  -0.843  0.00  0.00    -0.197 NA
ATOM      5  C   LIG    1        5.776   4.766  -0.815  0.00  0.00    +0.247 A 
ATOM      6  N   LIG    1        7.429   1.756  -0.870  0.00  0.00    -0.216 NA
ATOM      7  C   LIG    1        6.843   0.598  -0.851  0.00  0.00    +0.045 A 
ATOM      8  C   LIG    1        7.719  -0.631  -0.892  0.00  0.00    +0.066 C 
ATOM      9  N   LIG    1        4.689   4.001  -0.806  0.00  0.00    -0.151 NA
ATOM     10  C   LIG    1        5.367   0.383  -0.805  0.00  0.00    +0.067 A 
ENDROOT
BRANCH   1  11
ATOM     11  N   LIG    1        3.122   1.335  -0.796  0.00  0.00    -0.316 N 
BRANCH  11  13
ATOM     12  C   LIG    1        1.963   3.066  -2.147  0.00  0.00    +0.024 C 
ATOM     13  C   LIG    1        2.200   2.491  -0.756  0.00  0.00    +0.103 C 
ENDBRANCH  11  13
BRANCH  11  14
ATOM     14  C   LIG    1        2.423   0.032  -0.846  0.00  0.00    +0.103 C 
ATOM     15  C   LIG    1        2.170  -0.512   0.554  0.00  0.00    +0.024 C 
ENDBRANCH  11  14
ENDBRANCH   1  11
TORSDOF 3
