REMARK  Name = *****
REMARK                            x       y       z     vdW  Elec       q    Type
REMARK                         _______ _______ _______ _____ _____    ______ ____
ROOT
ATOM      1  N   LIG    1        5.021   1.760   3.750  0.00  0.00    -0.310 N 
ATOM      2  H   LIG    1        5.458   2.256   4.518  0.00  0.00    +0.149 HD
ATOM      3  C   LIG    1        3.653   1.852   3.616  0.00  0.00    +0.248 C 
ATOM      4  O   LIG    1        3.018   1.161   2.817  0.00  0.00    -0.270 OA
ENDROOT
BRANCH   3   5
ATOM      5  C   LIG    1        2.936   2.892   4.427  0.00  0.00    +0.080 A 
ATOM      6  C   LIG    1        3.450   3.472   5.610  0.00  0.00    +0.134 A 
ATOM      7  C   LIG    1        2.717   4.471   6.278  0.00  0.00    +0.078 A 
ATOM      8  C   LIG    1        1.500   4.910   5.732  0.00  0.00    +0.116 A 
ATOM      9  C   LIG    1        1.016   4.318   4.579  0.00  0.00    +0.087 A 
ATOM     10  N   LIG    1       -0.156   4.985   4.354  0.00  0.00    -0.257 N 
ATOM     11  H   LIG    1       -0.829   4.865   3.608  0.00  0.00    +0.191 HD
ATOM     12  N   LIG    1       -0.376   5.929   5.283  0.00  0.00    -0.067 NA
ATOM     13  N   LIG    1        0.633   5.886   6.144  0.00  0.00    -0.130 NA
ATOM     14  C   LIG    1        1.682   3.289   3.905  0.00  0.00    +0.046 A 
BRANCH   6  15
ATOM     15  O   LIG    1        4.678   3.031   6.042  0.00  0.00    -0.494 OA
ATOM     16  C   LIG    1        5.188   3.519   7.279  0.00  0.00    +0.277 C 
ENDBRANCH   6  15
ENDBRANCH   3   5
BRANCH   1  17
ATOM     17  C   LIG    1        5.834   0.830   2.986  0.00  0.00    +0.123 C 
BRANCH  17  19
ATOM     18  N   LIG    1        6.862  -0.397   4.987  0.00  0.00    -0.294 NA
ATOM     19  C   LIG    1        6.127  -0.511   3.694  0.00  0.00    +0.074 C 
ATOM     20  C   LIG    1        4.864  -1.301   4.025  0.00  0.00    +0.021 C 
ATOM     21  C   LIG    1        5.347  -2.268   5.077  0.00  0.00    +0.017 C 
ATOM     22  C   LIG    1        6.314  -1.429   5.890  0.00  0.00    +0.085 C 
BRANCH  18  23
ATOM     23  C   LIG    1        8.315  -0.541   4.790  0.00  0.00    +0.111 C 
BRANCH  23  25
ATOM     24  C   LIG    1       10.175  -1.095   6.398  0.00  0.00    +0.005 C 
ATOM     25  C   LIG    1        9.085  -0.385   6.074  0.00  0.00    -0.019 C 
ENDBRANCH  23  25
ENDBRANCH  18  23
ENDBRANCH  17  19
ENDBRANCH   1  17
TORSDOF 6
