REMARK  Name = *****
REMARK                            x       y       z     vdW  Elec       q    Type
REMARK                         _______ _______ _______ _____ _____    ______ ____
ROOT
ATOM      1  C   LIG    1        6.383  -3.617  -4.189  0.00  0.00    +0.135 C 
ATOM      2  C   LIG    1        4.904  -3.107  -4.032  0.00  0.00    +0.032 C 
ATOM      3  C   LIG    1        4.803  -2.723  -2.506  0.00  0.00    +0.010 C 
ATOM      4  C   LIG    1        4.049  -3.788  -1.671  0.00  0.00    +0.024 C 
ATOM      5  C   LIG    1        2.712  -4.106  -2.325  0.00  0.00    -0.041 C 
ATOM      6  C   LIG    1        2.876  -4.609  -3.675  0.00  0.00    +0.001 C 
ATOM      7  C   LIG    1        1.514  -3.978  -1.709  0.00  0.00    -0.040 C 
ATOM      8  C   LIG    1        1.422  -3.336  -0.394  0.00  0.00    -0.041 C 
ATOM      9  C   LIG    1        0.285  -3.289   0.318  0.00  0.00    +0.050 C 
ATOM     10  C   LIG    1       -0.991  -3.747  -0.269  0.00  0.00    +0.157 C 
ATOM     11  C   LIG    1       -1.049  -3.869  -1.766  0.00  0.00    +0.083 C 
ATOM     12  O   LIG    1       -1.980  -3.878   0.448  0.00  0.00    -0.293 OA
ATOM     13  C   LIG    1        2.662  -2.652   0.127  0.00  0.00    +0.036 C 
ATOM     14  C   LIG    1        0.221  -4.509  -2.303  0.00  0.00    +0.043 C 
ATOM     15  C   LIG    1        3.914  -3.456  -0.174  0.00  0.00    +0.013 C 
ATOM     16  C   LIG    1        6.259  -2.542  -2.017  0.00  0.00    +0.009 C 
ATOM     17  C   LIG    1        3.878  -4.171  -4.451  0.00  0.00    -0.016 C 
ATOM     18  C   LIG    1        7.176  -2.740  -3.218  0.00  0.00    +0.049 C 
ENDROOT
BRANCH   1  20
ATOM     19  C   LIG    1        6.672  -6.155  -3.545  0.00  0.00    +0.007 C 
ATOM     20  C   LIG    1        6.542  -5.008  -3.836  0.00  0.00    -0.070 C 
ENDBRANCH   1  20
BRANCH   2  21
ATOM     21  C   LIG    1        4.544  -1.880  -4.938  0.00  0.00    +0.011 C 
ATOM     22  C   LIG    1        5.369  -0.607  -4.808  0.00  0.00    +0.005 C 
ENDBRANCH   2  21
BRANCH   1  23
ATOM     23  O   LIG    1        6.866  -3.427  -5.514  0.00  0.00    -0.376 OA
ATOM     24  H   LIG    1        7.749  -3.833  -5.554  0.00  0.00    +0.211 HD
ENDBRANCH   1  23
TORSDOF 3
