REMARK  Name = *****
REMARK                            x       y       z     vdW  Elec       q    Type
REMARK                         _______ _______ _______ _____ _____    ______ ____
ROOT
ATOM      1  C   LIG    1        4.793   0.329  -4.671  0.00  0.00    +0.247 C 
ATOM      2  N   LIG    1        6.195   0.343  -4.650  0.00  0.00    -0.262 N 
ATOM      3  C   LIG    1        6.807   1.391  -5.374  0.00  0.00    +0.164 A 
ATOM      4  C   LIG    1        6.889   2.682  -4.835  0.00  0.00    +0.085 A 
ATOM      5  C   LIG    1        7.281   3.716  -5.687  0.00  0.00    +0.031 A 
ATOM      6  C   LIG    1        7.635   3.432  -7.004  0.00  0.00    +0.022 A 
ATOM      7  C   LIG    1        7.570   2.119  -7.432  0.00  0.00    +0.113 A 
ATOM      8  N   LIG    1        6.557   3.021  -3.511  0.00  0.00    -0.319 N 
ATOM      9  H   LIG    1        6.397   4.000  -3.303  0.00  0.00    +0.169 HD
ATOM     10  C   LIG    1        6.543   2.238  -2.383  0.00  0.00    +0.258 A 
ATOM     11  O   LIG    1        6.197   2.734  -1.313  0.00  0.00    -0.267 OA
ATOM     12  C   LIG    1        7.062   0.851  -2.400  0.00  0.00    +0.063 A 
ATOM     13  C   LIG    1        7.732   0.398  -1.251  0.00  0.00    +0.015 A 
ATOM     14  C   LIG    1        8.261  -0.893  -1.197  0.00  0.00    +0.001 A 
ATOM     15  C   LIG    1        8.121  -1.746  -2.288  0.00  0.00    +0.002 A 
ATOM     16  C   LIG    1        7.444  -1.310  -3.426  0.00  0.00    +0.027 A 
ATOM     17  N   LIG    1        7.160   1.098  -6.653  0.00  0.00    -0.235 NA
ATOM     18  C   LIG    1        6.903  -0.016  -3.483  0.00  0.00    +0.064 A 
ATOM     19  O   LIG    1        4.110   1.069  -5.390  0.00  0.00    -0.271 OA
ENDROOT
BRANCH   1  20
ATOM     20  C   LIG    1        4.079  -0.692  -3.770  0.00  0.00    +0.184 C 
BRANCH  20  25
ATOM     21  C   LIG    1        2.086  -4.870  -5.226  0.00  0.00    +0.105 C 
ATOM     22  N   LIG    1        1.828  -3.476  -4.869  0.00  0.00    -0.303 NA
ATOM     23  C   LIG    1        2.213  -3.197  -3.471  0.00  0.00    +0.099 C 
ATOM     24  C   LIG    1        3.735  -3.037  -3.226  0.00  0.00    +0.100 C 
ATOM     25  N   LIG    1        4.414  -2.089  -4.134  0.00  0.00    -0.291 NA
ATOM     26  C   LIG    1        4.046  -2.414  -5.529  0.00  0.00    +0.100 C 
ATOM     27  C   LIG    1        2.526  -2.550  -5.783  0.00  0.00    +0.099 C 
ENDBRANCH  20  25
ENDBRANCH   1  20
TORSDOF 2
