REMARK  Name = *****
REMARK                            x       y       z     vdW  Elec       q    Type
REMARK                         _______ _______ _______ _____ _____    ______ ____
ROOT
ATOM      1  C   LIG    1       -4.269  12.063   1.199  0.00  0.00    +0.034 C 
ATOM      2  C   LIG    1       -3.028  11.027   1.115  0.00  0.00    +0.082 C 
ATOM      3  N   LIG    1       -2.096  11.303   0.037  0.00  0.00    -0.294 NA
ATOM      4  C   LIG    1       -2.580  10.650  -1.177  0.00  0.00    +0.086 C 
ATOM      5  C   LIG    1       -3.674   9.656  -0.692  0.00  0.00    +0.030 C 
ATOM      6  C   LIG    1       -1.602  12.667  -0.003  0.00  0.00    +0.112 C 
ATOM      7  C   LIG    1       -2.390  13.660   0.828  0.00  0.00    -0.015 C 
ATOM      8  C   LIG    1       -3.422   9.593   0.831  0.00  0.00    +0.037 C 
ATOM      9  C   LIG    1       -4.408   9.136   1.939  0.00  0.00    +0.128 C 
ATOM     10  C   LIG    1       -5.577  10.069   2.311  0.00  0.00    +0.187 C 
ATOM     11  N   LIG    1       -4.742   7.735   1.562  0.00  0.00    -0.325 N 
ATOM     12  C   LIG    1       -5.474   6.869   2.481  0.00  0.00    +0.130 C 
ATOM     13  C   LIG    1       -3.406   7.295   1.252  0.00  0.00    +0.037 A 
ATOM     14  C   LIG    1       -2.960   6.002   1.155  0.00  0.00    +0.069 A 
ATOM     15  C   LIG    1       -1.672   5.725   0.644  0.00  0.00    +0.127 A 
ATOM     16  C   LIG    1       -0.749   6.778   0.306  0.00  0.00    +0.017 A 
ATOM     17  C   LIG    1       -1.219   8.107   0.505  0.00  0.00    +0.014 A 
ATOM     18  C   LIG    1       -2.539   8.346   0.921  0.00  0.00    -0.016 A 
ATOM     19  C   LIG    1       -5.116  11.563   2.420  0.00  0.00    +0.168 C 
ATOM     20  C   LIG    1       -3.585  13.410   1.402  0.00  0.00    -0.019 C 
ENDROOT
BRANCH  16  21
ATOM     21  C   LIG    1        0.731   6.531  -0.303  0.00  0.00    +0.136 C 
ATOM     22  C   LIG    1        0.715   5.822  -1.739  0.00  0.00    +0.042 C 
ATOM     23  C   LIG    1        1.675   5.644  -2.778  0.00  0.00    -0.017 C 
ATOM     24  C   LIG    1        1.053   4.822  -3.794  0.00  0.00    +0.003 C 
ATOM     25  C   LIG    1       -0.220   4.500  -3.354  0.00  0.00    +0.047 C 
ATOM     26  C   LIG    1       -1.103   3.692  -4.077  0.00  0.00    +0.026 C 
ATOM     27  C   LIG    1       -0.671   3.199  -5.310  0.00  0.00    +0.002 C 
ATOM     28  C   LIG    1        0.600   3.500  -5.790  0.00  0.00    +0.001 C 
ATOM     29  C   LIG    1        1.471   4.305  -5.044  0.00  0.00    +0.010 C 
ATOM     30  C   LIG    1        3.110   6.130  -2.937  0.00  0.00    +0.053 C 
ATOM     31  C   LIG    1        4.235   5.090  -2.602  0.00  0.00    +0.089 C 
ATOM     32  N   LIG    1        4.744   4.951  -1.223  0.00  0.00    -0.299 NA
ATOM     33  C   LIG    1        5.109   3.585  -0.797  0.00  0.00    +0.119 C 
ATOM     34  C   LIG    1        4.040   2.712  -0.034  0.00  0.00    +0.079 C 
ATOM     35  C   LIG    1        3.171   3.603   0.901  0.00  0.00    +0.040 C 
ATOM     36  C   LIG    1        2.714   4.831   0.121  0.00  0.00    +0.007 C 
ATOM     37  C   LIG    1        3.966   5.639  -0.206  0.00  0.00    +0.088 C 
ATOM     38  N   LIG    1       -0.385   5.104  -2.139  0.00  0.00    -0.356 NA
ATOM     39  H   LIG    1       -1.208   4.965  -1.571  0.00  0.00    +0.166 HD
ATOM     40  C   LIG    1        1.558   5.636   0.738  0.00  0.00    +0.034 C 
BRANCH  21  41
ATOM     41  C   LIG    1        1.469   7.915  -0.543  0.00  0.00    +0.324 C 
ATOM     42  O   LIG    1        1.370   8.609  -1.497  0.00  0.00    -0.249 OA
BRANCH  41  43
ATOM     43  O   LIG    1        2.249   8.218   0.552  0.00  0.00    -0.467 OA
ATOM     44  C   LIG    1        3.378   9.065   0.316  0.00  0.00    +0.280 C 
ENDBRANCH  41  43
ENDBRANCH  21  41
BRANCH  34  45
ATOM     45  C   LIG    1        3.117   1.883  -0.968  0.00  0.00    +0.033 C 
ATOM     46  C   LIG    1        3.801   0.784  -1.774  0.00  0.00    +0.007 C 
ENDBRANCH  34  45
BRANCH  34  47
ATOM     47  O   LIG    1        4.716   1.793   0.842  0.00  0.00    -0.387 OA
ATOM     48  H   LIG    1        5.368   1.302   0.314  0.00  0.00    +0.210 HD
ENDBRANCH  34  47
ENDBRANCH  16  21
BRANCH  10  49
ATOM     49  C   LIG    1       -6.033   9.711   3.756  0.00  0.00    +0.247 C 
ATOM     50  O   LIG    1       -5.290   9.723   4.733  0.00  0.00    -0.273 OA
ATOM     51  N   LIG    1       -7.343   9.344   3.902  0.00  0.00    -0.327 N 
ATOM     52  H   LIG    1       -8.010   9.540   3.166  0.00  0.00    +0.145 HD
ATOM     53  H   LIG    1       -7.679   9.221   4.849  0.00  0.00    +0.145 HD
ENDBRANCH  10  49
BRANCH   1  55
ATOM     54  C   LIG    1       -6.271  13.380  -0.054  0.00  0.00    +0.005 C 
ATOM     55  C   LIG    1       -5.195  12.277  -0.064  0.00  0.00    +0.012 C 
ENDBRANCH   1  55
BRANCH  10  56
ATOM     56  O   LIG    1       -6.661   9.938   1.379  0.00  0.00    -0.375 OA
ATOM     57  H   LIG    1       -6.636   9.001   1.092  0.00  0.00    +0.211 HD
ENDBRANCH  10  56
BRANCH  15  58
ATOM     58  O   LIG    1       -1.320   4.417   0.365  0.00  0.00    -0.495 OA
ATOM     59  C   LIG    1       -2.302   3.406   0.636  0.00  0.00    +0.277 C 
ENDBRANCH  15  58
BRANCH  19  60
ATOM     60  O   LIG    1       -6.293  12.359   2.634  0.00  0.00    -0.388 OA
ATOM     61  H   LIG    1       -6.974  11.997   2.031  0.00  0.00    +0.210 HD
ENDBRANCH  19  60
TORSDOF 10
