REMARK  Name = *****
REMARK                            x       y       z     vdW  Elec       q    Type
REMARK                         _______ _______ _______ _____ _____    ______ ____
ROOT
ATOM      1  C   LIG    1        5.815  -6.241  -8.479  0.00  0.00    +0.215 C 
ATOM      2  C   LIG    1        6.537  -6.580  -7.186  0.00  0.00    +0.074 C 
ATOM      3  C   LIG    1        4.554  -5.411  -8.182  0.00  0.00    +0.271 C 
ATOM      4  O   LIG    1        4.475  -4.422  -7.491  0.00  0.00    -0.270 OA
ATOM      5  N   LIG    1        3.531  -6.039  -8.876  0.00  0.00    -0.233 N 
ATOM      6  C   LIG    1        3.920  -7.388  -9.136  0.00  0.00    +0.269 C 
ATOM      7  C   LIG    1        3.311  -8.342  -8.086  0.00  0.00    +0.156 C 
ATOM      8  N   LIG    1        1.988  -7.968  -7.603  0.00  0.00    -0.290 N 
ATOM      9  C   LIG    1        1.505  -6.676  -7.569  0.00  0.00    +0.237 C 
ATOM     10  O   LIG    1        0.513  -6.374  -6.907  0.00  0.00    -0.274 OA
ATOM     11  C   LIG    1        1.309  -9.101  -7.011  0.00  0.00    +0.108 C 
ATOM     12  C   LIG    1        2.177 -10.308  -7.378  0.00  0.00    +0.021 C 
ATOM     13  C   LIG    1        3.099  -9.798  -8.492  0.00  0.00    +0.031 C 
ATOM     14  C   LIG    1        2.124  -5.703  -8.611  0.00  0.00    +0.171 C 
ATOM     15  O   LIG    1        5.342  -7.464  -9.035  0.00  0.00    -0.299 OA
ENDROOT
BRANCH   1  17
ATOM     16  C   LIG    1        6.571  -5.557 -10.763  0.00  0.00    +0.220 C 
ATOM     17  N   LIG    1        6.744  -5.604  -9.400  0.00  0.00    -0.280 N 
ATOM     18  H   LIG    1        7.526  -5.115  -8.988  0.00  0.00    +0.152 HD
ATOM     19  O   LIG    1        5.651  -6.137 -11.336  0.00  0.00    -0.275 OA
BRANCH  16  35
ATOM     20  C   LIG    1        8.034  -4.195 -15.252  0.00  0.00    +0.105 C 
ATOM     21  N   LIG    1        8.310  -4.066 -13.822  0.00  0.00    -0.301 NA
ATOM     22  C   LIG    1        8.454  -2.656 -13.393  0.00  0.00    +0.068 C 
ATOM     23  C   LIG    1        8.901  -2.627 -11.876  0.00  0.00    +0.038 C 
ATOM     24  C   LIG    1        9.078  -1.203 -11.395  0.00  0.00    -0.033 C 
ATOM     25  C   LIG    1        8.325  -0.211 -12.031  0.00  0.00    +0.006 C 
ATOM     26  C   LIG    1        8.401   1.121 -11.678  0.00  0.00    +0.047 C 
ATOM     27  N   LIG    1        7.530   1.781 -12.519  0.00  0.00    -0.360 NA
ATOM     28  H   LIG    1        7.360   2.776 -12.502  0.00  0.00    +0.165 HD
ATOM     29  C   LIG    1        6.939   0.890 -13.395  0.00  0.00    +0.087 C 
ATOM     30  C   LIG    1        9.247   1.552 -10.655  0.00  0.00    +0.026 C 
ATOM     31  C   LIG    1       10.008   0.563 -10.006  0.00  0.00    +0.002 C 
ATOM     32  C   LIG    1        7.434  -0.361 -13.113  0.00  0.00    -0.021 C 
ATOM     33  C   LIG    1        9.924  -0.792 -10.360  0.00  0.00    +0.005 C 
ATOM     34  C   LIG    1        7.889  -3.384 -11.000  0.00  0.00    +0.023 C 
ATOM     35  C   LIG    1        7.670  -4.810 -11.525  0.00  0.00    +0.090 C 
ATOM     36  C   LIG    1        7.219  -1.716 -13.705  0.00  0.00    +0.056 C 
ATOM     37  C   LIG    1        7.318  -4.799 -13.024  0.00  0.00    +0.097 C 
ENDBRANCH  16  35
ENDBRANCH   1  17
BRANCH   6  38
ATOM     38  O   LIG    1        3.557  -7.719 -10.442  0.00  0.00    -0.348 OA
ATOM     39  H   LIG    1        4.132  -7.111 -10.955  0.00  0.00    +0.214 HD
ENDBRANCH   6  38
BRANCH  14  40
ATOM     40  C   LIG    1        1.227  -5.732  -9.874  0.00  0.00    +0.067 C 
BRANCH  40  41
ATOM     41  C   LIG    1        1.645  -4.792 -10.988  0.00  0.00    -0.045 A 
ATOM     42  C   LIG    1        2.439  -5.251 -12.047  0.00  0.00    +0.003 A 
ATOM     43  C   LIG    1        2.876  -4.395 -13.057  0.00  0.00    +0.000 A 
ATOM     44  C   LIG    1        2.466  -3.070 -13.061  0.00  0.00    +0.000 A 
ATOM     45  C   LIG    1        1.636  -2.603 -12.042  0.00  0.00    +0.000 A 
ATOM     46  C   LIG    1        1.239  -3.453 -11.002  0.00  0.00    +0.003 A 
ENDBRANCH  40  41
ENDBRANCH  14  40
TORSDOF 5
