REMARK  Name = *****
REMARK                            x       y       z     vdW  Elec       q    Type
REMARK                         _______ _______ _______ _____ _____    ______ ____
ROOT
ATOM      1  C   LIG    1       18.461   0.299   4.314  0.00  0.00    +0.131 A 
ATOM      2  C   LIG    1       18.090   1.526   4.918  0.00  0.00    +0.061 A 
ATOM      3  C   LIG    1       16.801   1.680   5.460  0.00  0.00    +0.043 A 
ATOM      4  C   LIG    1       15.884   0.633   5.374  0.00  0.00    +0.106 A 
ATOM      5  C   LIG    1       16.226  -0.560   4.741  0.00  0.00    +0.032 A 
ATOM      6  C   LIG    1       17.510  -0.728   4.225  0.00  0.00    +0.048 A 
ENDROOT
BRANCH   2   7
ATOM      7  C   LIG    1       19.008   2.708   5.014  0.00  0.00    +0.145 C 
ATOM      8  N   LIG    1       19.929   2.837   3.980  0.00  0.00    -0.305 N 
ATOM      9  H   LIG    1       19.983   2.128   3.262  0.00  0.00    +0.170 HD
ATOM     10  C   LIG    1       20.841   3.861   3.881  0.00  0.00    +0.278 C 
ATOM     11  O   LIG    1       21.634   3.957   2.952  0.00  0.00    -0.266 OA
ATOM     12  C   LIG    1       20.733   4.755   4.975  0.00  0.00    +0.151 A 
ATOM     13  C   LIG    1       19.810   4.604   5.969  0.00  0.00    +0.119 A 
ATOM     14  C   LIG    1       20.016   5.672   6.867  0.00  0.00    +0.089 A 
ATOM     15  N   LIG    1       21.048   6.433   6.454  0.00  0.00    -0.174 NA
ATOM     16  N   LIG    1       21.440   5.870   5.291  0.00  0.00    -0.260 N 
ATOM     17  C   LIG    1       22.498   6.489   4.530  0.00  0.00    +0.173 C 
ATOM     18  N   LIG    1       18.883   3.557   6.001  0.00  0.00    -0.225 NA
BRANCH  14  19
ATOM     19  C   LIG    1       19.258   6.013   8.114  0.00  0.00    +0.059 C 
BRANCH  19  20
ATOM     20  C   LIG    1       19.748   7.295   8.804  0.00  0.00    +0.003 C 
ATOM     21  C   LIG    1       18.955   7.638  10.055  0.00  0.00    +0.004 C 
ENDBRANCH  19  20
ENDBRANCH  14  19
ENDBRANCH   2   7
BRANCH   4  22
ATOM     22  S   LIG    1       14.284   0.764   6.127  0.00  0.00    +0.058 S 
ATOM     23  O   LIG    1       14.350   1.750   7.187  0.00  0.00    -0.153 OA
ATOM     24  O   LIG    1       13.802  -0.575   6.363  0.00  0.00    -0.153 OA
BRANCH  22  25
ATOM     25  N   LIG    1       13.400   1.382   4.863  0.00  0.00    -0.190 NA
ATOM     26  H   LIG    1       12.543   0.837   4.669  0.00  0.00    +0.148 HD
BRANCH  25  27
ATOM     27  C   LIG    1       13.243   2.827   4.704  0.00  0.00    +0.107 C 
BRANCH  27  28
ATOM     28  C   LIG    1       12.348   3.116   3.494  0.00  0.00    +0.036 C 
BRANCH  28  29
ATOM     29  C   LIG    1       10.927   2.523   3.636  0.00  0.00    +0.058 C 
ATOM     30  N   LIG    1       10.990   1.044   3.721  0.00  0.00    -0.302 NA
ATOM     31  C   LIG    1        9.930   0.501   4.571  0.00  0.00    +0.105 C 
ATOM     32  C   LIG    1       10.883   0.566   2.336  0.00  0.00    +0.084 C 
ATOM     33  C   LIG    1        9.920   1.518   1.655  0.00  0.00    +0.017 C 
ATOM     34  C   LIG    1       10.065   2.833   2.409  0.00  0.00    +0.020 C 
ENDBRANCH  28  29
ENDBRANCH  27  28
ENDBRANCH  25  27
ENDBRANCH  22  25
ENDBRANCH   4  22
BRANCH   1  35
ATOM     35  O   LIG    1       19.748   0.171   3.843  0.00  0.00    -0.491 OA
BRANCH  35  36
ATOM     36  C   LIG    1       20.133  -1.109   3.320  0.00  0.00    +0.229 C 
BRANCH  36  38
ATOM     37  C   LIG    1       22.042  -2.363   2.253  0.00  0.00    +0.007 C 
ATOM     38  C   LIG    1       21.598  -1.056   2.891  0.00  0.00    +0.037 C 
ENDBRANCH  36  38
ENDBRANCH  35  36
ENDBRANCH   1  35
TORSDOF 11
