REMARK  Name = *****
REMARK                            x       y       z     vdW  Elec       q    Type
REMARK                         _______ _______ _______ _____ _____    ______ ____
ROOT
ATOM      1  C   LIG    1        2.845   0.774   1.343  0.00  0.00    +0.027 C 
ATOM      2  C   LIG    1        2.455   0.099   0.030  0.00  0.00    +0.084 C 
ATOM      3  C   LIG    1        3.351  -1.134  -0.335  0.00  0.00    +0.165 C 
ATOM      4  O   LIG    1        2.915  -1.715  -1.585  0.00  0.00    -0.369 OA
ATOM      5  C   LIG    1        2.851  -0.747  -2.639  0.00  0.00    +0.176 C 
ATOM      6  C   LIG    1        1.910   0.412  -2.285  0.00  0.00    +0.109 C 
ATOM      7  N   LIG    1        2.305   1.106  -1.048  0.00  0.00    -0.309 NA
ATOM      8  H   LIG    1        3.196   1.569  -1.206  0.00  0.00    +0.122 HD
ENDROOT
BRANCH   3   9
ATOM      9  C   LIG    1        4.871  -1.050  -0.336  0.00  0.00    -0.017 A 
ATOM     10  C   LIG    1        5.594  -2.254  -0.217  0.00  0.00    +0.006 A 
ATOM     11  C   LIG    1        6.990  -2.269  -0.220  0.00  0.00    +0.000 A 
ATOM     12  C   LIG    1        7.695  -1.077  -0.352  0.00  0.00    +0.000 A 
ATOM     13  C   LIG    1        7.002   0.122  -0.488  0.00  0.00    +0.000 A 
ATOM     14  C   LIG    1        5.603   0.135  -0.485  0.00  0.00    +0.006 A 
ENDBRANCH   3   9
TORSDOF 1
