REMARK  Name = *****
REMARK                            x       y       z     vdW  Elec       q    Type
REMARK                         _______ _______ _______ _____ _____    ______ ____
ROOT
ATOM      1  C   LIG    1        2.982   0.590   1.153  0.00  0.00    +0.018 A 
ATOM      2  C   LIG    1        3.911  -0.099   1.938  0.00  0.00    +0.060 A 
ATOM      3  C   LIG    1        4.632   0.606   2.890  0.00  0.00    +0.159 A 
ATOM      4  C   LIG    1        4.439   1.976   3.067  0.00  0.00    +0.158 A 
ATOM      5  C   LIG    1        3.516   2.666   2.289  0.00  0.00    +0.050 A 
ATOM      6  C   LIG    1        2.782   1.967   1.325  0.00  0.00    +0.015 A 
ENDROOT
BRANCH   1   8
ATOM      7  O   LIG    1        2.324  -1.331  -0.070  0.00  0.00    -0.296 OA
ATOM      8  C   LIG    1        2.198  -0.130   0.130  0.00  0.00    +0.258 C 
ENDBRANCH   1   8
BRANCH   3   9
ATOM      9  O   LIG    1        5.542  -0.057   3.662  0.00  0.00    -0.503 OA
ATOM     10  H   LIG    1        5.920   0.628   4.248  0.00  0.00    +0.292 HD
ENDBRANCH   3   9
BRANCH   4  11
ATOM     11  O   LIG    1        5.187   2.602   4.026  0.00  0.00    -0.503 OA
ATOM     12  H   LIG    1        4.948   3.545   4.037  0.00  0.00    +0.292 HD
ENDBRANCH   4  11
TORSDOF 3
