REMARK  Name = *****
REMARK                            x       y       z     vdW  Elec       q    Type
REMARK                         _______ _______ _______ _____ _____    ______ ____
ROOT
ATOM      1  C   LIG    1       10.644  -2.708   1.048  0.00  0.00    +0.003 C 
ATOM      2  C   LIG    1        9.534  -2.854   0.306  0.00  0.00    -0.050 C 
ATOM      3  C   LIG    1        9.557  -2.400  -1.133  0.00  0.00    +0.044 C 
ENDROOT
BRANCH   1   5
ATOM      4  C   LIG    1       12.018  -2.846   3.123  0.00  0.00    +0.003 C 
ATOM      5  C   LIG    1       10.873  -3.030   2.440  0.00  0.00    +0.001 C 
BRANCH   4   7
ATOM      6  C   LIG    1       14.038  -1.491   3.734  0.00  0.00    +0.044 C 
ATOM      7  C   LIG    1       13.299  -2.284   2.684  0.00  0.00    -0.044 C 
ATOM      8  C   LIG    1       13.827  -2.531   1.465  0.00  0.00    +0.094 C 
BRANCH   8   9
ATOM      9  C   LIG    1       15.116  -2.054   0.964  0.00  0.00    +0.330 C 
ATOM     10  O   LIG    1       15.867  -1.218   1.456  0.00  0.00    -0.246 OA
BRANCH   9  11
ATOM     11  O   LIG    1       15.432  -2.698  -0.169  0.00  0.00    -0.477 OA
ATOM     12  H   LIG    1       16.318  -2.358  -0.403  0.00  0.00    +0.295 HD
ENDBRANCH   9  11
ENDBRANCH   8   9
ENDBRANCH   4   7
ENDBRANCH   1   5
BRANCH   2  13
ATOM     13  C   LIG    1        8.285  -3.386   0.812  0.00  0.00    +0.003 C 
ATOM     14  C   LIG    1        7.665  -4.448   0.273  0.00  0.00    +0.004 C 
BRANCH  14  15
ATOM     15  C   LIG    1        6.428  -5.039   0.776  0.00  0.00    -0.043 C 
ATOM     16  C   LIG    1        5.231  -5.028  -0.214  0.00  0.00    -0.010 C 
ATOM     17  C   LIG    1        4.951  -3.588  -0.708  0.00  0.00    +0.016 C 
ATOM     18  C   LIG    1        5.483  -5.931  -1.444  0.00  0.00    +0.016 C 
ATOM     19  C   LIG    1        3.922  -5.510   0.472  0.00  0.00    +0.011 C 
ATOM     20  C   LIG    1        4.170  -6.699   1.382  0.00  0.00    +0.005 C 
ATOM     21  C   LIG    1        5.091  -6.269   2.513  0.00  0.00    +0.031 C 
ATOM     22  C   LIG    1        6.332  -5.550   2.031  0.00  0.00    -0.069 C 
ATOM     23  C   LIG    1        7.402  -5.484   3.097  0.00  0.00    +0.039 C 
ENDBRANCH  14  15
ENDBRANCH   2  13
TORSDOF 6
