REMARK  Name = *****
REMARK                            x       y       z     vdW  Elec       q    Type
REMARK                         _______ _______ _______ _____ _____    ______ ____
ROOT
ATOM      1  C   LIG    1        3.341   0.976   0.438  0.00  0.00    +0.165 A 
ATOM      2  C   LIG    1        2.421  -0.097   0.335  0.00  0.00    +0.204 A 
ATOM      3  C   LIG    1        2.508  -1.227   1.214  0.00  0.00    +0.170 A 
ATOM      4  C   LIG    1        3.580  -1.304   2.135  0.00  0.00    +0.012 A 
ATOM      5  C   LIG    1        4.339  -0.184   2.242  0.00  0.00    +0.012 A 
ATOM      6  C   LIG    1        4.396   0.832   1.337  0.00  0.00    +0.050 A 
ENDROOT
BRANCH   1   8
ATOM      7  C   LIG    1        3.914   3.306   0.341  0.00  0.00    +0.277 C 
ATOM      8  O   LIG    1        3.244   2.167  -0.237  0.00  0.00    -0.491 OA
ENDBRANCH   1   8
BRANCH   2   9
ATOM      9  O   LIG    1        1.407  -0.093  -0.603  0.00  0.00    -0.488 OA
ATOM     10  C   LIG    1        1.781   0.372  -1.902  0.00  0.00    +0.277 C 
ENDBRANCH   2   9
BRANCH   3  11
ATOM     11  O   LIG    1        1.693  -2.310   1.351  0.00  0.00    -0.491 OA
ATOM     12  C   LIG    1        0.339  -2.295   0.950  0.00  0.00    +0.277 C 
ENDBRANCH   3  11
BRANCH   4  13
ATOM     13  C   LIG    1        3.824  -2.490   3.061  0.00  0.00    +0.123 C 
BRANCH  13  14
ATOM     14  N   LIG    1        5.220  -2.904   3.357  0.00  0.00    -0.296 NA
ATOM     15  C   LIG    1        5.910  -3.641   2.292  0.00  0.00    +0.100 C 
ATOM     16  C   LIG    1        6.741  -2.760   1.339  0.00  0.00    +0.096 C 
ATOM     17  N   LIG    1        7.766  -1.971   2.060  0.00  0.00    -0.314 NA
ATOM     18  H   LIG    1        8.375  -2.608   2.566  0.00  0.00    +0.122 HD
ATOM     19  C   LIG    1        7.083  -1.135   3.047  0.00  0.00    +0.096 C 
ATOM     20  C   LIG    1        6.113  -1.927   3.997  0.00  0.00    +0.100 C 
ENDBRANCH  13  14
ENDBRANCH   4  13
TORSDOF 5
