REMARK  Name = *****
REMARK                            x       y       z     vdW  Elec       q    Type
REMARK                         _______ _______ _______ _____ _____    ______ ____
ROOT
ATOM      1  C   LIG    1        9.463  -3.595   2.580  0.00  0.00    +0.073 C 
ATOM      2  C   LIG    1        8.442  -2.895   3.482  0.00  0.00    +0.166 C 
ATOM      3  O   LIG    1        7.545  -2.097   2.615  0.00  0.00    -0.332 OA
ATOM      4  C   LIG    1        6.232  -2.467   3.061  0.00  0.00    +0.164 C 
ATOM      5  C   LIG    1        6.516  -3.928   3.367  0.00  0.00    +0.162 C 
ATOM      6  C   LIG    1        5.150  -4.570   3.547  0.00  0.00    +0.039 C 
ATOM      7  C   LIG    1        4.614  -4.100   2.177  0.00  0.00    +0.004 C 
ATOM      8  C   LIG    1        3.238  -4.410   1.604  0.00  0.00    +0.002 C 
ATOM      9  C   LIG    1        3.270  -4.081   0.067  0.00  0.00    +0.035 C 
ATOM     10  C   LIG    1        3.965  -2.696  -0.261  0.00  0.00    +0.120 C 
ATOM     11  C   LIG    1        5.169  -2.255   0.628  0.00  0.00    +0.042 C 
ATOM     12  C   LIG    1        3.766  -5.259  -0.889  0.00  0.00    +0.016 C 
ATOM     13  C   LIG    1        3.351  -6.660  -0.388  0.00  0.00    -0.023 C 
ATOM     14  C   LIG    1        3.678  -7.732  -1.149  0.00  0.00    +0.053 C 
ATOM     15  C   LIG    1        5.177  -7.795  -1.350  0.00  0.00    +0.179 C 
ATOM     16  C   LIG    1        5.921  -6.500  -1.323  0.00  0.00    +0.047 C 
ATOM     17  O   LIG    1        5.734  -8.847  -1.635  0.00  0.00    -0.288 OA
ATOM     18  C   LIG    1        3.435  -6.889   1.104  0.00  0.00    +0.193 C 
ATOM     19  F   LIG    1        4.734  -6.928   1.508  0.00  0.00    -0.241 F 
ATOM     20  C   LIG    1        3.099  -5.003  -2.277  0.00  0.00    +0.020 C 
ATOM     21  C   LIG    1        5.274  -5.333  -1.142  0.00  0.00    -0.012 C 
ATOM     22  C   LIG    1        2.715  -5.817   1.889  0.00  0.00    +0.045 C 
ATOM     23  C   LIG    1        4.965  -2.565   2.117  0.00  0.00    +0.012 C 
ATOM     24  C   LIG    1        3.795  -1.698   2.674  0.00  0.00    +0.015 C 
ATOM     25  O   LIG    1        7.637  -3.875   4.209  0.00  0.00    -0.343 OA
ATOM     26  C   LIG    1        9.176  -2.018   4.492  0.00  0.00    +0.073 C 
ENDROOT
BRANCH  10  27
ATOM     27  O   LIG    1        2.977  -1.661  -0.195  0.00  0.00    -0.391 OA
ATOM     28  H   LIG    1        2.324  -1.819  -0.898  0.00  0.00    +0.210 HD
ENDBRANCH  10  27
BRANCH   4  29
ATOM     29  C   LIG    1        5.962  -1.592   4.319  0.00  0.00    +0.193 C 
ATOM     30  O   LIG    1        5.502  -2.036   5.376  0.00  0.00    -0.292 OA
BRANCH  29  31
ATOM     31  C   LIG    1        6.258  -0.095   4.191  0.00  0.00    +0.233 C 
BRANCH  31  32
ATOM     32  O   LIG    1        5.572   0.649   5.190  0.00  0.00    -0.387 OA
ATOM     33  H   LIG    1        5.502   0.057   5.966  0.00  0.00    +0.210 HD
ENDBRANCH  31  32
ENDBRANCH  29  31
ENDBRANCH   4  29
TORSDOF 4
