REMARK  Name = *****
REMARK                            x       y       z     vdW  Elec       q    Type
REMARK                         _______ _______ _______ _____ _____    ______ ____
ROOT
ATOM      1  N   LIG    1        4.694   1.690  -0.343  0.00  0.00    -0.183 NA
ATOM      2  C   LIG    1        5.978   1.856  -0.409  0.00  0.00    +0.176 C 
ENDROOT
BRANCH   1   7
ATOM      3  N   LIG    1        2.032   1.681  -0.310  0.00  0.00    -0.312 N 
ATOM      4  H   LIG    1        2.624   1.069   0.234  0.00  0.00    +0.146 HD
ATOM      5  H   LIG    1        1.033   1.543  -0.323  0.00  0.00    +0.146 HD
ATOM      6  C   LIG    1        2.612   2.248  -1.395  0.00  0.00    +0.317 C 
ATOM      7  N   LIG    1        3.983   2.237  -1.379  0.00  0.00    -0.191 N 
ATOM      8  H   LIG    1        4.446   2.687  -2.162  0.00  0.00    +0.179 HD
ATOM      9  O   LIG    1        1.961   2.742  -2.308  0.00  0.00    -0.251 OA
ENDBRANCH   1   7
BRANCH   2  10
ATOM     10  C   LIG    1        6.829   1.342   0.627  0.00  0.00    +0.154 A 
ATOM     11  O   LIG    1        8.178   1.561   0.528  0.00  0.00    -0.399 OA
ATOM     12  C   LIG    1        8.739   0.994   1.631  0.00  0.00    +0.438 A 
ATOM     13  C   LIG    1        7.793   0.406   2.436  0.00  0.00    +0.132 A 
ATOM     14  C   LIG    1        6.554   0.638   1.788  0.00  0.00    +0.058 A 
BRANCH  12  15
ATOM     15  N   LIG    1       10.157   1.111   1.763  0.00  0.00    +0.119 N 
ATOM     16  O   LIG    1       10.773   1.706   0.872  0.00  0.00    -0.574 OA
ATOM     17  O   LIG    1       10.656   0.601   2.777  0.00  0.00    +0.045 OA
ENDBRANCH  12  15
ENDBRANCH   2  10
TORSDOF 3
