REMARK  Name = *****
REMARK                            x       y       z     vdW  Elec       q    Type
REMARK                         _______ _______ _______ _____ _____    ______ ____
ROOT
ATOM      1  C   LIG    1        9.071   0.392  -2.159  0.00  0.00    -0.017 C 
ATOM      2  C   LIG    1        9.700   0.453  -0.967  0.00  0.00    -0.013 C 
ATOM      3  C   LIG    1        9.568   1.609  -0.040  0.00  0.00    -0.003 A 
ATOM      4  C   LIG    1        9.123   1.370   1.275  0.00  0.00    +0.021 A 
ATOM      5  C   LIG    1        8.951   2.439   2.163  0.00  0.00    +0.017 A 
ATOM      6  C   LIG    1        9.296   3.734   1.775  0.00  0.00    +0.021 A 
ATOM      7  C   LIG    1        9.830   3.955   0.507  0.00  0.00    +0.042 A 
ATOM      8 CL   LIG    1       10.344   5.537   0.067  0.00  0.00    -0.084 Cl
ATOM      9  S   LIG    1        8.842  -0.294   1.884  0.00  0.00    -0.088 S 
ATOM     10  C   LIG    1        9.992  -1.218   0.855  0.00  0.00    +0.021 A 
ATOM     11  C   LIG    1       10.562  -2.386   1.373  0.00  0.00    +0.015 A 
ATOM     12  C   LIG    1       11.438  -3.146   0.595  0.00  0.00    +0.001 A 
ATOM     13  C   LIG    1       11.749  -2.744  -0.703  0.00  0.00    +0.001 A 
ATOM     14  C   LIG    1       11.194  -1.575  -1.226  0.00  0.00    +0.009 A 
ATOM     15  C   LIG    1        9.966   2.904  -0.401  0.00  0.00    +0.029 A 
ATOM     16  C   LIG    1       10.306  -0.807  -0.456  0.00  0.00    -0.004 A 
ENDROOT
BRANCH   1  17
ATOM     17  C   LIG    1        8.163   1.412  -2.807  0.00  0.00    +0.043 C 
BRANCH  17  18
ATOM     18  C   LIG    1        6.688   1.164  -2.425  0.00  0.00    +0.088 C 
BRANCH  18  22
ATOM     19  N   LIG    1        4.116   3.528  -0.893  0.00  0.00    -0.298 NA
ATOM     20  C   LIG    1        3.919   2.103  -1.233  0.00  0.00    +0.100 C 
ATOM     21  C   LIG    1        4.333   1.724  -2.678  0.00  0.00    +0.100 C 
ATOM     22  N   LIG    1        5.724   2.096  -3.045  0.00  0.00    -0.300 NA
ATOM     23  C   LIG    1        5.946   3.509  -2.666  0.00  0.00    +0.100 C 
ATOM     24  C   LIG    1        5.521   3.876  -1.220  0.00  0.00    +0.100 C 
BRANCH  19  25
ATOM     25  C   LIG    1        3.188   4.434  -1.604  0.00  0.00    +0.112 C 
BRANCH  25  26
ATOM     26  C   LIG    1        1.694   4.190  -1.342  0.00  0.00    +0.171 C 
BRANCH  26  27
ATOM     27  O   LIG    1        0.924   5.127  -2.094  0.00  0.00    -0.394 OA
ATOM     28  H   LIG    1       -0.000   4.826  -2.057  0.00  0.00    +0.209 HD
ENDBRANCH  26  27
ENDBRANCH  25  26
ENDBRANCH  19  25
ENDBRANCH  18  22
ENDBRANCH  17  18
ENDBRANCH   1  17
TORSDOF 6
