REMARK  Name = *****
REMARK                            x       y       z     vdW  Elec       q    Type
REMARK                         _______ _______ _______ _____ _____    ______ ____
ROOT
ATOM      1  C   LIG    1        0.990   0.056   0.044  0.00  0.00    +0.012 C 
ATOM      2  C   LIG    1        2.515   0.043  -0.182  0.00  0.00    -0.020 C 
ATOM      3  C   LIG    1        2.728  -0.015  -1.708  0.00  0.00    +0.012 C 
ATOM      4  C   LIG    1        3.282  -1.040   0.626  0.00  0.00    +0.032 C 
ATOM      5  C   LIG    1        2.884  -2.482   0.421  0.00  0.00    +0.019 C 
ATOM      6  C   LIG    1        3.072  -0.521   2.054  0.00  0.00    +0.140 C 
ATOM      7  O   LIG    1        3.019  -1.202   3.064  0.00  0.00    -0.297 OA
ATOM      8  C   LIG    1        2.999   0.992   2.022  0.00  0.00    +0.079 C 
ATOM      9  C   LIG    1        4.768  -0.715   0.353  0.00  0.00    +0.015 C 
ATOM     10  C   LIG    1        4.768   0.830   0.271  0.00  0.00    +0.005 C 
ATOM     11  C   LIG    1        3.281   1.201   0.514  0.00  0.00    +0.003 C 
ENDROOT
TORSDOF 0
