REMARK  Name = *****
REMARK                            x       y       z     vdW  Elec       q    Type
REMARK                         _______ _______ _______ _____ _____    ______ ____
ROOT
ATOM      1  C   LIG    1        9.654  -5.226   6.562  0.00  0.00    +0.051 C 
ATOM      2  C   LIG    1        8.117  -5.015   6.196  0.00  0.00    +0.065 C 
ATOM      3  C   LIG    1        7.571  -5.077   7.610  0.00  0.00    +0.140 C 
ATOM      4  O   LIG    1        6.679  -4.332   8.004  0.00  0.00    -0.297 OA
ATOM      5  C   LIG    1        8.384  -5.951   8.544  0.00  0.00    +0.106 C 
ATOM      6  C   LIG    1        9.626  -6.261   7.713  0.00  0.00    +0.129 C 
ENDROOT
BRANCH   6   7
ATOM      7  O   LIG    1        9.544  -7.577   7.183  0.00  0.00    -0.391 OA
ATOM      8  H   LIG    1       10.383  -7.746   6.717  0.00  0.00    +0.210 HD
ENDBRANCH   6   7
BRANCH   1  10
ATOM      9  C   LIG    1       11.442  -3.319   6.672  0.00  0.00    -0.000 C 
ATOM     10  C   LIG    1       10.328  -3.948   7.096  0.00  0.00    -0.022 C 
BRANCH   9  11
ATOM     11  C   LIG    1       11.979  -1.945   7.079  0.00  0.00    +0.137 C 
BRANCH  11  12
ATOM     12  O   LIG    1       11.509  -1.016   6.096  0.00  0.00    -0.388 OA
ATOM     13  H   LIG    1       10.710  -1.393   5.691  0.00  0.00    +0.210 HD
ENDBRANCH  11  12
BRANCH  11  14
ATOM     14  C   LIG    1       11.726  -1.336   8.482  0.00  0.00    +0.035 C 
BRANCH  14  15
ATOM     15  C   LIG    1       10.256  -1.082   8.842  0.00  0.00    +0.003 C 
BRANCH  15  16
ATOM     16  C   LIG    1       10.050  -0.468  10.225  0.00  0.00    -0.000 C 
BRANCH  16  18
ATOM     17  C   LIG    1        8.382   0.355  11.909  0.00  0.00    +0.004 C 
ATOM     18  C   LIG    1        8.558  -0.322  10.559  0.00  0.00    -0.003 C 
ENDBRANCH  16  18
ENDBRANCH  15  16
ENDBRANCH  14  15
ENDBRANCH  11  14
ENDBRANCH   9  11
ENDBRANCH   1  10
BRANCH   2  19
ATOM     19  C   LIG    1        7.461  -6.024   5.161  0.00  0.00    +0.011 C 
BRANCH  19  20
ATOM     20  C   LIG    1        5.897  -5.958   4.895  0.00  0.00    +0.001 C 
BRANCH  20  21
ATOM     21  C   LIG    1        5.326  -6.978   3.845  0.00  0.00    +0.000 C 
BRANCH  21  22
ATOM     22  C   LIG    1        3.776  -6.944   3.571  0.00  0.00    +0.000 C 
BRANCH  22  23
ATOM     23  C   LIG    1        3.309  -5.669   2.820  0.00  0.00    +0.011 C 
BRANCH  23  24
ATOM     24  C   LIG    1        1.797  -5.371   2.588  0.00  0.00    +0.120 C 
BRANCH  24  25
ATOM     25  C   LIG    1        1.068  -6.307   1.645  0.00  0.00    +0.305 C 
ATOM     26  O   LIG    1        0.385  -5.951   0.645  0.00  0.00    -0.251 OA
BRANCH  25  27
ATOM     27  O   LIG    1        1.125  -7.590   2.030  0.00  0.00    -0.481 OA
ATOM     28  H   LIG    1        1.614  -7.684   2.875  0.00  0.00    +0.295 HD
ENDBRANCH  25  27
ENDBRANCH  24  25
ENDBRANCH  23  24
ENDBRANCH  22  23
ENDBRANCH  21  22
ENDBRANCH  20  21
ENDBRANCH  19  20
ENDBRANCH   2  19
TORSDOF 16
