REMARK  Name = *****
REMARK                            x       y       z     vdW  Elec       q    Type
REMARK                         _______ _______ _______ _____ _____    ______ ____
ROOT
ATOM      1  C   LIG    1       -6.647   1.583  13.630  0.00  0.00    +0.007 C 
ENDROOT
BRANCH   1   2
ATOM      2  C   LIG    1       -5.345   1.791  14.665  0.00  0.00    +0.041 C 
BRANCH   2   3
ATOM      3  C   LIG    1       -3.775   2.055  14.216  0.00  0.00    +0.232 C 
BRANCH   3   4
ATOM      4  O   LIG    1       -2.917   0.979  13.626  0.00  0.00    -0.465 OA
BRANCH   4   5
ATOM      5  C   LIG    1       -1.764   0.376  13.944  0.00  0.00    +0.312 C 
ATOM      6  O   LIG    1       -1.239   0.556  15.023  0.00  0.00    -0.251 OA
BRANCH   5   7
ATOM      7  C   LIG    1       -1.075  -0.403  12.794  0.00  0.00    +0.171 C 
BRANCH   7   8
ATOM      8  C   LIG    1       -1.859  -1.176  11.760  0.00  0.00    +0.145 C 
BRANCH   8   9
ATOM      9  N   LIG    1       -2.524  -0.291  10.684  0.00  0.00    +0.247 N 
ATOM     10  C   LIG    1       -1.507   0.469   9.779  0.00  0.00    +0.193 C 
ATOM     11  C   LIG    1       -3.614   0.580  11.285  0.00  0.00    +0.102 C 
ATOM     12  C   LIG    1       -4.670  -0.295  12.048  0.00  0.00    +0.008 A 
ATOM     13  C   LIG    1       -5.573  -1.077  11.243  0.00  0.00    -0.030 A 
ATOM     14  C   LIG    1       -7.417  -1.308  11.428  0.00  0.00    +0.053 A 
ATOM     15  C   LIG    1       -8.130  -1.221  12.884  0.00  0.00    +0.162 A 
ATOM     16  C   LIG    1       -6.896  -0.633  14.065  0.00  0.00    +0.162 A 
ATOM     17  C   LIG    1       -4.516  -1.790  10.478  0.00  0.00    +0.086 C 
ATOM     18  C   LIG    1       -5.200  -0.310  13.473  0.00  0.00    +0.059 A 
ATOM     19  C   LIG    1       -3.409  -0.973   9.872  0.00  0.00    +0.138 C 
BRANCH  15  20
ATOM     20  O   LIG    1       -9.032  -2.315  12.894  0.00  0.00    -0.491 OA
ATOM     21  C   LIG    1       -9.047  -3.058  14.073  0.00  0.00    +0.277 C 
ENDBRANCH  15  20
BRANCH  16  22
ATOM     22  O   LIG    1       -7.305  -0.423  15.440  0.00  0.00    -0.491 OA
ATOM     23  C   LIG    1       -8.617  -0.488  15.258  0.00  0.00    +0.277 C 
ENDBRANCH  16  22
BRANCH  11  24
ATOM     24  C   LIG    1       -3.891   2.019  10.703  0.00  0.00    +0.095 C 
BRANCH  24  25
ATOM     25  C   LIG    1       -4.852   2.276   9.593  0.00  0.00    -0.038 A 
ATOM     26  C   LIG    1       -5.480   3.471   9.580  0.00  0.00    +0.053 A 
ATOM     27  C   LIG    1       -6.758   3.716   9.032  0.00  0.00    +0.162 A 
ATOM     28  C   LIG    1       -7.205   2.812   8.050  0.00  0.00    +0.162 A 
ATOM     29  C   LIG    1       -6.296   1.806   7.710  0.00  0.00    +0.050 A 
ATOM     30  C   LIG    1       -5.119   1.626   8.449  0.00  0.00    +0.007 A 
BRANCH  28  31
ATOM     31  O   LIG    1       -8.306   2.726   7.240  0.00  0.00    -0.491 OA
ATOM     32  C   LIG    1       -9.496   3.413   7.586  0.00  0.00    +0.277 C 
ENDBRANCH  28  31
BRANCH  27  33
ATOM     33  O   LIG    1       -7.433   4.815   9.548  0.00  0.00    -0.491 OA
ATOM     34  C   LIG    1       -6.697   5.532  10.590  0.00  0.00    +0.277 C 
ENDBRANCH  27  33
ENDBRANCH  24  25
ENDBRANCH  11  24
ENDBRANCH   8   9
ENDBRANCH   7   8
ENDBRANCH   5   7
ENDBRANCH   4   5
ENDBRANCH   3   4
ENDBRANCH   2   3
ENDBRANCH   1   2
BRANCH   1  35
ATOM     35  C   LIG    1       -6.847   0.095  12.484  0.00  0.00    +0.041 C 
BRANCH  35  36
ATOM     36  C   LIG    1       -6.401  -1.878  12.922  0.00  0.00    +0.232 C 
BRANCH  36  37
ATOM     37  O   LIG    1       -6.801  -3.197  11.867  0.00  0.00    -0.465 OA
BRANCH  37  38
ATOM     38  C   LIG    1       -6.814  -2.922  10.199  0.00  0.00    +0.312 C 
ATOM     39  O   LIG    1       -6.912  -1.877   9.500  0.00  0.00    -0.251 OA
BRANCH  38  40
ATOM     40  C   LIG    1       -5.942  -4.034  10.201  0.00  0.00    +0.171 C 
BRANCH  40  41
ATOM     41  C   LIG    1       -5.549  -3.930   8.783  0.00  0.00    +0.145 C 
BRANCH  41  43
ATOM     42  C   LIG    1       -2.708  -3.278   9.182  0.00  0.00    +0.102 C 
ATOM     43  N   LIG    1       -4.336  -2.893   8.349  0.00  0.00    +0.247 N 
ATOM     44  C   LIG    1       -5.006  -1.127   8.090  0.00  0.00    +0.193 C 
ATOM     45  C   LIG    1       -4.088  -3.118   6.961  0.00  0.00    +0.138 C 
ATOM     46  C   LIG    1       -3.606  -4.532   6.761  0.00  0.00    +0.086 C 
ATOM     47  C   LIG    1       -2.722  -5.170   7.813  0.00  0.00    -0.030 A 
ATOM     48  C   LIG    1       -2.221  -6.410   7.652  0.00  0.00    +0.053 A 
ATOM     49  C   LIG    1       -1.582  -7.113   8.694  0.00  0.00    +0.162 A 
ATOM     50  C   LIG    1       -1.435  -6.549   9.976  0.00  0.00    +0.162 A 
ATOM     51  C   LIG    1       -1.889  -5.283  10.149  0.00  0.00    +0.059 A 
ATOM     52  C   LIG    1       -2.458  -4.659   9.047  0.00  0.00    +0.008 A 
BRANCH  50  53
ATOM     53  O   LIG    1       -0.844  -7.191  11.021  0.00  0.00    -0.491 OA
ATOM     54  C   LIG    1       -1.323  -6.819  12.328  0.00  0.00    +0.277 C 
ENDBRANCH  50  53
BRANCH  49  55
ATOM     55  O   LIG    1       -1.149  -8.385   8.436  0.00  0.00    -0.491 OA
ATOM     56  C   LIG    1       -1.869  -9.026   7.369  0.00  0.00    +0.277 C 
ENDBRANCH  49  55
BRANCH  42  57
ATOM     57  C   LIG    1       -1.387  -2.424   8.830  0.00  0.00    +0.095 C 
BRANCH  57  61
ATOM     58  C   LIG    1        0.585  -1.567   5.155  0.00  0.00    +0.162 A 
ATOM     59  C   LIG    1       -0.741  -1.883   5.135  0.00  0.00    +0.162 A 
ATOM     60  C   LIG    1       -1.366  -2.115   6.324  0.00  0.00    +0.053 A 
ATOM     61  C   LIG    1       -0.808  -1.975   7.557  0.00  0.00    -0.038 A 
ATOM     62  C   LIG    1        0.422  -1.356   7.580  0.00  0.00    +0.007 A 
ATOM     63  C   LIG    1        1.133  -1.230   6.398  0.00  0.00    +0.050 A 
BRANCH  58  65
ATOM     64  C   LIG    1        1.268  -2.401   2.955  0.00  0.00    +0.277 C 
ATOM     65  O   LIG    1        1.411  -1.498   4.076  0.00  0.00    -0.491 OA
ENDBRANCH  58  65
BRANCH  59  66
ATOM     66  O   LIG    1       -1.582  -2.122   4.091  0.00  0.00    -0.491 OA
ATOM     67  C   LIG    1       -1.358  -1.240   3.020  0.00  0.00    +0.277 C 
ENDBRANCH  59  66
ENDBRANCH  57  61
ENDBRANCH  42  57
ENDBRANCH  41  43
ENDBRANCH  40  41
ENDBRANCH  38  40
ENDBRANCH  37  38
ENDBRANCH  36  37
ENDBRANCH  35  36
ENDBRANCH   1  35
TORSDOF 26
