REMARK  Name = *****
REMARK                            x       y       z     vdW  Elec       q    Type
REMARK                         _______ _______ _______ _____ _____    ______ ____
ROOT
ATOM      1  C   LIG    1        3.441   0.544   6.159  0.00  0.00    +0.084 C 
ENDROOT
BRANCH   1   2
ATOM      2  N   LIG    1        4.225  -0.584   6.681  0.00  0.00    -0.299 NA
ATOM      3  C   LIG    1        5.682  -0.471   6.460  0.00  0.00    +0.103 C 
ATOM      4  C   LIG    1        6.424   0.571   7.325  0.00  0.00    +0.122 C 
ATOM      5  N   LIG    1        6.141   0.399   8.768  0.00  0.00    -0.312 N 
ATOM      6  C   LIG    1        4.692   0.279   9.054  0.00  0.00    +0.122 C 
ATOM      7  C   LIG    1        4.007  -0.765   8.140  0.00  0.00    +0.103 C 
BRANCH   5   8
ATOM      8  C   LIG    1        6.830   1.261   9.594  0.00  0.00    +0.138 A 
ATOM      9  C   LIG    1        8.232   1.040   9.916  0.00  0.00    +0.031 A 
ATOM     10  C   LIG    1        8.693   2.044  10.771  0.00  0.00    +0.041 A 
ATOM     11  C   LIG    1       10.009   2.077  11.261  0.00  0.00    +0.017 A 
ATOM     12  C   LIG    1       10.884   1.057  10.881  0.00  0.00    +0.001 A 
ATOM     13  C   LIG    1       10.461   0.040  10.033  0.00  0.00    +0.001 A 
ATOM     14  S   LIG    1        7.398   3.127  11.066  0.00  0.00    +0.014 S 
ATOM     15  C   LIG    1        9.148   0.021   9.549  0.00  0.00    +0.012 A 
ATOM     16  N   LIG    1        6.274   2.329  10.166  0.00  0.00    -0.194 NA
ENDBRANCH   5   8
ENDBRANCH   1   2
BRANCH   1  17
ATOM     17  C   LIG    1        3.600   0.826   4.657  0.00  0.00    +0.017 C 
BRANCH  17  18
ATOM     18  C   LIG    1        3.252  -0.347   3.738  0.00  0.00    +0.021 C 
BRANCH  18  19
ATOM     19  C   LIG    1        3.436   0.073   2.278  0.00  0.00    +0.116 C 
BRANCH  19  22
ATOM     20  O   LIG    1        5.208  -1.994   1.248  0.00  0.00    -0.275 OA
ATOM     21  C   LIG    1        4.012  -1.955   0.973  0.00  0.00    +0.226 C 
ATOM     22  N   LIG    1        3.112  -1.002   1.367  0.00  0.00    -0.242 N 
ATOM     23  C   LIG    1        1.856  -1.216   0.860  0.00  0.00    +0.226 C 
ATOM     24  O   LIG    1        0.841  -0.596   1.124  0.00  0.00    -0.275 OA
ATOM     25  C   LIG    1        1.961  -2.306  -0.188  0.00  0.00    +0.087 C 
ATOM     26  C   LIG    1        2.019  -1.638  -1.564  0.00  0.00    +0.013 C 
ATOM     27  C   LIG    1        2.676  -2.522  -2.612  0.00  0.00    +0.001 C 
ATOM     28  C   LIG    1        4.079  -2.918  -2.173  0.00  0.00    +0.001 C 
ATOM     29  C   LIG    1        4.042  -3.708  -0.871  0.00  0.00    +0.013 C 
ATOM     30  C   LIG    1        3.249  -3.021   0.236  0.00  0.00    +0.087 C 
ENDBRANCH  19  22
ENDBRANCH  18  19
ENDBRANCH  17  18
ENDBRANCH   1  17
TORSDOF 6
