REMARK  Name = *****
REMARK                            x       y       z     vdW  Elec       q    Type
REMARK                         _______ _______ _______ _____ _____    ______ ____
ROOT
ATOM      1  C   LIG    1        4.417  -1.313  -0.370  0.00  0.00    +0.286 C 
ATOM      2  N   LIG    1        3.702  -1.381   0.828  0.00  0.00    -0.119 NA
ATOM      3  O   LIG    1        3.238  -2.517   1.235  0.00  0.00    -0.616 OA
ATOM      4  C   LIG    1        3.503  -0.205   1.557  0.00  0.00    +0.386 C 
ATOM      5  N   LIG    1        3.962   0.988   1.102  0.00  0.00    -0.156 NA
ATOM      6  C   LIG    1        4.662   1.052  -0.051  0.00  0.00    +0.137 C 
ATOM      7  C   LIG    1        4.896  -0.086  -0.813  0.00  0.00    +0.141 C 
ENDROOT
BRANCH   6   8
ATOM      8  N   LIG    1        5.125   2.301  -0.519  0.00  0.00    -0.315 NA
ATOM      9  C   LIG    1        6.595   2.362  -0.616  0.00  0.00    +0.106 C 
ATOM     10  C   LIG    1        7.014   3.655  -1.317  0.00  0.00    +0.019 C 
ATOM     11  C   LIG    1        6.429   4.881  -0.623  0.00  0.00    +0.003 C 
ATOM     12  C   LIG    1        4.916   4.748  -0.486  0.00  0.00    +0.019 C 
ATOM     13  C   LIG    1        4.537   3.440   0.209  0.00  0.00    +0.106 C 
ENDBRANCH   6   8
BRANCH   1  14
ATOM     14  N   LIG    1        4.594  -2.489  -1.142  0.00  0.00    -0.304 NA
ATOM     15  H   LIG    1        4.173  -3.253  -0.595  0.00  0.00    +0.148 HD
ATOM     16  H   LIG    1        5.570  -2.678  -1.346  0.00  0.00    +0.148 HD
ENDBRANCH   1  14
BRANCH   4  17
ATOM     17  N   LIG    1        2.797  -0.239   2.766  0.00  0.00    -0.287 NA
ATOM     18  H   LIG    1        2.273  -1.111   2.820  0.00  0.00    +0.149 HD
ATOM     19  H   LIG    1        2.292   0.624   2.920  0.00  0.00    +0.149 HD
ENDBRANCH   4  17
TORSDOF 3
