REMARK  Name = *****
REMARK                            x       y       z     vdW  Elec       q    Type
REMARK                         _______ _______ _______ _____ _____    ______ ____
ROOT
ATOM      1  C   LIG    1        6.436  -0.067  -1.108  0.00  0.00    +0.167 C 
ATOM      2  O   LIG    1        6.116   0.553  -2.128  0.00  0.00    -0.292 OA
ENDROOT
BRANCH   1   7
ATOM      3  C   LIG    1        3.600   1.301   3.799  0.00  0.00    +0.044 C 
ATOM      4  C   LIG    1        4.340   0.954   2.540  0.00  0.00    -0.050 A 
ATOM      5  C   LIG    1        5.133  -0.199   2.490  0.00  0.00    +0.004 A 
ATOM      6  C   LIG    1        5.815  -0.553   1.318  0.00  0.00    +0.012 A 
ATOM      7  C   LIG    1        5.716   0.247   0.173  0.00  0.00    +0.018 A 
ATOM      8  C   LIG    1        4.907   1.393   0.221  0.00  0.00    +0.012 A 
ATOM      9  C   LIG    1        4.224   1.743   1.391  0.00  0.00    +0.004 A 
ENDBRANCH   1   7
BRANCH   1  10
ATOM     10  C   LIG    1        7.523  -1.146  -1.133  0.00  0.00    +0.071 C 
ATOM     11  C   LIG    1        6.890  -2.486  -1.508  0.00  0.00    +0.017 C 
BRANCH  10  12
ATOM     12  C   LIG    1        8.637  -0.736  -2.131  0.00  0.00    +0.095 C 
BRANCH  12  13
ATOM     13  N   LIG    1        9.758  -1.695  -2.251  0.00  0.00    -0.302 NA
ATOM     14  C   LIG    1       10.660  -1.344  -3.363  0.00  0.00    +0.084 C 
ATOM     15  C   LIG    1       11.588  -0.158  -3.076  0.00  0.00    +0.015 C 
ATOM     16  C   LIG    1       12.354  -0.342  -1.769  0.00  0.00    +0.002 C 
ATOM     17  C   LIG    1       11.406  -0.708  -0.632  0.00  0.00    +0.015 C 
ATOM     18  C   LIG    1       10.535  -1.903  -1.021  0.00  0.00    +0.084 C 
ENDBRANCH  12  13
ENDBRANCH  10  12
ENDBRANCH   1  10
TORSDOF 4
