REMARK  Name = *****
REMARK                            x       y       z     vdW  Elec       q    Type
REMARK                         _______ _______ _______ _____ _____    ______ ____
ROOT
ATOM      1  C   LIG    1        9.639  -7.072  -9.789  0.00  0.00    +0.036 A 
ATOM      2  C   LIG    1        9.241  -7.994  -8.811  0.00  0.00    +0.038 A 
ATOM      3  C   LIG    1        9.079  -7.596  -7.458  0.00  0.00    +0.060 A 
ATOM      4  C   LIG    1        9.410  -6.281  -7.068  0.00  0.00    +0.131 A 
ATOM      5  C   LIG    1        9.943  -5.434  -8.049  0.00  0.00    +0.048 A 
ATOM      6  C   LIG    1       10.076  -5.826  -9.379  0.00  0.00    +0.027 A 
ENDROOT
BRANCH   1   9
ATOM      7  N   LIG    1        9.189  -7.090 -13.497  0.00  0.00    -0.286 N 
ATOM      8  C   LIG    1        9.543  -6.540 -12.258  0.00  0.00    +0.306 C 
ATOM      9  N   LIG    1        9.416  -7.372 -11.155  0.00  0.00    -0.269 N 
ATOM     10  H   LIG    1        8.752  -8.123 -11.243  0.00  0.00    +0.156 HD
ATOM     11  O   LIG    1        9.956  -5.355 -12.193  0.00  0.00    -0.252 OA
BRANCH   7  13
ATOM     12  C   LIG    1        8.272  -6.418 -15.801  0.00  0.00    +0.024 C 
ATOM     13  C   LIG    1        9.359  -6.274 -14.728  0.00  0.00    +0.106 C 
ENDBRANCH   7  13
BRANCH   7  14
ATOM     14  C   LIG    1        8.545  -8.397 -13.648  0.00  0.00    +0.106 C 
ATOM     15  C   LIG    1        9.305  -9.398 -14.489  0.00  0.00    +0.024 C 
ENDBRANCH   7  14
ENDBRANCH   1   9
BRANCH   3  16
ATOM     16  C   LIG    1        8.457  -8.615  -6.556  0.00  0.00    +0.164 C 
ATOM     17  O   LIG    1        8.663  -9.811  -6.759  0.00  0.00    -0.292 OA
ATOM     18  C   LIG    1        7.512  -8.167  -5.472  0.00  0.00    +0.091 C 
ENDBRANCH   3  16
BRANCH   4  19
ATOM     19  O   LIG    1        9.221  -5.863  -5.764  0.00  0.00    -0.489 OA
BRANCH  19  20
ATOM     20  C   LIG    1        9.492  -4.460  -5.496  0.00  0.00    +0.261 C 
BRANCH  20  21
ATOM     21  C   LIG    1        9.231  -4.085  -4.013  0.00  0.00    +0.166 C 
BRANCH  21  22
ATOM     22  O   LIG    1        7.865  -4.364  -3.692  0.00  0.00    -0.387 OA
ATOM     23  H   LIG    1        7.777  -5.334  -3.758  0.00  0.00    +0.210 HD
ENDBRANCH  21  22
BRANCH  21  24
ATOM     24  C   LIG    1        9.549  -2.576  -3.748  0.00  0.00    +0.116 C 
BRANCH  24  25
ATOM     25  N   LIG    1        9.440  -2.150  -2.331  0.00  0.00    -0.309 NA
ATOM     26  H   LIG    1        8.486  -2.343  -2.014  0.00  0.00    +0.122 HD
BRANCH  25  27
ATOM     27  C   LIG    1        9.787  -0.730  -2.046  0.00  0.00    +0.011 C 
ATOM     28  C   LIG    1        8.829   0.272  -2.719  0.00  0.00    +0.027 C 
ATOM     29  C   LIG    1       11.242  -0.410  -2.445  0.00  0.00    +0.027 C 
ATOM     30  C   LIG    1        9.665  -0.486  -0.521  0.00  0.00    +0.027 C 
ENDBRANCH  25  27
ENDBRANCH  24  25
ENDBRANCH  21  24
ENDBRANCH  20  21
ENDBRANCH  19  20
ENDBRANCH   4  19
TORSDOF 11
