REMARK  Name = *****
REMARK                            x       y       z     vdW  Elec       q    Type
REMARK                         _______ _______ _______ _____ _____    ______ ____
ROOT
ATOM      1  C   LIG    1        3.252  -4.137  -3.241  0.00  0.00    +0.015 C 
ATOM      2  C   LIG    1        3.546  -4.610  -4.465  0.00  0.00    +0.092 C 
ENDROOT
BRANCH   1   6
ATOM      3  C   LIG    1       -0.655  -3.990  -1.483  0.00  0.00    +0.120 A 
ATOM      4  C   LIG    1        0.466  -3.533  -0.789  0.00  0.00    +0.046 A 
ATOM      5  C   LIG    1        1.732  -3.581  -1.377  0.00  0.00    +0.011 A 
ATOM      6  C   LIG    1        1.899  -4.091  -2.670  0.00  0.00    -0.025 A 
ATOM      7  C   LIG    1        0.768  -4.560  -3.351  0.00  0.00    +0.011 A 
ATOM      8  C   LIG    1       -0.497  -4.509  -2.764  0.00  0.00    +0.046 A 
BRANCH   3  10
ATOM      9  C   LIG    1       -2.107  -3.423   0.284  0.00  0.00    +0.277 C 
ATOM     10  O   LIG    1       -1.939  -3.980  -1.013  0.00  0.00    -0.495 OA
ENDBRANCH   3  10
ENDBRANCH   1   6
BRANCH   2  11
ATOM     11  C   LIG    1        4.939  -4.685  -4.913  0.00  0.00    +0.332 C 
ATOM     12  O   LIG    1        5.913  -4.700  -4.172  0.00  0.00    -0.246 OA
BRANCH  11  13
ATOM     13  O   LIG    1        4.944  -4.752  -6.263  0.00  0.00    -0.462 OA
BRANCH  13  14
ATOM     14  C   LIG    1        6.241  -4.867  -6.870  0.00  0.00    +0.232 C 
BRANCH  14  15
ATOM     15  C   LIG    1        6.702  -6.327  -6.863  0.00  0.00    +0.044 C 
BRANCH  15  16
ATOM     16  C   LIG    1        8.045  -6.542  -7.583  0.00  0.00    -0.014 C 
ATOM     17  C   LIG    1        8.349  -8.036  -7.730  0.00  0.00    +0.007 C 
ATOM     18  C   LIG    1        9.207  -5.840  -6.877  0.00  0.00    +0.007 C 
ENDBRANCH  15  16
ENDBRANCH  14  15
ENDBRANCH  13  14
ENDBRANCH  11  13
ENDBRANCH   2  11
TORSDOF 7
