REMARK  Name = *****
REMARK                            x       y       z     vdW  Elec       q    Type
REMARK                         _______ _______ _______ _____ _____    ______ ____
ROOT
ATOM      1  C   LIG    1        3.910  -0.567  -0.494  0.00  0.00    +0.001 C 
ATOM      2  C   LIG    1        4.704  -0.761  -1.843  0.00  0.00    +0.000 C 
ATOM      3  C   LIG    1        3.733  -1.589  -2.779  0.00  0.00    +0.014 C 
ATOM      4  C   LIG    1        5.871  -1.708  -1.491  0.00  0.00    +0.001 C 
ATOM      5  C   LIG    1        7.257  -1.127  -1.115  0.00  0.00    -0.004 C 
ATOM      6  C   LIG    1        7.553   0.659  -1.702  0.00  0.00    +0.001 C 
ATOM      7  C   LIG    1        6.266   1.360  -2.188  0.00  0.00    +0.036 C 
ATOM      8  C   LIG    1        9.053   0.853  -2.735  0.00  0.00    -0.026 C 
ATOM      9  C   LIG    1        8.791   1.492  -4.087  0.00  0.00    +0.012 C 
ATOM     10  C   LIG    1       10.562  -0.217  -2.813  0.00  0.00    -0.002 C 
ATOM     11  C   LIG    1       11.594   0.371  -1.893  0.00  0.00    +0.035 C 
ATOM     12  C   LIG    1       10.817   0.471  -0.625  0.00  0.00    +0.115 C 
ATOM     13  C   LIG    1        9.513  -0.360  -0.807  0.00  0.00    +0.032 C 
ATOM     14  C   LIG    1       10.235  -2.025  -2.290  0.00  0.00    +0.004 C 
ATOM     15  C   LIG    1        8.741  -0.489  -2.627  0.00  0.00    +0.009 C 
ATOM     16  C   LIG    1        8.527  -2.436  -1.627  0.00  0.00    +0.004 C 
ATOM     17  C   LIG    1        5.339  -2.597  -0.351  0.00  0.00    +0.005 C 
ATOM     18  C   LIG    1        5.109   0.492  -2.663  0.00  0.00    +0.121 C 
ATOM     19  C   LIG    1        4.104  -1.914   0.234  0.00  0.00    +0.005 C 
ENDROOT
BRANCH   1  21
ATOM     20  C   LIG    1        5.434   0.789   1.130  0.00  0.00    +0.008 C 
ATOM     21  C   LIG    1        4.082   0.679   0.433  0.00  0.00    -0.010 C 
BRANCH  21  22
ATOM     22  C   LIG    1        2.958   0.712   1.521  0.00  0.00    +0.015 C 
BRANCH  22  23
ATOM     23  C   LIG    1        2.942   1.994   2.359  0.00  0.00    +0.121 C 
BRANCH  23  24
ATOM     24  C   LIG    1        1.858   1.981   3.397  0.00  0.00    +0.305 C 
ATOM     25  O   LIG    1        1.953   1.532   4.533  0.00  0.00    -0.251 OA
BRANCH  24  26
ATOM     26  O   LIG    1        0.710   2.536   2.975  0.00  0.00    -0.481 OA
ATOM     27  H   LIG    1        0.123   2.489   3.759  0.00  0.00    +0.295 HD
ENDBRANCH  24  26
ENDBRANCH  23  24
ENDBRANCH  22  23
ENDBRANCH  21  22
ENDBRANCH   1  21
BRANCH  12  28
ATOM     28  O   LIG    1       10.486   1.829  -0.351  0.00  0.00    -0.392 OA
ATOM     29  H   LIG    1       11.317   2.295  -0.154  0.00  0.00    +0.210 HD
ENDBRANCH  12  28
BRANCH  18  30
ATOM     30  O   LIG    1        5.400   0.147  -4.026  0.00  0.00    -0.391 OA
ATOM     31  H   LIG    1        6.057  -0.566  -4.032  0.00  0.00    +0.210 HD
ENDBRANCH  18  30
TORSDOF 7
