REMARK  Name = *****
REMARK                            x       y       z     vdW  Elec       q    Type
REMARK                         _______ _______ _______ _____ _____    ______ ____
ROOT
ATOM      1  O   LIG    1        8.161  -7.343  -4.530  0.00  0.00    -0.265 OA
ATOM      2  C   LIG    1        7.422  -6.767  -3.740  0.00  0.00    +0.279 C 
ATOM      3  C   LIG    1        7.807  -5.708  -2.828  0.00  0.00    +0.172 A 
ATOM      4  N   LIG    1        9.023  -5.113  -2.623  0.00  0.00    -0.229 NA
ATOM      5  C   LIG    1        8.787  -4.199  -1.702  0.00  0.00    +0.203 A 
ATOM      6  N   LIG    1        7.477  -4.200  -1.288  0.00  0.00    -0.288 N 
ATOM      7  C   LIG    1        6.833  -5.163  -2.019  0.00  0.00    +0.169 A 
ATOM      8  N   LIG    1        5.518  -5.489  -1.950  0.00  0.00    -0.218 NA
ATOM      9  C   LIG    1        5.202  -6.447  -2.770  0.00  0.00    +0.201 C 
ATOM     10  N   LIG    1        6.074  -7.082  -3.636  0.00  0.00    -0.312 N 
ATOM     11  H   LIG    1        5.753  -7.813  -4.251  0.00  0.00    +0.170 HD
ENDROOT
BRANCH   6  12
ATOM     12  C   LIG    1        6.852  -3.290  -0.341  0.00  0.00    +0.222 C 
ATOM     13  O   LIG    1        7.838  -2.341   0.126  0.00  0.00    -0.351 OA
ATOM     14  C   LIG    1        8.000  -2.501   1.546  0.00  0.00    +0.146 C 
ATOM     15  C   LIG    1        7.389  -3.844   1.906  0.00  0.00    +0.038 C 
ATOM     16  C   LIG    1        6.273  -3.962   0.898  0.00  0.00    +0.057 C 
BRANCH  14  17
ATOM     17  C   LIG    1        9.473  -2.384   1.932  0.00  0.00    +0.187 C 
BRANCH  17  18
ATOM     18  O   LIG    1        9.634  -2.526   3.337  0.00  0.00    -0.393 OA
ATOM     19  H   LIG    1       10.584  -2.423   3.524  0.00  0.00    +0.209 HD
ENDBRANCH  17  18
ENDBRANCH  14  17
ENDBRANCH   6  12
TORSDOF 3
