REMARK  Name = *****
REMARK                            x       y       z     vdW  Elec       q    Type
REMARK                         _______ _______ _______ _____ _____    ______ ____
ROOT
ATOM      1  C   UNK A  1        2.779  -4.094   0.773  0.00  0.00    +0.214 C 
ATOM      2  N   UNK A  1        3.047  -4.951   1.810  0.00  0.00    -0.303 N 
ATOM      3  H   UNK A  1        2.925  -4.641   2.772  0.00  0.00    +0.149 HD
ATOM      4  O   UNK A  1        2.884  -4.441  -0.401  0.00  0.00    -0.276 OA
ENDROOT
BRANCH   1   5
ATOM      5  C   UNK A  1        2.284  -2.722   1.205  0.00  0.00    +0.098 C 
BRANCH   5   6
ATOM      6  C   UNK A  1        2.509  -1.608   0.171  0.00  0.00    +0.039 C 
BRANCH   6   7
ATOM      7  C   UNK A  1        1.819  -1.796  -1.185  0.00  0.00    +0.161 C 
BRANCH   7   8
ATOM      8  N   UNK A  1        2.156  -0.667  -2.105  0.00  0.00    -0.318 NA
ATOM      9  H   UNK A  1        2.021   0.214  -1.598  0.00  0.00    +0.119 HD
ATOM     10  H   UNK A  1        3.162  -0.703  -2.286  0.00  0.00    +0.119 HD
ENDBRANCH   7   8
BRANCH   7  11
ATOM     11  C   UNK A  1        0.274  -1.892  -1.090  0.00  0.00    +0.322 C 
ATOM     12  O   UNK A  1       -0.372  -2.270  -0.144  0.00  0.00    -0.249 OA
BRANCH  11  13
ATOM     13  O   UNK A  1       -0.288  -1.506  -2.274  0.00  0.00    -0.479 OA
ATOM     14  H   UNK A  1        0.449  -1.200  -2.848  0.00  0.00    +0.295 HD
ENDBRANCH  11  13
ENDBRANCH   7  11
ENDBRANCH   6   7
ENDBRANCH   5   6
ENDBRANCH   1   5
BRANCH   2  15
ATOM     15  C   UNK A  1        3.516  -6.319   1.570  0.00  0.00    +0.168 C 
BRANCH  15  16
ATOM     16  C   UNK A  1        2.926  -7.220   2.659  0.00  0.00    +0.235 C 
ATOM     17  N   GLY A  2        2.236  -8.317   2.179  0.00  0.00    -0.303 N 
ATOM     18  H   GLY A  2        1.991  -8.373   1.192  0.00  0.00    +0.149 HD
ATOM     19  O   UNK A  1        3.050  -6.985   3.858  0.00  0.00    -0.274 OA
BRANCH  17  20
ATOM     20  CA  GLY A  2        1.796  -9.379   3.079  0.00  0.00    +0.224 C 
BRANCH  20  21
ATOM     21  C   GLY A  2        0.346  -9.194   3.495  0.00  0.00    +0.322 C 
ATOM     22  O   GLY A  2       -0.237  -9.930   4.289  0.00  0.00    -0.249 OA
BRANCH  21  23
ATOM     23  OXT GLY A  2       -0.284  -8.179   2.856  0.00  0.00    -0.479 OA
ATOM     24  HXT GLY A  2        0.337  -7.691   2.282  0.00  0.00    +0.295 HD
ENDBRANCH  21  23
ENDBRANCH  20  21
ENDBRANCH  17  20
ENDBRANCH  15  16
BRANCH  15  25
ATOM     25  C   UNK A  1        5.049  -6.419   1.542  0.00  0.00    +0.097 C 
BRANCH  25  26
ATOM     26  S   UNK A  1        5.666  -8.127   1.330  0.00  0.00    -0.176 S 
ATOM     27  H   UNK A  1        5.334  -8.568   2.557  0.00  0.00    +0.102 HD
ENDBRANCH  25  26
ENDBRANCH  15  25
ENDBRANCH   2  15
TORSDOF 13
