REMARK  Name = *****
REMARK                            x       y       z     vdW  Elec       q    Type
REMARK                         _______ _______ _______ _____ _____    ______ ____
ROOT
ATOM      1  C   LIG    1        0.859  -0.026   0.108  0.00  0.00    +0.138 C 
ATOM      2  N   LIG    1        2.310  -0.011   0.236  0.00  0.00    -0.272 N 
ATOM      3  C   LIG    1        2.959  -1.249   0.147  0.00  0.00    +0.241 C 
ATOM      4  O   LIG    1        2.341  -2.311   0.027  0.00  0.00    -0.273 OA
ATOM      5  C   LIG    1        4.481  -1.235   0.101  0.00  0.00    +0.238 C 
ATOM      6  N   LIG    1        4.995  -0.848   1.411  0.00  0.00    -0.273 NA
ATOM      7  C   LIG    1        4.839   0.376   1.790  0.00  0.00    +0.078 C 
ATOM      8  C   LIG    1        4.229   1.433   0.929  0.00  0.00    +0.028 A 
ATOM      9  C   LIG    1        4.910   2.663   0.846  0.00  0.00    +0.096 A 
ATOM     10  C   LIG    1        4.327   3.735   0.165  0.00  0.00    +0.274 A 
ATOM     11  C   LIG    1        3.079   3.589  -0.442  0.00  0.00    +0.086 A 
ATOM     12  C   LIG    1        2.425   2.353  -0.384  0.00  0.00    +0.031 A 
ATOM     13  C   LIG    1        2.995   1.244   0.273  0.00  0.00    +0.046 A 
ENDROOT
BRANCH   7  14
ATOM     14  C   LIG    1        5.319   0.730   3.165  0.00  0.00    +0.036 A 
ATOM     15  C   LIG    1        4.700   1.713   3.942  0.00  0.00    +0.133 A 
ATOM     16  F   LIG    1        3.630   2.384   3.491  0.00  0.00    -0.205 F 
ATOM     17  C   LIG    1        5.171   2.017   5.219  0.00  0.00    +0.039 A 
ATOM     18  C   LIG    1        6.261   1.323   5.742  0.00  0.00    +0.003 A 
ATOM     19  C   LIG    1        6.872   0.321   4.988  0.00  0.00    +0.001 A 
ATOM     20  C   LIG    1        6.402   0.022   3.706  0.00  0.00    +0.013 A 
ENDBRANCH   7  14
BRANCH  10  21
ATOM     21  N   LIG    1        5.025   5.025   0.098  0.00  0.00    +0.080 N 
ATOM     22  O   LIG    1        6.131   5.108   0.649  0.00  0.00    -0.576 OA
ATOM     23  O   LIG    1        4.467   5.950  -0.508  0.00  0.00    +0.041 OA
ENDBRANCH  10  21
TORSDOF 2
