REMARK  Name = *****
REMARK                            x       y       z     vdW  Elec       q    Type
REMARK                         _______ _______ _______ _____ _____    ______ ____
ROOT
ATOM      1  C   LIG    1        6.014  -0.832   2.480  0.00  0.00    +0.205 C 
ENDROOT
BRANCH   1   2
ATOM      2  C   LIG    1        5.826  -0.255   3.885  0.00  0.00    -0.007 A 
ATOM      3  C   LIG    1        6.511   0.874   4.353  0.00  0.00    +0.007 A 
ATOM      4  C   LIG    1        6.344   1.311   5.676  0.00  0.00    +0.000 A 
ATOM      5  C   LIG    1        5.490   0.633   6.541  0.00  0.00    +0.000 A 
ATOM      6  C   LIG    1        4.799  -0.487   6.092  0.00  0.00    +0.000 A 
ATOM      7  C   LIG    1        4.968  -0.926   4.779  0.00  0.00    +0.007 A 
ENDBRANCH   1   2
BRANCH   1   8
ATOM      8  C   LIG    1        4.702  -0.847   1.666  0.00  0.00    +0.064 C 
BRANCH   8   9
ATOM      9  C   LIG    1        4.146   0.534   1.301  0.00  0.00    +0.084 C 
BRANCH   9  11
ATOM     10  C   LIG    1        2.262   1.605   0.220  0.00  0.00    +0.101 C 
ATOM     11  N   LIG    1        2.866   0.339   0.606  0.00  0.00    -0.319 NA
ATOM     12  H   LIG    1        3.016  -0.229  -0.228  0.00  0.00    +0.122 HD
ENDBRANCH   9  11
ENDBRANCH   8   9
ENDBRANCH   1   8
BRANCH   1  13
ATOM     13  O   LIG    1        7.084  -0.200   1.745  0.00  0.00    -0.484 OA
BRANCH  13  14
ATOM     14  C   LIG    1        7.655  -0.920   0.716  0.00  0.00    +0.124 A 
ATOM     15  C   LIG    1        8.213  -0.192  -0.354  0.00  0.00    -0.009 A 
ATOM     16  C   LIG    1        8.307   1.308  -0.323  0.00  0.00    +0.048 C 
ATOM     17  C   LIG    1        8.746  -0.879  -1.460  0.00  0.00    +0.007 A 
ATOM     18  C   LIG    1        8.754  -2.271  -1.501  0.00  0.00    +0.001 A 
ATOM     19  C   LIG    1        8.270  -2.990  -0.416  0.00  0.00    +0.004 A 
ATOM     20  C   LIG    1        7.733  -2.319   0.686  0.00  0.00    +0.046 A 
ENDBRANCH  13  14
ENDBRANCH   1  13
TORSDOF 6
