REMARK  Name = *****
REMARK                            x       y       z     vdW  Elec       q    Type
REMARK                         _______ _______ _______ _____ _____    ______ ____
ROOT
ATOM      1  C   LIG    1        3.644  -2.091   7.839  0.00  0.00    +0.008 C 
ATOM      2  C   LIG    1        3.943  -3.572   8.070  0.00  0.00    -0.003 C 
ATOM      3  C   LIG    1        2.673  -4.400   8.356  0.00  0.00    +0.067 C 
ATOM      4  C   LIG    1        2.434  -5.266   7.076  0.00  0.00    -0.017 C 
ATOM      5  C   LIG    1        3.874  -5.563   6.610  0.00  0.00    +0.002 C 
ATOM      6  C   LIG    1        4.039  -6.075   5.161  0.00  0.00    +0.036 C 
ATOM      7  C   LIG    1        2.853  -5.783   4.210  0.00  0.00    +0.153 C 
ATOM      8  C   LIG    1        2.202  -4.441   4.580  0.00  0.00    +0.153 C 
ATOM      9  F   LIG    1        1.884  -6.731   4.475  0.00  0.00    -0.238 F 
ATOM     10  C   LIG    1        3.291  -6.023   2.705  0.00  0.00    +0.047 C 
ATOM     11  C   LIG    1        4.292  -7.200   2.662  0.00  0.00    -0.020 C 
ATOM     12  C   LIG    1        5.325  -7.261   1.803  0.00  0.00    +0.054 C 
ATOM     13  C   LIG    1        5.633  -6.131   0.902  0.00  0.00    +0.179 C 
ATOM     14  C   LIG    1        4.939  -4.853   1.180  0.00  0.00    +0.047 C 
ATOM     15  O   LIG    1        6.471  -6.223   0.019  0.00  0.00    -0.288 OA
ATOM     16  C   LIG    1        4.117  -8.230   3.748  0.00  0.00    +0.194 C 
ATOM     17  F   LIG    1        4.996  -9.264   3.611  0.00  0.00    -0.241 F 
ATOM     18  C   LIG    1        2.071  -6.430   1.843  0.00  0.00    +0.023 C 
ATOM     19  C   LIG    1        3.897  -4.801   2.024  0.00  0.00    -0.009 C 
ATOM     20  C   LIG    1        4.352  -7.592   5.125  0.00  0.00    +0.048 C 
ATOM     21  C   LIG    1        1.648  -6.549   7.418  0.00  0.00    +0.012 C 
ATOM     22  C   LIG    1        1.626  -4.456   6.013  0.00  0.00    +0.042 C 
ATOM     23  C   LIG    1        4.606  -4.223   6.845  0.00  0.00    +0.008 C 
ENDROOT
BRANCH   3  24
ATOM     24  C   LIG    1        2.905  -5.223   9.635  0.00  0.00    +0.162 C 
ATOM     25  O   LIG    1        3.789  -6.079   9.723  0.00  0.00    -0.295 OA
BRANCH  24  26
ATOM     26  C   LIG    1        1.965  -4.954  10.805  0.00  0.00    +0.230 C 
BRANCH  26  27
ATOM     27  O   LIG    1        2.255  -5.758  11.936  0.00  0.00    -0.388 OA
ATOM     28  H   LIG    1        2.646  -6.588  11.596  0.00  0.00    +0.210 HD
ENDBRANCH  26  27
ENDBRANCH  24  26
ENDBRANCH   3  24
BRANCH   8  29
ATOM     29  O   LIG    1        1.144  -4.085   3.690  0.00  0.00    -0.389 OA
ATOM     30  H   LIG    1        0.464  -4.783   3.752  0.00  0.00    +0.210 HD
ENDBRANCH   8  29
TORSDOF 4
