REMARK  Name = *****
REMARK                            x       y       z     vdW  Elec       q    Type
REMARK                         _______ _______ _______ _____ _____    ______ ____
ROOT
ATOM      1  C   LIG    1        2.795  -0.006   0.362  0.00  0.00    +0.131 C 
ENDROOT
BRANCH   1   2
ATOM      2  C   LIG    1        3.540   1.229  -0.346  0.00  0.00    +0.094 C 
ATOM      3  N   LIG    1        3.128   1.525  -1.753  0.00  0.00    -0.310 NA
ATOM      4  H   LIG    1        3.895   2.025  -2.203  0.00  0.00    +0.122 HD
ATOM      5  C   LIG    1        1.922   2.341  -1.888  0.00  0.00    +0.081 C 
ATOM      6  C   LIG    1        2.006   3.648  -1.111  0.00  0.00    +0.015 C 
ATOM      7  C   LIG    1        2.318   3.391   0.355  0.00  0.00    +0.003 C 
ATOM      8  C   LIG    1        3.572   2.535   0.484  0.00  0.00    +0.022 C 
ENDBRANCH   1   2
BRANCH   1   9
ATOM      9  C   LIG    1        2.725  -1.284  -0.515  0.00  0.00    -0.010 A 
ATOM     10  C   LIG    1        1.683  -2.214  -0.335  0.00  0.00    +0.007 A 
ATOM     11  C   LIG    1        1.587  -3.361  -1.129  0.00  0.00    +0.000 A 
ATOM     12  C   LIG    1        2.547  -3.615  -2.106  0.00  0.00    +0.000 A 
ATOM     13  C   LIG    1        3.606  -2.734  -2.280  0.00  0.00    +0.000 A 
ATOM     14  C   LIG    1        3.697  -1.583  -1.490  0.00  0.00    +0.007 A 
ENDBRANCH   1   9
BRANCH   1  15
ATOM     15  C   LIG    1        3.450  -0.347   1.719  0.00  0.00    -0.010 A 
ATOM     16  C   LIG    1        2.734  -0.256   2.929  0.00  0.00    +0.007 A 
ATOM     17  C   LIG    1        3.332  -0.584   4.151  0.00  0.00    +0.000 A 
ATOM     18  C   LIG    1        4.654  -1.010   4.192  0.00  0.00    +0.000 A 
ATOM     19  C   LIG    1        5.385  -1.105   3.011  0.00  0.00    +0.000 A 
ATOM     20  C   LIG    1        4.789  -0.777   1.790  0.00  0.00    +0.007 A 
ENDBRANCH   1  15
BRANCH   1  21
ATOM     21  O   LIG    1        1.436   0.415   0.598  0.00  0.00    -0.378 OA
ATOM     22  H   LIG    1        0.992   0.311  -0.259  0.00  0.00    +0.211 HD
ENDBRANCH   1  21
TORSDOF 4
