REMARK  Name = *****
REMARK                            x       y       z     vdW  Elec       q    Type
REMARK                         _______ _______ _______ _____ _____    ______ ____
ROOT
ATOM      1  N   LIG    1        2.545  -0.600  -0.389  0.00  0.00    -0.297 NA
ATOM      2  C   LIG    1        1.239  -1.157   0.033  0.00  0.00    +0.100 C 
ATOM      3  C   LIG    1        0.644  -0.560   1.330  0.00  0.00    +0.100 C 
ATOM      4  N   LIG    1        0.492   0.908   1.300  0.00  0.00    -0.299 NA
ATOM      5  C   LIG    1        1.831   1.465   1.003  0.00  0.00    +0.100 C 
ATOM      6  C   LIG    1        2.519   0.875  -0.257  0.00  0.00    +0.100 C 
ENDROOT
BRANCH   1   7
ATOM      7  C   LIG    1        3.689  -1.235   0.310  0.00  0.00    +0.120 C 
BRANCH   7   8
ATOM      8  C   LIG    1        5.112  -0.991  -0.321  0.00  0.00    +0.162 C 
BRANCH   8   9
ATOM      9  C   LIG    1        6.162  -1.752   0.481  0.00  0.00    -0.018 A 
ATOM     10  C   LIG    1        6.801  -1.142   1.575  0.00  0.00    +0.006 A 
ATOM     11  C   LIG    1        7.819  -1.795   2.263  0.00  0.00    +0.000 A 
ATOM     12  C   LIG    1        8.186  -3.085   1.892  0.00  0.00    +0.000 A 
ATOM     13  C   LIG    1        7.538  -3.717   0.830  0.00  0.00    +0.000 A 
ATOM     14  C   LIG    1        6.533  -3.054   0.122  0.00  0.00    +0.006 A 
ENDBRANCH   8   9
BRANCH   8  15
ATOM     15  O   LIG    1        5.455   0.409  -0.327  0.00  0.00    -0.371 OA
BRANCH  15  17
ATOM     16  C   LIG    1        6.838   2.228  -1.039  0.00  0.00    +0.034 C 
ATOM     17  C   LIG    1        6.619   0.726  -1.090  0.00  0.00    +0.157 C 
ENDBRANCH  15  17
ENDBRANCH   8  15
ENDBRANCH   7   8
ENDBRANCH   1   7
BRANCH   4  18
ATOM     18  C   LIG    1       -0.523   1.395   0.328  0.00  0.00    +0.095 C 
BRANCH  18  19
ATOM     19  C   LIG    1       -1.954   0.844   0.563  0.00  0.00    +0.071 C 
ATOM     20  C   LIG    1       -2.505   1.291   1.917  0.00  0.00    +0.017 C 
BRANCH  19  21
ATOM     21  C   LIG    1       -2.899   1.260  -0.564  0.00  0.00    +0.167 C 
ATOM     22  O   LIG    1       -3.095   2.453  -0.837  0.00  0.00    -0.292 OA
BRANCH  21  23
ATOM     23  C   LIG    1       -3.582   0.214  -1.396  0.00  0.00    +0.018 A 
ATOM     24  C   LIG    1       -3.938  -1.053  -0.911  0.00  0.00    +0.011 A 
ATOM     25  C   LIG    1       -4.588  -1.975  -1.747  0.00  0.00    +0.001 A 
ATOM     26  C   LIG    1       -4.901  -1.637  -3.064  0.00  0.00    +0.000 A 
ATOM     27  C   LIG    1       -4.575  -0.372  -3.547  0.00  0.00    +0.001 A 
ATOM     28  C   LIG    1       -3.933   0.549  -2.716  0.00  0.00    +0.011 A 
ENDBRANCH  21  23
ENDBRANCH  19  21
ENDBRANCH  18  19
ENDBRANCH   4  18
TORSDOF 9
