REMARK  Name = *****
REMARK                            x       y       z     vdW  Elec       q    Type
REMARK                         _______ _______ _______ _____ _____    ______ ____
ROOT
ATOM      1  C   LIG    1       -9.610  -1.139   5.009  0.00  0.00    +0.078 C 
ATOM      2  C   LIG    1      -10.972  -1.673   6.079  0.00  0.00    +0.142 C 
ATOM      3  O   LIG    1      -11.343  -0.999   7.049  0.00  0.00    -0.297 OA
ATOM      4  C   LIG    1      -11.858  -2.886   5.717  0.00  0.00    +0.106 C 
ATOM      5  C   LIG    1      -11.989  -4.069   6.664  0.00  0.00    +0.128 C 
ATOM      6  C   LIG    1      -11.264  -5.393   6.267  0.00  0.00    +0.060 C 
ATOM      7  C   LIG    1      -11.864  -6.560   7.077  0.00  0.00    +0.014 C 
ATOM      8  C   LIG    1      -11.106  -5.789   4.726  0.00  0.00    +0.207 C 
ATOM      9  O   LIG    1      -10.205  -4.864   4.046  0.00  0.00    -0.455 OA
ATOM     10  C   LIG    1       -8.983  -4.618   4.639  0.00  0.00    +0.328 C 
ATOM     11  O   LIG    1       -8.391  -5.463   5.302  0.00  0.00    -0.249 OA
ATOM     12  C   LIG    1       -8.764  -3.022   4.747  0.00  0.00    +0.185 C 
ATOM     13  N   LIG    1       -8.416  -1.782   3.389  0.00  0.00    -0.281 N 
ATOM     14  C   LIG    1       -8.416   0.084   3.647  0.00  0.00    +0.109 C 
ATOM     15  C   LIG    1       -8.533   0.830   5.434  0.00  0.00    +0.019 C 
ATOM     16  C   LIG    1       -8.666  -0.405   6.902  0.00  0.00    +0.004 C 
ATOM     17  C   LIG    1       -7.611  -2.299   2.396  0.00  0.00    +0.288 C 
ATOM     18  O   LIG    1       -7.628  -3.455   2.011  0.00  0.00    -0.267 OA
ATOM     19  C   LIG    1       -6.591  -1.304   1.919  0.00  0.00    +0.276 C 
ATOM     20  O   LIG    1       -6.747  -0.751   0.833  0.00  0.00    -0.281 OA
ATOM     21  C   LIG    1       -5.397  -1.060   2.870  0.00  0.00    +0.240 C 
ATOM     22  C   LIG    1       -5.499   0.275   4.309  0.00  0.00    +0.056 C 
ATOM     23  C   LIG    1       -4.863   1.645   3.881  0.00  0.00    +0.013 C 
ATOM     24  C   LIG    1       -4.894  -0.289   6.106  0.00  0.00    +0.043 C 
ATOM     25  C   LIG    1       -4.371  -2.162   6.381  0.00  0.00    +0.150 C 
ATOM     26  C   LIG    1       -4.014  -3.257   4.771  0.00  0.00    +0.179 C 
ATOM     27  C   LIG    1       -2.524  -3.589   4.436  0.00  0.00    +0.149 C 
ATOM     28  C   LIG    1       -1.621  -2.417   4.692  0.00  0.00    +0.038 C 
ATOM     29  C   LIG    1       -2.413  -1.197   5.127  0.00  0.00    -0.008 C 
ATOM     30  C   LIG    1       -1.647   0.015   4.504  0.00  0.00    +0.008 C 
ATOM     31  C   LIG    1       -4.068  -1.260   4.510  0.00  0.00    +0.033 C 
ATOM     32  C   LIG    1       -6.038  -1.895   4.900  0.00  0.00    -0.076 C 
ATOM     33  C   LIG    1       -6.314  -3.506   5.124  0.00  0.00    +0.038 C 
ATOM     34  O   LIG    1       -4.875  -2.757   3.235  0.00  0.00    -0.334 OA
ATOM     35  C   LIG    1       -8.665  -2.311   6.589  0.00  0.00    +0.034 C 
ATOM     36  C   LIG    1       -7.500  -1.204   5.148  0.00  0.00    -0.017 C 
ENDROOT
BRANCH   8  37
ATOM     37  C   LIG    1      -12.374  -5.883   3.820  0.00  0.00    -0.036 C 
ATOM     38  C   LIG    1      -13.612  -5.492   4.194  0.00  0.00    -0.021 C 
ATOM     39  C   LIG    1      -12.134  -6.414   2.420  0.00  0.00    +0.042 C 
BRANCH  38  40
ATOM     40  C   LIG    1      -14.927  -5.529   3.438  0.00  0.00    +0.014 C 
ATOM     41  C   LIG    1      -16.151  -5.798   4.349  0.00  0.00    +0.040 C 
ATOM     42  C   LIG    1      -16.605  -4.604   5.216  0.00  0.00    +0.136 C 
ATOM     43  C   LIG    1      -16.775  -3.343   4.340  0.00  0.00    +0.109 C 
ATOM     44 CL   LIG    1      -17.189  -1.902   5.324  0.00  0.00    -0.119 Cl
ATOM     45  C   LIG    1      -15.537  -3.046   3.496  0.00  0.00    +0.022 C 
ATOM     46  C   LIG    1      -15.162  -4.247   2.627  0.00  0.00    +0.009 C 
BRANCH  42  47
ATOM     47  O   LIG    1      -15.687  -4.343   6.287  0.00  0.00    -0.378 OA
ATOM     48  C   LIG    1      -15.621  -5.385   7.255  0.00  0.00    +0.194 C 
ENDBRANCH  42  47
ENDBRANCH  38  40
ENDBRANCH   8  37
BRANCH   1  50
ATOM     49  C   LIG    1      -12.181  -0.966   3.516  0.00  0.00    +0.005 C 
ATOM     50  C   LIG    1      -10.684  -1.299   3.466  0.00  0.00    +0.011 C 
ENDBRANCH   1  50
BRANCH   5  51
ATOM     51  O   LIG    1      -11.648  -3.708   8.001  0.00  0.00    -0.391 OA
ATOM     52  H   LIG    1      -12.096  -2.858   8.195  0.00  0.00    +0.210 HD
ENDBRANCH   5  51
BRANCH  27  53
ATOM     53  O   LIG    1       -2.418  -4.086   3.093  0.00  0.00    -0.377 OA
ATOM     54  C   LIG    1       -1.124  -4.571   2.752  0.00  0.00    +0.194 C 
ENDBRANCH  27  53
BRANCH  25  55
ATOM     55  O   LIG    1       -3.389  -2.288   7.430  0.00  0.00    -0.377 OA
ATOM     56  C   LIG    1       -3.058  -3.633   7.747  0.00  0.00    +0.194 C 
ENDBRANCH  25  55
BRANCH  21  57
ATOM     57  O   LIG    1       -4.392  -0.499   1.946  0.00  0.00    -0.358 OA
ATOM     58  H   LIG    1       -4.648  -0.778   1.046  0.00  0.00    +0.213 HD
ENDBRANCH  21  57
TORSDOF 8
