REMARK  Name = *****
REMARK                            x       y       z     vdW  Elec       q    Type
REMARK                         _______ _______ _______ _____ _____    ______ ____
ROOT
ATOM      1  N   LIG    1        2.645   2.017  -1.181  0.00  0.00    -0.250 N 
ATOM      2  H   LIG    1        3.167   2.881  -1.304  0.00  0.00    +0.169 HD
ATOM      3  C   LIG    1        3.283   0.829  -0.844  0.00  0.00    +0.258 C 
ATOM      4  O   LIG    1        2.681  -0.174  -0.470  0.00  0.00    -0.269 OA
ENDROOT
BRANCH   3   5
ATOM      5  C   LIG    1        4.767   0.831  -0.920  0.00  0.00    +0.041 A 
ATOM      6  C   LIG    1        5.462   1.649  -1.811  0.00  0.00    +0.033 A 
ATOM      7  C   LIG    1        6.843   1.571  -1.816  0.00  0.00    +0.111 A 
ATOM      8  N   LIG    1        7.551   0.749  -1.011  0.00  0.00    -0.263 NA
ATOM      9  C   LIG    1        6.851  -0.045  -0.173  0.00  0.00    +0.111 A 
ATOM     10  C   LIG    1        5.471  -0.045  -0.093  0.00  0.00    +0.033 A 
ENDBRANCH   3   5
BRANCH   1  11
ATOM     11  N   LIG    1        1.240   2.097  -1.076  0.00  0.00    -0.254 NA
ATOM     12  H   LIG    1        0.849   1.469  -1.787  0.00  0.00    +0.141 HD
ATOM     13  H   LIG    1        0.979   1.631  -0.197  0.00  0.00    +0.141 HD
ENDBRANCH   1  11
TORSDOF 2
