REMARK  Name = *****
REMARK                            x       y       z     vdW  Elec       q    Type
REMARK                         _______ _______ _______ _____ _____    ______ ____
ROOT
ATOM      1  C   LIG    1        9.075  -0.876   0.123  0.00  0.00    +0.133 C 
ATOM      2  C   LIG    1        8.509  -2.251  -0.393  0.00  0.00    +0.012 C 
ATOM      3  C   LIG    1        8.266  -2.276  -1.930  0.00  0.00    +0.011 C 
ATOM      4  C   LIG    1        9.545  -2.789  -2.697  0.00  0.00    +0.089 C 
ATOM      5  N   LIG    1       10.080  -4.071  -2.164  0.00  0.00    -0.293 NA
ATOM      6  C   LIG    1        9.232  -4.585  -1.077  0.00  0.00    +0.104 C 
ATOM      7  C   LIG    1        9.433  -6.030  -0.768  0.00  0.00    +0.038 C 
ATOM      8  C   LIG    1        9.987  -6.941  -1.645  0.00  0.00    -0.016 C 
ATOM      9  C   LIG    1        9.299  -8.180  -1.438  0.00  0.00    +0.003 C 
ATOM     10  C   LIG    1        8.469  -8.009  -0.323  0.00  0.00    +0.051 C 
ATOM     11  C   LIG    1        7.554  -8.995   0.107  0.00  0.00    +0.072 C 
ATOM     12  C   LIG    1        7.446 -10.177  -0.644  0.00  0.00    +0.122 C 
ATOM     13  C   LIG    1        8.300 -10.386  -1.724  0.00  0.00    +0.046 C 
ATOM     14  C   LIG    1        9.225  -9.407  -2.127  0.00  0.00    +0.014 C 
ATOM     15  C   LIG    1       10.903  -6.460  -2.717  0.00  0.00    +0.053 C 
ATOM     16  N   LIG    1        8.720  -6.739   0.167  0.00  0.00    -0.356 NA
ATOM     17  H   LIG    1        8.253  -6.335   0.967  0.00  0.00    +0.166 HD
ATOM     18  C   LIG    1       10.494  -5.036  -3.205  0.00  0.00    +0.090 C 
ATOM     19  C   LIG    1        7.492  -1.052  -2.471  0.00  0.00    +0.052 C 
ATOM     20  C   LIG    1        7.143   0.001  -1.411  0.00  0.00    +0.206 C 
ATOM     21  C   LIG    1        9.314  -3.530   0.039  0.00  0.00    +0.030 C 
ATOM     22  C   LIG    1        8.378   0.361  -0.562  0.00  0.00    +0.172 C 
ENDROOT
BRANCH   1  23
ATOM     23  C   LIG    1        8.907  -0.763   1.646  0.00  0.00    +0.313 C 
ATOM     24  O   LIG    1        8.750  -1.710   2.405  0.00  0.00    -0.250 OA
BRANCH  23  26
ATOM     25  C   LIG    1        8.223   0.802   3.264  0.00  0.00    +0.280 C 
ATOM     26  O   LIG    1        8.943   0.535   2.060  0.00  0.00    -0.468 OA
ENDBRANCH  23  26
ENDBRANCH   1  23
BRANCH  12  27
ATOM     27  O   LIG    1        6.489 -11.081  -0.240  0.00  0.00    -0.495 OA
ATOM     28  C   LIG    1        6.013 -11.968  -1.258  0.00  0.00    +0.277 C 
ENDBRANCH  12  27
BRANCH  22  29
ATOM     29  O   LIG    1        9.320   1.234  -1.220  0.00  0.00    -0.375 OA
ATOM     30  C   LIG    1        9.996   0.727  -2.353  0.00  0.00    +0.194 C 
ENDBRANCH  22  29
BRANCH  20  31
ATOM     31  O   LIG    1        6.091  -0.553  -0.542  0.00  0.00    -0.456 OA
BRANCH  31  32
ATOM     32  C   LIG    1        5.272   0.240   0.167  0.00  0.00    +0.332 C 
ATOM     33  O   LIG    1        5.253   1.495   0.173  0.00  0.00    -0.246 OA
BRANCH  32  34
ATOM     34  C   LIG    1        4.442  -0.668   1.007  0.00  0.00    +0.092 C 
ATOM     35  C   LIG    1        3.273  -0.444   1.666  0.00  0.00    +0.015 C 
BRANCH  35  36
ATOM     36  C   LIG    1        2.456   0.766   1.739  0.00  0.00    -0.018 A 
ATOM     37  C   LIG    1        1.440   1.037   0.822  0.00  0.00    +0.057 A 
ATOM     38  C   LIG    1        0.625   2.182   0.953  0.00  0.00    +0.166 A 
ATOM     39  C   LIG    1        0.805   3.066   2.040  0.00  0.00    +0.203 A 
ATOM     40  C   LIG    1        1.755   2.718   3.018  0.00  0.00    +0.166 A 
ATOM     41  C   LIG    1        2.591   1.604   2.844  0.00  0.00    +0.057 A 
BRANCH  38  42
ATOM     42  O   LIG    1       -0.321   2.267  -0.042  0.00  0.00    -0.491 OA
ATOM     43  C   LIG    1       -0.834   3.559  -0.337  0.00  0.00    +0.277 C 
ENDBRANCH  38  42
BRANCH  39  44
ATOM     44  O   LIG    1       -0.033   4.152   2.155  0.00  0.00    -0.488 OA
ATOM     45  C   LIG    1        0.519   5.354   2.702  0.00  0.00    +0.277 C 
ENDBRANCH  39  44
BRANCH  40  46
ATOM     46  O   LIG    1        1.848   3.488   4.148  0.00  0.00    -0.491 OA
ATOM     47  C   LIG    1        2.050   2.768   5.357  0.00  0.00    +0.277 C 
ENDBRANCH  40  46
ENDBRANCH  35  36
ENDBRANCH  32  34
ENDBRANCH  31  32
ENDBRANCH  20  31
TORSDOF 11
