REMARK  Name = *****
REMARK                            x       y       z     vdW  Elec       q    Type
REMARK                         _______ _______ _______ _____ _____    ______ ____
ROOT
ATOM      1  C   LIG    1       -1.868   0.262   6.915  0.00  0.00    +0.014 C 
ATOM      2  C   LIG    1       -2.581   1.522   7.430  0.00  0.00    +0.000 C 
ATOM      3  C   LIG    1       -2.407   1.712   8.980  0.00  0.00    +0.072 C 
ATOM      4  C   LIG    1       -3.534   2.706   9.312  0.00  0.00    +0.035 C 
ATOM      5  C   LIG    1       -4.660   2.422   8.321  0.00  0.00    +0.007 C 
ATOM      6  C   LIG    1       -4.110   1.388   7.316  0.00  0.00    +0.005 C 
ATOM      7  C   LIG    1       -4.726   1.530   5.910  0.00  0.00    +0.019 C 
ATOM      8  C   LIG    1       -5.034   0.194   5.303  0.00  0.00    -0.023 C 
ATOM      9  C   LIG    1       -4.917  -0.103   4.009  0.00  0.00    +0.000 C 
ATOM     10  C   LIG    1       -4.414   0.820   3.013  0.00  0.00    -0.038 C 
ATOM     11  C   LIG    1       -3.599   2.019   3.507  0.00  0.00    -0.003 C 
ATOM     12  C   LIG    1       -3.868   3.227   2.549  0.00  0.00    +0.016 C 
ATOM     13  C   LIG    1       -2.089   1.628   3.337  0.00  0.00    +0.019 C 
ATOM     14  C   LIG    1       -1.826   0.175   2.892  0.00  0.00    +0.080 C 
ATOM     15  C   LIG    1       -2.771  -0.268   1.788  0.00  0.00    +0.156 C 
ATOM     16  O   LIG    1       -2.446  -1.070   0.918  0.00  0.00    -0.293 OA
ATOM     17  C   LIG    1       -4.166   0.311   1.788  0.00  0.00    +0.050 C 
ATOM     18  C   LIG    1       -4.022   2.528   4.954  0.00  0.00    +0.006 C 
ATOM     19  C   LIG    1       -2.997   3.426   5.668  0.00  0.00    +0.005 C 
ATOM     20  C   LIG    1       -2.038   2.756   6.652  0.00  0.00    +0.010 C 
ENDROOT
BRANCH   3  21
ATOM     21  O   LIG    1       -1.163   2.330   9.274  0.00  0.00    -0.388 OA
ATOM     22  H   LIG    1       -0.444   1.764   8.934  0.00  0.00    +0.210 HD
ENDBRANCH   3  21
BRANCH   3  23
ATOM     23  C   LIG    1       -2.505   0.420   9.832  0.00  0.00    +0.046 C 
BRANCH  23  24
ATOM     24  C   LIG    1       -2.388   0.616  11.349  0.00  0.00    +0.123 C 
BRANCH  24  25
ATOM     25  C   LIG    1       -1.073   1.170  11.823  0.00  0.00    +0.305 C 
ATOM     26  O   LIG    1       -0.115   0.459  12.105  0.00  0.00    -0.251 OA
BRANCH  25  27
ATOM     27  O   LIG    1       -1.033   2.508  11.932  0.00  0.00    -0.481 OA
ATOM     28  H   LIG    1       -1.763   2.945  11.440  0.00  0.00    +0.295 HD
ENDBRANCH  25  27
ENDBRANCH  24  25
ENDBRANCH  23  24
ENDBRANCH   3  23
TORSDOF 5
