REMARK  Name = *****
REMARK                            x       y       z     vdW  Elec       q    Type
REMARK                         _______ _______ _______ _____ _____    ______ ____
ROOT
ATOM      1  CA  LYS A  1        2.574   1.302  -0.469  0.00  0.00    +0.147 A 
ATOM      2  N   LYS A  1        2.845   0.841  -1.728  0.00  0.00    -0.248 NA
ATOM      3  CE  LYS A  1        3.468   1.712  -2.552  0.00  0.00    +0.112 A 
ATOM      4  CD  LYS A  1        3.827   3.002  -2.185  0.00  0.00    +0.020 A 
ATOM      5  CG  LYS A  1        3.534   3.436  -0.894  0.00  0.00    +0.004 A 
ATOM      6  CB  LYS A  1        2.893   2.572  -0.012  0.00  0.00    +0.035 A 
ENDROOT
BRANCH   1   8
ATOM      7  O   LYS A  1        1.560   0.544   1.580  0.00  0.00    -0.243 OA
ATOM      8  C   LYS A  1        1.886   0.329   0.427  0.00  0.00    +0.355 C 
BRANCH   8   9
ATOM      9  OXT LYS A  1        1.673  -0.840  -0.228  0.00  0.00    -0.476 OA
ATOM     10  HXT LYS A  1        2.031  -0.751  -1.144  0.00  0.00    +0.295 HD
ENDBRANCH   8   9
ENDBRANCH   1   8
TORSDOF 2
