REMARK  Name = *****
REMARK                            x       y       z     vdW  Elec       q    Type
REMARK                         _______ _______ _______ _____ _____    ______ ____
ROOT
ATOM      1  C   LIG    1        6.815  -1.939   0.009  0.00  0.00    +0.044 C 
ATOM      2  C   LIG    1        5.696  -1.025   0.407  0.00  0.00    -0.043 C 
ATOM      3  C   LIG    1        5.741   0.340  -0.098  0.00  0.00    +0.028 C 
ATOM      4  C   LIG    1        4.784   1.238   0.212  0.00  0.00    +0.065 C 
ATOM      5  N   LIG    1        3.751   0.804   1.022  0.00  0.00    -0.151 N 
ATOM      6  C   LIG    1        3.608  -0.461   1.551  0.00  0.00    +0.284 C 
ATOM      7  O   LIG    1        2.669  -0.797   2.269  0.00  0.00    -0.265 OA
ATOM      8  C   LIG    1        4.683  -1.420   1.196  0.00  0.00    +0.076 C 
ENDROOT
BRANCH   4   9
ATOM      9  C   LIG    1        4.761   2.682  -0.286  0.00  0.00    +0.039 C 
ATOM     10  C   LIG    1        5.511   2.922  -1.614  0.00  0.00    +0.010 C 
ATOM     11  C   LIG    1        5.405   4.380  -2.058  0.00  0.00    +0.001 C 
ATOM     12  C   LIG    1        5.922   5.328  -0.981  0.00  0.00    +0.000 C 
ATOM     13  C   LIG    1        5.221   5.097   0.354  0.00  0.00    +0.001 C 
ATOM     14  C   LIG    1        5.301   3.636   0.796  0.00  0.00    +0.010 C 
ENDBRANCH   4   9
BRANCH   5  15
ATOM     15  O   LIG    1        2.741   1.736   1.347  0.00  0.00    -0.423 OA
ATOM     16  H   LIG    1        2.153   1.193   1.912  0.00  0.00    +0.326 HD
ENDBRANCH   5  15
TORSDOF 2
