REMARK  Name = *****
REMARK                            x       y       z     vdW  Elec       q    Type
REMARK                         _______ _______ _______ _____ _____    ______ ____
ROOT
ATOM      1  C   LIG    1        6.669  -2.889  -3.556  0.00  0.00    +0.152 C 
ENDROOT
BRANCH   1   2
ATOM      2  C   LIG    1        8.067  -3.365  -4.166  0.00  0.00    +0.034 C 
BRANCH   2   3
ATOM      3  C   LIG    1        9.136  -2.403  -4.816  0.00  0.00    +0.006 C 
BRANCH   3   4
ATOM      4  C   LIG    1        9.783  -1.291  -3.893  0.00  0.00    -0.011 C 
BRANCH   4   5
ATOM      5  C   LIG    1        8.838  -0.265  -3.285  0.00  0.00    -0.000 C 
ATOM      6  C   LIG    1        9.157   0.832  -2.298  0.00  0.00    +0.004 C 
ENDBRANCH   4   5
BRANCH   4   7
ATOM      7  C   LIG    1       11.032  -0.638  -4.528  0.00  0.00    +0.003 C 
BRANCH   7   8
ATOM      8  C   LIG    1       11.074   0.071  -5.907  0.00  0.00    -0.000 C 
BRANCH   8  10
ATOM      9  C   LIG    1        8.949   1.470  -6.180  0.00  0.00    +0.004 C 
ATOM     10  C   LIG    1       10.448   1.473  -6.141  0.00  0.00    -0.003 C 
ENDBRANCH   8  10
ENDBRANCH   7   8
ENDBRANCH   4   7
ENDBRANCH   3   4
ENDBRANCH   2   3
ENDBRANCH   1   2
BRANCH   1  11
ATOM     11  C   LIG    1        5.766  -4.026  -2.803  0.00  0.00    +0.037 C 
BRANCH  11  12
ATOM     12  C   LIG    1        5.050  -5.181  -3.626  0.00  0.00    -0.015 C 
ATOM     13  C   LIG    1        4.035  -6.201  -2.986  0.00  0.00    +0.007 C 
ATOM     14  C   LIG    1        6.110  -6.081  -4.256  0.00  0.00    +0.007 C 
ENDBRANCH  11  12
ENDBRANCH   1  11
BRANCH   1  15
ATOM     15  O   LIG    1        5.796  -2.099  -4.428  0.00  0.00    -0.212 OA
BRANCH  15  16
ATOM     16  S   LIG    1        6.233  -0.574  -4.811  0.00  0.00    +0.208 S 
ATOM     17  O   LIG    1        7.388  -0.773  -5.744  0.00  0.00    -0.118 OA
ATOM     18  O   LIG    1        6.231   0.289  -3.679  0.00  0.00    -0.118 OA
BRANCH  16  19
ATOM     19  O   LIG    1        5.328   0.116  -5.925  0.00  0.00    -0.231 OA
ATOM     20  H   LIG    1        6.036   0.349  -6.586  0.00  0.00    +0.247 HD
ENDBRANCH  16  19
ENDBRANCH  15  16
ENDBRANCH   1  15
TORSDOF 12
