REMARK  Name = *****
REMARK                            x       y       z     vdW  Elec       q    Type
REMARK                         _______ _______ _______ _____ _____    ______ ____
ROOT
ATOM      1  C   LIG    1        1.154  -0.124   0.247  0.00  0.00    -0.032 C 
ATOM      2  C   LIG    1        0.147  -1.090   0.716  0.00  0.00    -0.018 A 
ATOM      3  C   LIG    1       -1.129  -0.596   0.413  0.00  0.00    -0.036 A 
ATOM      4  C   LIG    1       -2.279  -1.312   0.705  0.00  0.00    +0.004 A 
ATOM      5  C   LIG    1       -2.141  -2.558   1.315  0.00  0.00    +0.000 A 
ATOM      6  C   LIG    1       -0.868  -3.058   1.630  0.00  0.00    +0.001 A 
ATOM      7  C   LIG    1       -1.020   0.734  -0.248  0.00  0.00    +0.067 C 
ATOM      8  C   LIG    1        0.283  -2.321   1.334  0.00  0.00    +0.008 A 
ATOM      9  C   LIG    1        0.481   0.911  -0.294  0.00  0.00    -0.060 C 
ENDROOT
BRANCH   1  11
ATOM     10  C   LIG    1        3.141  -0.212   1.786  0.00  0.00    +0.019 C 
ATOM     11  C   LIG    1        2.657  -0.338   0.331  0.00  0.00    +0.065 C 
BRANCH  11  12
ATOM     12  C   LIG    1        3.162  -1.621  -0.336  0.00  0.00    +0.048 A 
ATOM     13  N   LIG    1        4.289  -2.186   0.171  0.00  0.00    -0.259 NA
ATOM     14  C   LIG    1        4.743  -3.326  -0.395  0.00  0.00    +0.111 A 
ATOM     15  C   LIG    1        4.128  -3.951  -1.463  0.00  0.00    +0.020 A 
ATOM     16  C   LIG    1        2.997  -3.354  -2.002  0.00  0.00    +0.003 A 
ATOM     17  C   LIG    1        2.520  -2.167  -1.452  0.00  0.00    +0.024 A 
ENDBRANCH  11  12
ENDBRANCH   1  11
BRANCH   9  18
ATOM     18  C   LIG    1        1.034   2.185  -0.872  0.00  0.00    +0.047 C 
BRANCH  18  19
ATOM     19  C   LIG    1        1.248   2.124  -2.397  0.00  0.00    +0.088 C 
BRANCH  19  20
ATOM     20  N   LIG    1        1.777   3.388  -2.952  0.00  0.00    -0.308 NA
ATOM     21  C   LIG    1        1.858   3.319  -4.415  0.00  0.00    +0.104 C 
ATOM     22  C   LIG    1        3.104   3.697  -2.412  0.00  0.00    +0.104 C 
ENDBRANCH  19  20
ENDBRANCH  18  19
ENDBRANCH   9  18
TORSDOF 5
