REMARK  Name = *****
REMARK                            x       y       z     vdW  Elec       q    Type
REMARK                         _______ _______ _______ _____ _____    ______ ____
ROOT
ATOM      1  C   LIG    1        4.101   1.583  -2.015  0.00  0.00    +0.342 C 
ATOM      2  O   LIG    1        3.457   2.398  -2.661  0.00  0.00    -0.245 OA
ENDROOT
BRANCH   1   3
ATOM      3  C   LIG    1        5.554   1.635  -1.892  0.00  0.00    +0.084 C 
ATOM      4  C   LIG    1        6.440   2.632  -2.429  0.00  0.00    +0.014 C 
ATOM      5  C   LIG    1        7.739   2.292  -2.045  0.00  0.00    +0.047 C 
ATOM      6  C   LIG    1        8.859   3.062  -2.387  0.00  0.00    +0.026 C 
ATOM      7  C   LIG    1        8.648   4.219  -3.142  0.00  0.00    +0.002 C 
ATOM      8  C   LIG    1        7.368   4.587  -3.544  0.00  0.00    +0.001 C 
ATOM      9  N   LIG    1        7.654   1.130  -1.315  0.00  0.00    -0.360 NA
ATOM     10  H   LIG    1        8.448   0.652  -0.909  0.00  0.00    +0.165 HD
ATOM     11  C   LIG    1        6.260   3.804  -3.197  0.00  0.00    +0.011 C 
ATOM     12  C   LIG    1        6.351   0.729  -1.213  0.00  0.00    +0.098 C 
ENDBRANCH   1   3
BRANCH   1  13
ATOM     13  O   LIG    1        3.537   0.552  -1.301  0.00  0.00    -0.458 OA
BRANCH  13  18
ATOM     14  C   LIG    1       -1.001  -0.112   0.190  0.00  0.00    +0.105 C 
ATOM     15  N   LIG    1        0.269  -0.278   0.866  0.00  0.00    -0.299 NA
ATOM     16  C   LIG    1        1.098   0.920   1.002  0.00  0.00    +0.060 C 
ATOM     17  C   LIG    1        1.501   1.518  -0.355  0.00  0.00    +0.063 C 
ATOM     18  C   LIG    1        2.092   0.501  -1.347  0.00  0.00    +0.180 C 
ATOM     19  C   LIG    1        1.626  -0.948  -1.126  0.00  0.00    +0.063 C 
ATOM     20  C   LIG    1        2.297   0.326   1.750  0.00  0.00    +0.020 C 
ATOM     21  C   LIG    1        2.338  -1.141   1.310  0.00  0.00    +0.020 C 
ATOM     22  C   LIG    1        1.187  -1.273   0.311  0.00  0.00    +0.060 C 
ENDBRANCH  13  18
ENDBRANCH   1  13
TORSDOF 3
