REMARK  Name = *****
REMARK                            x       y       z     vdW  Elec       q    Type
REMARK                         _______ _______ _______ _____ _____    ______ ____
ROOT
ATOM      1  C   LIG    1        2.732   1.292  -0.405  0.00  0.00    -0.033 A 
ATOM      2  C   LIG    1        2.877   1.266  -1.803  0.00  0.00    +0.016 A 
ATOM      3  C   LIG    1        3.129   2.435  -2.533  0.00  0.00    +0.022 A 
ATOM      4  C   LIG    1        3.261   3.649  -1.849  0.00  0.00    +0.012 A 
ATOM      5  C   LIG    1        3.131   3.688  -0.457  0.00  0.00    +0.001 A 
ATOM      6  C   LIG    1        2.865   2.519   0.261  0.00  0.00    +0.004 A 
ENDROOT
BRANCH   1   8
ATOM      7  C   LIG    1        0.851  -0.147   0.407  0.00  0.00    +0.024 C 
ATOM      8  C   LIG    1        2.377   0.027   0.366  0.00  0.00    +0.124 C 
BRANCH   8   9
ATOM      9  C   LIG    1        3.062  -1.226  -0.172  0.00  0.00    +0.312 C 
ATOM     10  O   LIG    1        2.471  -2.241  -0.534  0.00  0.00    -0.250 OA
BRANCH   9  11
ATOM     11  O   LIG    1        4.412  -1.151  -0.217  0.00  0.00    -0.480 OA
ATOM     12  H   LIG    1        4.786  -0.296   0.076  0.00  0.00    +0.295 HD
ENDBRANCH   9  11
ENDBRANCH   8   9
ENDBRANCH   1   8
BRANCH   3  13
ATOM     13  C   LIG    1        3.311   2.399  -4.016  0.00  0.00    +0.193 C 
ATOM     14  O   LIG    1        4.041   3.236  -4.543  0.00  0.00    -0.287 OA
BRANCH  13  15
ATOM     15  C   LIG    1        2.654   1.365  -4.872  0.00  0.00    +0.022 A 
ATOM     16  C   LIG    1        1.410   0.812  -4.537  0.00  0.00    +0.012 A 
ATOM     17  C   LIG    1        0.833  -0.172  -5.342  0.00  0.00    +0.001 A 
ATOM     18  C   LIG    1        1.465  -0.573  -6.517  0.00  0.00    +0.000 A 
ATOM     19  C   LIG    1        2.682   0.001  -6.882  0.00  0.00    +0.001 A 
ATOM     20  C   LIG    1        3.281   0.962  -6.059  0.00  0.00    +0.012 A 
ENDBRANCH  13  15
ENDBRANCH   3  13
TORSDOF 5
