REMARK  Name = *****
REMARK                            x       y       z     vdW  Elec       q    Type
REMARK                         _______ _______ _______ _____ _____    ______ ____
ROOT
ATOM      1  C   LIG    1        6.687  -1.156  -5.342  0.00  0.00    +0.076 C 
ENDROOT
BRANCH   1   2
ATOM      2  C   LIG    1        6.374  -2.374  -4.363  0.00  0.00    +0.104 C 
BRANCH   2   3
ATOM      3  N   LIG    1        6.396  -2.166  -2.939  0.00  0.00    -0.290 NA
BRANCH   3   4
ATOM      4  C   LIG    1        6.358  -3.468  -2.097  0.00  0.00    +0.100 C 
BRANCH   4   5
ATOM      5  C   LIG    1        6.201  -3.678  -0.438  0.00  0.00    +0.101 C 
BRANCH   5   6
ATOM      6  N   LIG    1        7.205  -3.264   0.609  0.00  0.00    -0.281 NA
BRANCH   6   7
ATOM      7  C   LIG    1        7.690  -1.836   0.733  0.00  0.00    +0.206 C 
BRANCH   7   8
ATOM      8  C   LIG    1        6.698  -0.594   1.333  0.00  0.00    +0.319 C 
ATOM      9  O   LIG    1        5.800   0.131   0.895  0.00  0.00    -0.250 OA
BRANCH   8  10
ATOM     10  O   LIG    1        6.783  -0.456   2.666  0.00  0.00    -0.480 OA
ATOM     11  H   LIG    1        5.805  -0.253   2.739  0.00  0.00    +0.295 HD
ENDBRANCH   8  10
ENDBRANCH   7   8
ENDBRANCH   6   7
BRANCH   6  12
ATOM     12  C   LIG    1        6.943  -3.743   1.998  0.00  0.00    +0.206 C 
BRANCH  12  13
ATOM     13  C   LIG    1        5.780  -2.986   2.647  0.00  0.00    +0.319 C 
ATOM     14  O   LIG    1        4.967  -2.253   2.111  0.00  0.00    -0.250 OA
BRANCH  13  15
ATOM     15  O   LIG    1        5.767  -3.059   3.991  0.00  0.00    -0.480 OA
ATOM     16  H   LIG    1        5.140  -2.343   4.238  0.00  0.00    +0.295 HD
ENDBRANCH  13  15
ENDBRANCH  12  13
ENDBRANCH   6  12
ENDBRANCH   5   6
ENDBRANCH   4   5
ENDBRANCH   3   4
BRANCH   3  17
ATOM     17  C   LIG    1        7.339  -1.081  -2.595  0.00  0.00    +0.205 C 
BRANCH  17  18
ATOM     18  C   LIG    1        6.764  -0.366  -1.533  0.00  0.00    +0.319 C 
ATOM     19  O   LIG    1        5.787  -1.004  -0.903  0.00  0.00    -0.250 OA
BRANCH  18  20
ATOM     20  O   LIG    1        6.978   0.906  -1.363  0.00  0.00    -0.480 OA
ATOM     21  H   LIG    1        6.208   1.216  -0.764  0.00  0.00    +0.295 HD
ENDBRANCH  18  20
ENDBRANCH  17  18
ENDBRANCH   3  17
ENDBRANCH   2   3
ENDBRANCH   1   2
BRANCH   1  22
ATOM     22  N   LIG    1        7.309  -1.677  -6.628  0.00  0.00    -0.278 NA
BRANCH  22  23
ATOM     23  C   LIG    1        8.618  -2.384  -6.434  0.00  0.00    +0.206 C 
BRANCH  23  24
ATOM     24  C   LIG    1        8.534  -3.831  -5.958  0.00  0.00    +0.319 C 
ATOM     25  O   LIG    1        8.121  -4.756  -6.642  0.00  0.00    -0.250 OA
BRANCH  24  26
ATOM     26  O   LIG    1        8.957  -4.026  -4.678  0.00  0.00    -0.480 OA
ATOM     27  H   LIG    1        9.017  -3.214  -4.133  0.00  0.00    +0.295 HD
ENDBRANCH  24  26
ENDBRANCH  23  24
ENDBRANCH  22  23
BRANCH  22  28
ATOM     28  C   LIG    1        7.648  -0.474  -7.405  0.00  0.00    +0.206 C 
BRANCH  28  29
ATOM     29  C   LIG    1        8.162  -0.578  -8.805  0.00  0.00    +0.319 C 
ATOM     30  O   LIG    1        9.228  -0.100  -9.167  0.00  0.00    -0.250 OA
BRANCH  29  31
ATOM     31  O   LIG    1        7.238  -1.094  -9.643  0.00  0.00    -0.480 OA
ATOM     32  H   LIG    1        6.411  -1.310  -9.158  0.00  0.00    +0.295 HD
ENDBRANCH  29  31
ENDBRANCH  28  29
ENDBRANCH  22  28
ENDBRANCH   1  22
BRANCH   1  33
ATOM     33  C   LIG    1        5.405  -0.203  -5.421  0.00  0.00    +0.055 C 
BRANCH  33  37
ATOM     34  C   LIG    1        4.712   3.435  -7.906  0.00  0.00    +0.120 A 
ATOM     35  C   LIG    1        5.993   2.954  -7.764  0.00  0.00    +0.046 A 
ATOM     36  C   LIG    1        6.276   1.936  -6.811  0.00  0.00    +0.007 A 
ATOM     37  C   LIG    1        5.305   1.204  -6.094  0.00  0.00    -0.046 A 
ATOM     38  C   LIG    1        4.029   1.749  -6.184  0.00  0.00    +0.007 A 
ATOM     39  C   LIG    1        3.735   2.792  -7.113  0.00  0.00    +0.046 A 
BRANCH  34  40
ATOM     40  O   LIG    1        4.325   4.416  -8.799  0.00  0.00    -0.492 OA
BRANCH  40  42
ATOM     41  C   LIG    1        4.642   6.443 -10.223  0.00  0.00    +0.048 C 
ATOM     42  C   LIG    1        5.234   5.501  -9.145  0.00  0.00    +0.226 C 
ENDBRANCH  40  42
ENDBRANCH  34  40
ENDBRANCH  33  37
ENDBRANCH   1  33
TORSDOF 25
