REMARK  Name = *****
REMARK                            x       y       z     vdW  Elec       q    Type
REMARK                         _______ _______ _______ _____ _____    ______ ____
ROOT
ATOM      1  C   LIG    1       -2.511   4.941  16.489  0.00  0.00    +0.025 C 
ATOM      2  C   LIG    1       -3.716   4.366  15.728  0.00  0.00    +0.042 C 
ATOM      3  C   LIG    1       -3.830   2.851  16.003  0.00  0.00    +0.201 C 
ATOM      4  N   LIG    1       -4.771   2.666  17.091  0.00  0.00    -0.271 N 
ATOM      5  C   LIG    1       -5.876   3.626  17.196  0.00  0.00    +0.165 C 
ATOM      6  C   LIG    1       -5.737   3.507  18.729  0.00  0.00    +0.190 C 
ATOM      7  C   LIG    1       -4.407   2.781  18.398  0.00  0.00    +0.240 C 
ATOM      8  O   LIG    1       -3.357   2.524  18.937  0.00  0.00    -0.273 OA
ATOM      9  S   LIG    1       -5.251   5.165  16.405  0.00  0.00    -0.127 S 
ATOM     10  C   LIG    1       -3.590   4.764  14.253  0.00  0.00    +0.025 C 
ENDROOT
BRANCH   6  11
ATOM     11  N   LIG    1       -5.652   4.770  19.497  0.00  0.00    -0.300 N 
ATOM     12  H   LIG    1       -5.173   5.586  19.121  0.00  0.00    +0.150 HD
ATOM     13  C   LIG    1       -6.069   4.814  20.814  0.00  0.00    +0.235 C 
ATOM     14  O   LIG    1       -6.554   3.827  21.362  0.00  0.00    -0.274 OA
BRANCH  13  15
ATOM     15  C   LIG    1       -5.891   6.194  21.494  0.00  0.00    +0.168 C 
BRANCH  15  16
ATOM     16  C   LIG    1       -6.409   6.235  22.922  0.00  0.00    -0.022 A 
ATOM     17  C   LIG    1       -5.851   5.436  23.935  0.00  0.00    +0.006 A 
ATOM     18  C   LIG    1       -6.366   5.462  25.233  0.00  0.00    +0.000 A 
ATOM     19  C   LIG    1       -7.440   6.293  25.542  0.00  0.00    +0.000 A 
ATOM     20  C   LIG    1       -7.997   7.102  24.555  0.00  0.00    +0.000 A 
ATOM     21  C   LIG    1       -7.487   7.074  23.254  0.00  0.00    +0.006 A 
ENDBRANCH  15  16
BRANCH  15  22
ATOM     22  N   LIG    1       -4.466   6.587  21.415  0.00  0.00    -0.316 NA
ATOM     23  H   LIG    1       -4.341   7.415  21.999  0.00  0.00    +0.119 HD
ATOM     24  H   LIG    1       -3.919   5.856  21.873  0.00  0.00    +0.119 HD
ENDBRANCH  15  22
ENDBRANCH  13  15
ENDBRANCH   6  11
BRANCH   3  25
ATOM     25  C   LIG    1       -4.400   2.004  14.874  0.00  0.00    +0.332 C 
ATOM     26  O   LIG    1       -5.593   1.835  14.652  0.00  0.00    -0.249 OA
BRANCH  25  27
ATOM     27  O   LIG    1       -3.393   1.427  14.174  0.00  0.00    -0.426 OA
BRANCH  27  28
ATOM     28  C   LIG    1       -3.826   0.450  13.226  0.00  0.00    +0.473 C 
BRANCH  28  29
ATOM     29  O   LIG    1       -3.922   1.038  11.930  0.00  0.00    -0.426 OA
BRANCH  29  30
ATOM     30  C   LIG    1       -3.095   0.473  11.018  0.00  0.00    +0.333 C 
ATOM     31  O   LIG    1       -2.408  -0.522  11.213  0.00  0.00    -0.249 OA
BRANCH  30  32
ATOM     32  C   LIG    1       -3.054   1.295   9.736  0.00  0.00    +0.213 C 
ATOM     33  C   LIG    1       -2.164   2.545   9.880  0.00  0.00    +0.113 C 
ATOM     34  C   LIG    1       -2.523   3.596   8.819  0.00  0.00    +0.037 C 
ATOM     35  C   LIG    1       -2.223   3.251  11.244  0.00  0.00    +0.037 C 
ATOM     36  S   LIG    1       -0.488   1.869   9.599  0.00  0.00    -0.004 S 
ATOM     37  O   LIG    1        0.093   1.558  10.892  0.00  0.00    -0.172 OA
ATOM     38  O   LIG    1        0.220   2.741   8.682  0.00  0.00    -0.172 OA
ATOM     39  C   LIG    1       -0.934   0.329   8.766  0.00  0.00    +0.228 C 
ATOM     40  C   LIG    1       -0.990   0.290   7.237  0.00  0.00    +0.142 C 
ATOM     41  C   LIG    1       -2.482   0.608   7.409  0.00  0.00    +0.221 C 
ATOM     42  O   LIG    1       -3.381   1.060   6.724  0.00  0.00    -0.275 OA
ATOM     43  N   LIG    1       -2.418   0.417   8.749  0.00  0.00    -0.263 N 
ENDBRANCH  30  32
ENDBRANCH  29  30
ENDBRANCH  28  29
ENDBRANCH  27  28
ENDBRANCH  25  27
ENDBRANCH   3  25
TORSDOF 10
