REMARK  Name = *****
REMARK                            x       y       z     vdW  Elec       q    Type
REMARK                         _______ _______ _______ _____ _____    ______ ____
ROOT
ATOM      1  C   LIG    1        5.265  -0.263  -1.980  0.00  0.00    +0.028 C 
ATOM      2  C   LIG    1        6.541  -1.160  -1.915  0.00  0.00    +0.048 C 
ATOM      3  C   LIG    1        6.906  -1.661  -3.323  0.00  0.00    +0.088 C 
ATOM      4  N   LIG    1        7.152  -0.553  -4.247  0.00  0.00    -0.316 NA
ATOM      5  H   LIG    1        7.379  -0.927  -5.170  0.00  0.00    +0.122 HD
ATOM      6  C   LIG    1        5.987   0.326  -4.360  0.00  0.00    +0.081 C 
ATOM      7  C   LIG    1        5.551   0.870  -2.998  0.00  0.00    +0.023 C 
ENDROOT
BRANCH   1  12
ATOM      8  F   LIG    1        0.356  -3.061  -2.827  0.00  0.00    -0.205 F 
ATOM      9  C   LIG    1        1.509  -2.408  -2.634  0.00  0.00    +0.123 A 
ATOM     10  C   LIG    1        2.567  -3.048  -2.011  0.00  0.00    +0.038 A 
ATOM     11  C   LIG    1        3.769  -2.361  -1.804  0.00  0.00    +0.007 A 
ATOM     12  C   LIG    1        3.948  -1.031  -2.238  0.00  0.00    -0.044 A 
ATOM     13  C   LIG    1        2.835  -0.407  -2.838  0.00  0.00    +0.007 A 
ATOM     14  C   LIG    1        1.629  -1.093  -3.043  0.00  0.00    +0.038 A 
ENDBRANCH   1  12
BRANCH   2  15
ATOM     15  C   LIG    1        7.762  -0.459  -1.281  0.00  0.00    +0.234 C 
BRANCH  15  16
ATOM     16  O   LIG    1        7.450  -0.037   0.054  0.00  0.00    -0.491 OA
BRANCH  16  17
ATOM     17  C   LIG    1        8.541   0.073   0.878  0.00  0.00    +0.124 A 
ATOM     18  C   LIG    1        9.835   0.365   0.436  0.00  0.00    +0.095 A 
ATOM     19  C   LIG    1       10.852   0.341   1.368  0.00  0.00    +0.170 A 
ATOM     20  O   LIG    1       12.172   0.536   1.103  0.00  0.00    -0.453 OA
ATOM     21  C   LIG    1       12.746   0.262   2.398  0.00  0.00    +0.466 C 
ATOM     22  O   LIG    1       11.759   0.077   3.433  0.00  0.00    -0.453 OA
ATOM     23  C   LIG    1       10.614   0.086   2.697  0.00  0.00    +0.167 A 
ATOM     24  C   LIG    1        9.343  -0.137   3.174  0.00  0.00    +0.053 A 
ATOM     25  C   LIG    1        8.292  -0.138   2.248  0.00  0.00    +0.049 A 
ENDBRANCH  16  17
ENDBRANCH  15  16
ENDBRANCH   2  15
TORSDOF 4
