REMARK  Name = *****
REMARK                            x       y       z     vdW  Elec       q    Type
REMARK                         _______ _______ _______ _____ _____    ______ ____
ROOT
ATOM      1  C   LIG    1       10.650  -5.721  -1.633  0.00  0.00    +0.001 C 
ENDROOT
BRANCH   1   2
ATOM      2  C   LIG    1        9.222  -5.888  -1.072  0.00  0.00    +0.015 C 
BRANCH   2   3
ATOM      3  C   LIG    1        8.076  -6.135  -2.072  0.00  0.00    +0.081 C 
BRANCH   3   4
ATOM      4  N   LIG    1        7.813  -5.019  -2.994  0.00  0.00    -0.313 NA
ATOM      5  H   LIG    1        7.552  -4.177  -2.475  0.00  0.00    +0.122 HD
BRANCH   4   6
ATOM      6  C   LIG    1        6.685  -5.339  -3.902  0.00  0.00    +0.117 C 
BRANCH   6   7
ATOM      7  C   LIG    1        6.343  -4.213  -4.917  0.00  0.00    +0.158 C 
BRANCH   7  11
ATOM      8  C   LIG    1        9.520  -3.468  -7.749  0.00  0.00    +0.158 A 
ATOM      9  C   LIG    1        8.595  -4.482  -7.965  0.00  0.00    +0.159 A 
ATOM     10  C   LIG    1        7.567  -4.715  -7.059  0.00  0.00    +0.055 A 
ATOM     11  C   LIG    1        7.458  -3.931  -5.901  0.00  0.00    -0.014 A 
ATOM     12  C   LIG    1        8.419  -2.930  -5.672  0.00  0.00    +0.010 A 
ATOM     13  C   LIG    1        9.449  -2.698  -6.591  0.00  0.00    +0.049 A 
BRANCH   8  14
ATOM     14  O   LIG    1       10.470  -3.216  -8.697  0.00  0.00    -0.503 OA
ATOM     15  H   LIG    1       10.820  -2.323  -8.549  0.00  0.00    +0.292 HD
ENDBRANCH   8  14
BRANCH   9  16
ATOM     16  O   LIG    1        8.634  -5.255  -9.089  0.00  0.00    -0.503 OA
ATOM     17  H   LIG    1        8.111  -4.769  -9.749  0.00  0.00    +0.292 HD
ENDBRANCH   9  16
ENDBRANCH   7  11
BRANCH   7  18
ATOM     18  O   LIG    1        5.940  -3.020  -4.231  0.00  0.00    -0.386 OA
ATOM     19  H   LIG    1        5.716  -2.380  -4.931  0.00  0.00    +0.210 HD
ENDBRANCH   7  18
ENDBRANCH   6   7
ENDBRANCH   4   6
ENDBRANCH   3   4
ENDBRANCH   2   3
ENDBRANCH   1   2
BRANCH   1  20
ATOM     20  C   LIG    1       11.805  -5.633  -0.568  0.00  0.00    +0.001 C 
BRANCH  20  21
ATOM     21  C   LIG    1       13.134  -5.055  -1.137  0.00  0.00    +0.015 C 
BRANCH  21  22
ATOM     22  C   LIG    1       13.180  -3.799  -2.073  0.00  0.00    +0.081 C 
BRANCH  22  23
ATOM     23  N   LIG    1       12.939  -2.422  -1.589  0.00  0.00    -0.313 NA
ATOM     24  H   LIG    1       13.232  -1.780  -2.326  0.00  0.00    +0.122 HD
BRANCH  23  25
ATOM     25  C   LIG    1       11.549  -2.049  -1.245  0.00  0.00    +0.117 C 
BRANCH  25  26
ATOM     26  C   LIG    1       10.978  -2.811  -0.050  0.00  0.00    +0.158 C 
BRANCH  26  27
ATOM     27  C   LIG    1        9.557  -2.845   0.370  0.00  0.00    -0.014 A 
ATOM     28  C   LIG    1        9.079  -3.689   1.393  0.00  0.00    +0.055 A 
ATOM     29  C   LIG    1        7.769  -3.660   1.767  0.00  0.00    +0.159 A 
ATOM     30  C   LIG    1        6.868  -2.808   1.077  0.00  0.00    +0.158 A 
ATOM     31  C   LIG    1        7.312  -2.105  -0.028  0.00  0.00    +0.049 A 
ATOM     32  C   LIG    1        8.625  -2.116  -0.398  0.00  0.00    +0.010 A 
BRANCH  30  33
ATOM     33  O   LIG    1        5.603  -2.728   1.542  0.00  0.00    -0.503 OA
ATOM     34  H   LIG    1        5.076  -2.266   0.849  0.00  0.00    +0.292 HD
ENDBRANCH  30  33
BRANCH  29  35
ATOM     35  O   LIG    1        7.316  -4.382   2.822  0.00  0.00    -0.503 OA
ATOM     36  H   LIG    1        6.445  -3.994   3.038  0.00  0.00    +0.292 HD
ENDBRANCH  29  35
ENDBRANCH  26  27
BRANCH  26  37
ATOM     37  O   LIG    1       11.853  -2.804   1.066  0.00  0.00    -0.386 OA
ATOM     38  H   LIG    1       11.412  -3.227   1.814  0.00  0.00    +0.210 HD
ENDBRANCH  26  37
ENDBRANCH  25  26
ENDBRANCH  23  25
ENDBRANCH  22  23
ENDBRANCH  21  22
ENDBRANCH  20  21
ENDBRANCH   1  20
TORSDOF 19
