REMARK  Name = *****
REMARK                            x       y       z     vdW  Elec       q    Type
REMARK                         _______ _______ _______ _____ _____    ______ ____
ROOT
ATOM      1  C   LIG    1       -1.552  -1.819  -1.481  0.00  0.00    +0.165 C 
ATOM      2  C   LIG    1       -2.648  -2.860  -1.934  0.00  0.00    +0.012 C 
ATOM      3  C   LIG    1       -3.921  -2.562  -1.133  0.00  0.00    +0.015 C 
ATOM      4  C   LIG    1       -1.963  -4.222  -1.630  0.00  0.00    +0.007 C 
ATOM      5  C   LIG    1       -2.384  -5.439  -2.496  0.00  0.00    +0.034 C 
ATOM      6  C   LIG    1       -3.826  -5.392  -3.049  0.00  0.00    +0.153 C 
ATOM      7  F   LIG    1       -3.774  -6.343  -4.086  0.00  0.00    -0.238 F 
ATOM      8  C   LIG    1       -3.996  -4.049  -3.841  0.00  0.00    +0.154 C 
ATOM      9  C   LIG    1       -4.963  -5.980  -2.068  0.00  0.00    +0.044 C 
ATOM     10  C   LIG    1       -5.959  -6.836  -2.906  0.00  0.00    +0.023 C 
ATOM     11  C   LIG    1       -4.297  -6.925  -1.049  0.00  0.00    -0.053 C 
ATOM     12  C   LIG    1       -4.620  -6.988   0.256  0.00  0.00    +0.051 C 
ATOM     13  C   LIG    1       -5.645  -6.104   0.843  0.00  0.00    +0.179 C 
ATOM     14  O   LIG    1       -5.981  -6.205   2.015  0.00  0.00    -0.288 OA
ATOM     15  C   LIG    1       -6.222  -5.077  -0.042  0.00  0.00    +0.047 C 
ATOM     16  C   LIG    1       -3.143  -7.728  -1.573  0.00  0.00    +0.032 C 
ATOM     17  C   LIG    1       -5.894  -5.018  -1.343  0.00  0.00    -0.009 C 
ATOM     18  C   LIG    1       -1.982  -6.777  -1.827  0.00  0.00    +0.011 C 
ATOM     19  C   LIG    1       -0.444  -3.970  -1.873  0.00  0.00    +0.039 C 
ATOM     20  C   LIG    1       -3.047  -2.871  -3.434  0.00  0.00    +0.044 C 
ATOM     21  C   LIG    1       -0.225  -2.468  -1.854  0.00  0.00    +0.162 C 
ATOM     22  O   LIG    1        0.069  -1.932  -3.145  0.00  0.00    -0.342 OA
ATOM     23  C   LIG    1       -0.433  -0.597  -3.058  0.00  0.00    +0.172 C 
ATOM     24  C   LIG    1        0.627   0.349  -2.486  0.00  0.00    +0.065 C 
ATOM     25  C   LIG    1        1.571   0.611  -3.656  0.00  0.00    +0.005 C 
ATOM     26  C   LIG    1        0.753   0.342  -4.921  0.00  0.00    +0.005 C 
ATOM     27  C   LIG    1       -0.657  -0.006  -4.444  0.00  0.00    +0.065 C 
ATOM     28  O   LIG    1       -1.607  -0.610  -2.247  0.00  0.00    -0.331 OA
ENDROOT
BRANCH   1  29
ATOM     29  C   LIG    1       -1.502  -1.544   0.059  0.00  0.00    +0.205 C 
ATOM     30  O   LIG    1       -0.932  -2.332   0.825  0.00  0.00    -0.291 OA
BRANCH  29  31
ATOM     31  C   LIG    1       -2.215  -0.300   0.608  0.00  0.00    +0.309 C 
BRANCH  31  32
ATOM     32  O   LIG    1       -1.624   0.103   1.852  0.00  0.00    -0.457 OA
BRANCH  32  34
ATOM     33  C   LIG    1       -1.225  -0.372   4.120  0.00  0.00    +0.136 C 
ATOM     34  C   LIG    1       -2.196  -0.449   2.968  0.00  0.00    +0.304 C 
ATOM     35  O   LIG    1       -3.272  -1.005   3.013  0.00  0.00    -0.251 OA
ENDBRANCH  32  34
ENDBRANCH  31  32
ENDBRANCH  29  31
ENDBRANCH   1  29
BRANCH   8  36
ATOM     36  O   LIG    1       -5.342  -3.593  -3.933  0.00  0.00    -0.389 OA
ATOM     37  H   LIG    1       -5.798  -4.176  -4.568  0.00  0.00    +0.210 HD
ENDBRANCH   8  36
TORSDOF 5
