REMARK  Name = *****
REMARK                            x       y       z     vdW  Elec       q    Type
REMARK                         _______ _______ _______ _____ _____    ______ ____
ROOT
ATOM      1  O   LIG    1        5.737   1.228   1.841  0.00  0.00    -0.461 OA
ENDROOT
BRANCH   1   6
ATOM      2  N   LIG    1        2.539  -0.934   0.890  0.00  0.00    +0.247 N 
ATOM      3  C   LIG    1        2.120  -0.554  -0.534  0.00  0.00    +0.193 C 
ATOM      4  C   LIG    1        2.644   0.282   1.857  0.00  0.00    +0.070 C 
ATOM      5  C   LIG    1        3.449   1.419   1.208  0.00  0.00    +0.099 C 
ATOM      6  C   LIG    1        4.848   1.010   0.729  0.00  0.00    +0.187 C 
ATOM      7  C   LIG    1        4.973  -0.456   0.291  0.00  0.00    +0.099 C 
ATOM      8  C   LIG    1        3.372  -0.308   3.075  0.00  0.00    +0.060 C 
ATOM      9  C   LIG    1        4.263  -1.421   2.522  0.00  0.00    +0.060 C 
ATOM     10  C   LIG    1        4.015  -1.423   1.008  0.00  0.00    +0.070 C 
BRANCH   2  12
ATOM     11  C   LIG    1        1.592  -3.351   0.707  0.00  0.00    +0.063 C 
ATOM     12  C   LIG    1        1.512  -2.020   1.459  0.00  0.00    +0.060 C 
ATOM     13  C   LIG    1        0.071  -1.499   1.474  0.00  0.00    +0.063 C 
ENDBRANCH   2  12
ENDBRANCH   1   6
BRANCH   1  14
ATOM     14  C   LIG    1        6.290   2.487   1.927  0.00  0.00    +0.317 C 
ATOM     15  O   LIG    1        6.263   3.314   1.029  0.00  0.00    -0.250 OA
BRANCH  14  16
ATOM     16  C   LIG    1        6.806   2.749   3.341  0.00  0.00    +0.153 C 
BRANCH  16  17
ATOM     17  C   LIG    1        7.553   1.549   3.912  0.00  0.00    -0.032 A 
ATOM     18  C   LIG    1        7.108   0.838   5.037  0.00  0.00    +0.004 A 
ATOM     19  C   LIG    1        7.846  -0.233   5.546  0.00  0.00    +0.000 A 
ATOM     20  C   LIG    1        9.015  -0.640   4.911  0.00  0.00    +0.000 A 
ATOM     21  C   LIG    1        9.451   0.026   3.769  0.00  0.00    +0.000 A 
ATOM     22  C   LIG    1        8.736   1.122   3.282  0.00  0.00    +0.004 A 
ENDBRANCH  16  17
BRANCH  16  23
ATOM     23  C   LIG    1        5.609   3.231   4.186  0.00  0.00    +0.175 C 
BRANCH  23  24
ATOM     24  O   LIG    1        5.037   4.442   3.704  0.00  0.00    -0.394 OA
ATOM     25  H   LIG    1        5.702   5.151   3.778  0.00  0.00    +0.209 HD
ENDBRANCH  23  24
ENDBRANCH  16  23
ENDBRANCH  14  16
ENDBRANCH   1  14
TORSDOF 7
