REMARK  Name = *****
REMARK                            x       y       z     vdW  Elec       q    Type
REMARK                         _______ _______ _______ _____ _____    ______ ____
ROOT
ATOM      1  C   LIG    1        0.934   0.077   0.065  0.00  0.00    +0.011 C 
ATOM      2  C   LIG    1        2.466   0.077   0.063  0.00  0.00    -0.030 C 
ATOM      3  C   LIG    1        3.000  -1.363   0.241  0.00  0.00    +0.013 C 
ATOM      4  C   LIG    1        4.546  -1.381   0.244  0.00  0.00    -0.030 C 
ATOM      5  C   LIG    1        5.050  -0.485   1.398  0.00  0.00    +0.010 C 
ATOM      6  C   LIG    1        4.539   0.954   1.222  0.00  0.00    -0.008 C 
ATOM      7  C   LIG    1        5.050   1.516  -0.115  0.00  0.00    +0.025 C 
ATOM      8  C   LIG    1        4.542   0.646  -1.283  0.00  0.00    +0.018 C 
ATOM      9  C   LIG    1        5.057  -2.814   0.425  0.00  0.00    +0.011 C 
ATOM     10  C   LIG    1        5.052  -0.798  -1.096  0.00  0.00    +0.028 C 
ATOM     11  C   LIG    1        2.998   0.642  -1.275  0.00  0.00    +0.028 C 
ATOM     12  C   LIG    1        3.002   0.951   1.219  0.00  0.00    +0.010 C 
ENDROOT
BRANCH   8  13
ATOM     13  N   LIG    1        5.041   1.183  -2.549  0.00  0.00    -0.325 NA
ATOM     14  H   LIG    1        4.686   0.626  -3.325  0.00  0.00    +0.119 HD
ATOM     15  H   LIG    1        4.683   2.126  -2.690  0.00  0.00    +0.119 HD
ENDBRANCH   8  13
TORSDOF 1
