REMARK  Name = *****
REMARK                            x       y       z     vdW  Elec       q    Type
REMARK                         _______ _______ _______ _____ _____    ______ ____
ROOT
ATOM      1  C   LIG    1        6.365  -4.279  -0.057  0.00  0.00    +0.134 A 
ATOM      2  C   LIG    1        6.864  -5.485  -0.582  0.00  0.00    +0.044 A 
ATOM      3  C   LIG    1        6.551  -6.636   0.156  0.00  0.00    +0.080 A 
ATOM      4  C   LIG    1        7.094  -7.849  -0.241  0.00  0.00    +0.077 A 
ATOM      5  C   LIG    1        7.910  -7.948  -1.370  0.00  0.00    +0.164 A 
ATOM      6  O   LIG    1        8.559  -9.136  -1.575  0.00  0.00    -0.486 OA
ATOM      7  C   LIG    1        7.999  -9.909  -2.645  0.00  0.00    +0.257 C 
ATOM      8  C   LIG    1        9.029 -10.979  -3.037  0.00  0.00    +0.201 C 
ATOM      9  O   LIG    1        9.714 -10.656  -4.251  0.00  0.00    -0.374 OA
ATOM     10  C   LIG    1       10.659  -9.593  -4.117  0.00  0.00    +0.188 C 
ATOM     11  C   LIG    1       10.477  -8.629  -5.286  0.00  0.00    +0.188 C 
ATOM     12  O   LIG    1       11.269  -7.455  -5.108  0.00  0.00    -0.374 OA
ATOM     13  C   LIG    1       10.497  -6.260  -4.950  0.00  0.00    +0.201 C 
ATOM     14  C   LIG    1        9.976  -6.068  -3.521  0.00  0.00    +0.257 C 
ATOM     15  O   LIG    1        8.903  -6.987  -3.295  0.00  0.00    -0.486 OA
ATOM     16  C   LIG    1        8.200  -6.819  -2.136  0.00  0.00    +0.163 A 
ATOM     17  N   LIG    1        5.774  -6.608   1.243  0.00  0.00    -0.235 NA
ATOM     18  C   LIG    1        5.319  -5.411   1.627  0.00  0.00    +0.224 A 
ATOM     19  C   LIG    1        7.672  -5.591  -1.744  0.00  0.00    +0.062 A 
ATOM     20  N   LIG    1        5.585  -4.244   1.039  0.00  0.00    -0.220 NA
ENDROOT
BRANCH   1  21
ATOM     21  N   LIG    1        6.700  -3.053  -0.688  0.00  0.00    -0.299 N 
ATOM     22  H   LIG    1        6.252  -3.001  -1.595  0.00  0.00    +0.154 HD
BRANCH  21  25
ATOM     23  C   LIG    1        7.427  -0.446   1.889  0.00  0.00    +0.026 A 
ATOM     24  C   LIG    1        7.259  -1.691   1.278  0.00  0.00    +0.040 A 
ATOM     25  C   LIG    1        6.820  -1.798  -0.050  0.00  0.00    +0.034 A 
ATOM     26  C   LIG    1        6.620  -0.617  -0.776  0.00  0.00    +0.023 A 
ATOM     27  C   LIG    1        6.789   0.634  -0.171  0.00  0.00    +0.003 A 
ATOM     28  C   LIG    1        7.186   0.719   1.164  0.00  0.00    +0.017 A 
BRANCH  23  30
ATOM     29  C   LIG    1        8.178  -0.357   4.411  0.00  0.00    +0.009 C 
ATOM     30  C   LIG    1        7.841  -0.381   3.256  0.00  0.00    -0.070 C 
ENDBRANCH  23  30
ENDBRANCH  21  25
ENDBRANCH   1  21
TORSDOF 3
