REMARK  Name = *****
REMARK                            x       y       z     vdW  Elec       q    Type
REMARK                         _______ _______ _______ _____ _____    ______ ____
ROOT
ATOM      1  C   LIG    1        0.801  -0.858   0.542  0.00  0.00    +0.105 C 
ATOM      2  N   LIG    1        1.982  -1.199   1.350  0.00  0.00    -0.302 NA
ATOM      3  C   LIG    1        3.041  -0.162   1.159  0.00  0.00    +0.111 C 
ATOM      4  C   LIG    1        4.537  -0.632   1.240  0.00  0.00    +0.119 C 
ATOM      5  N   LIG    1        4.724  -1.849   0.403  0.00  0.00    -0.305 N 
ATOM      6  C   LIG    1        4.483  -1.582  -0.963  0.00  0.00    +0.125 A 
ATOM      7  C   LIG    1        5.446  -0.852  -1.670  0.00  0.00    -0.003 A 
ATOM      8  C   LIG    1        6.742  -0.539  -0.992  0.00  0.00    +0.074 C 
ATOM      9  C   LIG    1        6.617   0.499   0.098  0.00  0.00    -0.038 A 
ATOM     10  C   LIG    1        7.617   1.492   0.146  0.00  0.00    +0.004 A 
ATOM     11  C   LIG    1        7.627   2.462   1.142  0.00  0.00    +0.000 A 
ATOM     12  C   LIG    1        6.629   2.460   2.105  0.00  0.00    +0.000 A 
ATOM     13  C   LIG    1        5.631   1.480   2.077  0.00  0.00    +0.006 A 
ATOM     14  C   LIG    1        5.168  -0.433  -2.974  0.00  0.00    +0.009 A 
ATOM     15  C   LIG    1        3.952  -0.745  -3.556  0.00  0.00    +0.020 A 
ATOM     16  C   LIG    1        3.071  -1.512  -2.812  0.00  0.00    +0.113 A 
ATOM     17  N   LIG    1        3.332  -1.948  -1.565  0.00  0.00    -0.240 NA
ATOM     18  C   LIG    1        3.893  -2.935   0.962  0.00  0.00    +0.122 C 
ATOM     19  C   LIG    1        5.604   0.469   1.088  0.00  0.00    -0.022 A 
ATOM     20  C   LIG    1        2.387  -2.594   1.029  0.00  0.00    +0.103 C 
ENDROOT
TORSDOF 0
