REMARK  Name = *****
REMARK                            x       y       z     vdW  Elec       q    Type
REMARK                         _______ _______ _______ _____ _____    ______ ____
ROOT
ATOM      1  N   LIG    1        3.729  -4.804  -0.493  0.00  0.00    -0.298 NA
ATOM      2  C   LIG    1        3.219  -4.701  -1.881  0.00  0.00    +0.103 C 
ATOM      3  C   LIG    1        3.287  -6.026  -2.669  0.00  0.00    +0.120 C 
ATOM      4  N   LIG    1        2.547  -7.090  -1.954  0.00  0.00    -0.327 N 
ATOM      5  C   LIG    1        3.046  -7.251  -0.570  0.00  0.00    +0.120 C 
ATOM      6  C   LIG    1        3.023  -5.910   0.197  0.00  0.00    +0.103 C 
ENDROOT
BRANCH   4   7
ATOM      7  C   LIG    1        2.304  -8.252  -2.704  0.00  0.00    +0.030 A 
ATOM      8  C   LIG    1        1.749  -8.171  -3.994  0.00  0.00    +0.035 A 
ATOM      9  C   LIG    1        1.495  -9.314  -4.779  0.00  0.00    +0.057 A 
ATOM     10  C   LIG    1        1.778 -10.575  -4.249  0.00  0.00    +0.012 A 
ATOM     11  C   LIG    1        2.293 -10.688  -2.964  0.00  0.00    +0.002 A 
ATOM     12  C   LIG    1        2.545  -9.541  -2.206  0.00  0.00    +0.023 A 
BRANCH   9  13
ATOM     13  C   LIG    1        0.929  -9.159  -6.166  0.00  0.00    +0.417 C 
ATOM     14  F   LIG    1        1.737  -8.422  -6.980  0.00  0.00    -0.166 F 
ATOM     15  F   LIG    1       -0.280  -8.531  -6.176  0.00  0.00    -0.166 F 
ATOM     16  F   LIG    1        0.737 -10.344  -6.812  0.00  0.00    -0.166 F 
ENDBRANCH   9  13
ENDBRANCH   4   7
BRANCH   1  17
ATOM     17  C   LIG    1        3.516  -3.545   0.255  0.00  0.00    +0.106 C 
BRANCH  17  18
ATOM     18  C   LIG    1        4.205  -2.320  -0.375  0.00  0.00    +0.142 C 
BRANCH  18  21
ATOM     19  O   LIG    1        2.041  -0.270  -0.580  0.00  0.00    -0.246 OA
ATOM     20  C   LIG    1        2.958  -0.209   0.228  0.00  0.00    +0.328 C 
ATOM     21  N   LIG    1        4.018  -1.119   0.396  0.00  0.00    -0.291 N 
ATOM     22  C   LIG    1        4.838  -0.671   1.438  0.00  0.00    +0.070 A 
ATOM     23  C   LIG    1        4.294   0.523   1.913  0.00  0.00    +0.067 A 
ATOM     24  C   LIG    1        4.863   1.236   2.942  0.00  0.00    +0.028 A 
ATOM     25  C   LIG    1        6.030   0.707   3.502  0.00  0.00    +0.002 A 
ATOM     26  C   LIG    1        6.588  -0.499   3.022  0.00  0.00    +0.002 A 
ATOM     27  C   LIG    1        5.988  -1.206   1.974  0.00  0.00    +0.028 A 
ATOM     28  N   LIG    1        3.149   0.806   1.175  0.00  0.00    -0.306 N 
ATOM     29  H   LIG    1        2.541   1.602   1.272  0.00  0.00    +0.170 HD
ENDBRANCH  18  21
ENDBRANCH  17  18
ENDBRANCH   1  17
TORSDOF 5
