REMARK  Name = *****
REMARK                            x       y       z     vdW  Elec       q    Type
REMARK                         _______ _______ _______ _____ _____    ______ ____
ROOT
ATOM      1  C   LIG    1        4.633  -0.941   1.178  0.00  0.00    +0.065 C 
ATOM      2  C   LIG    1        5.208   0.003   2.260  0.00  0.00    +0.102 C 
ATOM      3  C   LIG    1        6.739   0.154   2.081  0.00  0.00    +0.065 C 
ATOM      4  C   LIG    1        7.451  -0.840   1.488  0.00  0.00    +0.016 C 
ATOM      5  C   LIG    1        8.952  -0.888   1.322  0.00  0.00    +0.061 C 
ATOM      6  N   LIG    1        6.775  -1.922   0.932  0.00  0.00    -0.321 N 
ATOM      7  H   LIG    1        7.345  -2.528   0.341  0.00  0.00    +0.152 HD
ATOM      8  C   LIG    1        5.425  -1.879   0.609  0.00  0.00    +0.016 C 
ATOM      9  C   LIG    1        4.956  -2.937  -0.361  0.00  0.00    +0.061 C 
ENDROOT
BRANCH   2  10
ATOM     10  C   LIG    1        4.844  -0.463   3.701  0.00  0.00    +0.042 A 
ATOM     11  C   LIG    1        4.503   0.407   4.766  0.00  0.00    +0.277 A 
ATOM     12  C   LIG    1        4.202  -0.060   6.064  0.00  0.00    +0.084 A 
ATOM     13  C   LIG    1        4.220  -1.419   6.337  0.00  0.00    +0.007 A 
ATOM     14  C   LIG    1        4.557  -2.307   5.324  0.00  0.00    +0.001 A 
ATOM     15  C   LIG    1        4.877  -1.838   4.036  0.00  0.00    +0.011 A 
BRANCH  11  16
ATOM     16  N   LIG    1        4.385   1.847   4.601  0.00  0.00    +0.080 N 
ATOM     17  O   LIG    1        5.069   2.554   5.358  0.00  0.00    -0.576 OA
ATOM     18  O   LIG    1        3.534   2.255   3.801  0.00  0.00    +0.042 OA
ENDBRANCH  11  16
ENDBRANCH   2  10
BRANCH   1  19
ATOM     19  C   LIG    1        3.244  -0.743   0.677  0.00  0.00    +0.337 C 
ATOM     20  O   LIG    1        2.867  -1.034  -0.443  0.00  0.00    -0.245 OA
BRANCH  19  22
ATOM     21  C   LIG    1        1.078  -0.128   1.305  0.00  0.00    +0.280 C 
ATOM     22  O   LIG    1        2.465  -0.205   1.647  0.00  0.00    -0.465 OA
ENDBRANCH  19  22
ENDBRANCH   1  19
BRANCH   3  23
ATOM     23  C   LIG    1        7.311   1.475   2.463  0.00  0.00    +0.338 C 
ATOM     24  O   LIG    1        6.680   2.329   3.062  0.00  0.00    -0.245 OA
BRANCH  23  25
ATOM     25  O   LIG    1        8.569   1.655   2.007  0.00  0.00    -0.454 OA
BRANCH  25  26
ATOM     26  C   LIG    1        9.233   2.839   2.445  0.00  0.00    +0.306 C 
BRANCH  26  27
ATOM     27  C   LIG    1        9.855   2.647   3.820  0.00  0.00    +0.168 C 
ATOM     28  O   LIG    1       10.582   1.683   4.078  0.00  0.00    -0.294 OA
ATOM     29  C   LIG    1        9.511   3.668   4.868  0.00  0.00    +0.090 C 
ENDBRANCH  26  27
ENDBRANCH  25  26
ENDBRANCH  23  25
ENDBRANCH   3  23
TORSDOF 8
