REMARK  Name = *****
REMARK                            x       y       z     vdW  Elec       q    Type
REMARK                         _______ _______ _______ _____ _____    ______ ____
ROOT
ATOM      1  C   LIG    1       -3.287  -1.123  -0.647  0.00  0.00    +0.032 C 
ATOM      2  C   LIG    1       -2.585  -2.465  -0.379  0.00  0.00    +0.019 C 
ATOM      3  C   LIG    1       -4.834  -1.127  -0.351  0.00  0.00    -0.016 C 
ATOM      4  C   LIG    1       -5.666  -1.703  -1.512  0.00  0.00    +0.012 C 
ATOM      5  C   LIG    1       -5.133   0.378  -0.139  0.00  0.00    +0.003 C 
ATOM      6  C   LIG    1       -6.519   0.698   0.482  0.00  0.00    +0.019 C 
ATOM      7  C   LIG    1       -6.846  -0.157   1.706  0.00  0.00    -0.063 C 
ATOM      8  C   LIG    1       -6.564  -1.632   1.504  0.00  0.00    +0.032 C 
ATOM      9  C   LIG    1       -7.373   0.362   2.844  0.00  0.00    -0.044 C 
ATOM     10  C   LIG    1       -7.770   1.771   2.912  0.00  0.00    -0.041 C 
ATOM     11  C   LIG    1       -8.097   2.388   4.058  0.00  0.00    +0.050 C 
ATOM     12  C   LIG    1       -8.226   1.623   5.312  0.00  0.00    +0.157 C 
ATOM     13  O   LIG    1       -8.291   2.213   6.386  0.00  0.00    -0.293 OA
ATOM     14  C   LIG    1       -8.440   0.142   5.183  0.00  0.00    +0.083 C 
ATOM     15  C   LIG    1       -7.842   2.526   1.607  0.00  0.00    +0.036 C 
ATOM     16  C   LIG    1       -7.543  -0.458   4.111  0.00  0.00    +0.043 C 
ATOM     17  C   LIG    1       -6.635   2.212   0.745  0.00  0.00    +0.013 C 
ATOM     18  C   LIG    1       -3.919   0.877   0.668  0.00  0.00    +0.006 C 
ATOM     19  C   LIG    1       -5.168  -1.908   0.951  0.00  0.00    +0.012 C 
ATOM     20  C   LIG    1       -2.749  -0.060   0.345  0.00  0.00    +0.015 C 
ENDROOT
BRANCH   1  22
ATOM     21  C   LIG    1       -2.675  -1.666  -3.163  0.00  0.00    +0.086 C 
ATOM     22  C   LIG    1       -2.959  -0.639  -2.091  0.00  0.00    +0.137 C 
ATOM     23  O   LIG    1       -2.946   0.558  -2.389  0.00  0.00    -0.297 OA
ENDBRANCH   1  22
TORSDOF 1
