REMARK  Name = *****
REMARK                            x       y       z     vdW  Elec       q    Type
REMARK                         _______ _______ _______ _____ _____    ______ ____
ROOT
ATOM      1  N   LIG    1        4.654   1.096   1.052  0.00  0.00    -0.329 N 
ATOM      2  C   LIG    1        5.540   1.075   2.110  0.00  0.00    +0.081 A 
ATOM      3  C   LIG    1        5.451   1.045   3.533  0.00  0.00    +0.026 A 
ATOM      4  C   LIG    1        6.699   1.085   4.207  0.00  0.00    +0.075 A 
ATOM      5  N   LIG    1        7.892   1.123   3.597  0.00  0.00    -0.230 NA
ATOM      6  C   LIG    1        7.972   1.106   2.250  0.00  0.00    +0.144 A 
ATOM      7  C   LIG    1        6.692   1.087   5.594  0.00  0.00    +0.028 A 
ATOM      8  C   LIG    1        5.505   1.042   6.331  0.00  0.00    +0.002 A 
ATOM      9  C   LIG    1        4.285   0.987   5.670  0.00  0.00    +0.001 A 
ATOM     10  C   LIG    1        4.250   0.984   4.276  0.00  0.00    +0.012 A 
ATOM     11  C   LIG    1        6.790   1.104   1.480  0.00  0.00    +0.129 A 
ATOM     12  N   LIG    1        6.666   1.146   0.106  0.00  0.00    -0.232 NA
ATOM     13  C   LIG    1        5.377   1.145  -0.114  0.00  0.00    +0.200 A 
ENDROOT
BRANCH   6  14
ATOM     14  N   LIG    1        9.240   1.134   1.677  0.00  0.00    -0.341 N 
ATOM     15  H   LIG    1        9.219   1.481   0.723  0.00  0.00    +0.144 HD
ATOM     16  H   LIG    1        9.914   1.540   2.310  0.00  0.00    +0.144 HD
ENDBRANCH   6  14
BRANCH   1  17
ATOM     17  C   LIG    1        3.204   1.151   1.061  0.00  0.00    +0.126 C 
BRANCH  17  19
ATOM     18  C   LIG    1        1.011  -0.049   1.273  0.00  0.00    +0.009 C 
ATOM     19  C   LIG    1        2.521  -0.228   1.094  0.00  0.00    +0.003 C 
ATOM     20  C   LIG    1        2.784  -1.040  -0.178  0.00  0.00    +0.009 C 
ENDBRANCH  17  19
ENDBRANCH   1  17
TORSDOF 3
