REMARK  Name = *****
REMARK                            x       y       z     vdW  Elec       q    Type
REMARK                         _______ _______ _______ _____ _____    ______ ____
ROOT
ATOM      1  C   LIG    1        4.662  -1.550  -0.260  0.00  0.00    +0.126 C 
ATOM      2  C   LIG    1        5.331  -2.230  -1.457  0.00  0.00    +0.236 C 
ATOM      3  O   LIG    1        5.595  -3.429  -1.510  0.00  0.00    -0.274 OA
ATOM      4  N   LIG    1        5.580  -1.431  -2.538  0.00  0.00    -0.239 N 
ATOM      5  H   LIG    1        6.021  -1.897  -3.320  0.00  0.00    +0.159 HD
ATOM      6  C   LIG    1        5.876  -0.110  -2.433  0.00  0.00    +0.312 C 
ATOM      7  O   LIG    1        6.564   0.460  -3.275  0.00  0.00    -0.252 OA
ATOM      8  N   LIG    1        5.474   0.523  -1.301  0.00  0.00    -0.239 N 
ATOM      9  H   LIG    1        5.838   1.462  -1.195  0.00  0.00    +0.159 HD
ATOM     10  C   LIG    1        5.218  -0.130  -0.128  0.00  0.00    +0.236 C 
ATOM     11  O   LIG    1        5.385   0.447   0.944  0.00  0.00    -0.274 OA
ENDROOT
BRANCH   1  12
ATOM     12  C   LIG    1        3.111  -1.431  -0.579  0.00  0.00    +0.010 C 
ATOM     13  C   LIG    1        2.443  -2.801  -0.798  0.00  0.00    +0.009 C 
BRANCH  12  15
ATOM     14  C   LIG    1        0.852  -0.437   0.194  0.00  0.00    +0.004 C 
ATOM     15  C   LIG    1        2.335  -0.620   0.494  0.00  0.00    +0.001 C 
ENDBRANCH  12  15
ENDBRANCH   1  12
BRANCH   1  16
ATOM     16  C   LIG    1        4.932  -2.357   1.039  0.00  0.00    +0.022 C 
ATOM     17  C   LIG    1        6.410  -2.526   1.398  0.00  0.00    +0.005 C 
ENDBRANCH   1  16
TORSDOF 3
