REMARK  Name = *****
REMARK                            x       y       z     vdW  Elec       q    Type
REMARK                         _______ _______ _______ _____ _____    ______ ____
ROOT
ATOM      1  C   LIG    1        6.884   1.543   0.404  0.00  0.00    +0.128 C 
ENDROOT
BRANCH   1   2
ATOM      2  C   LIG    1        7.296   1.774   1.894  0.00  0.00    +0.022 A 
ATOM      3  C   LIG    1        7.551   0.675   2.747  0.00  0.00    +0.132 A 
ATOM      4  F   LIG    1        7.420  -0.576   2.279  0.00  0.00    -0.205 F 
ATOM      5  C   LIG    1        7.952   0.825   4.075  0.00  0.00    +0.077 A 
ATOM      6  C   LIG    1        8.136   2.100   4.579  0.00  0.00    +0.126 A 
ATOM      7  F   LIG    1        8.555   2.263   5.841  0.00  0.00    -0.205 F 
ATOM      8  C   LIG    1        7.901   3.213   3.783  0.00  0.00    +0.039 A 
ATOM      9  C   LIG    1        7.474   3.054   2.455  0.00  0.00    +0.012 A 
ENDBRANCH   1   2
BRANCH   1  10
ATOM     10  C   LIG    1        8.204   1.187  -0.468  0.00  0.00    +0.092 C 
ATOM     11  C   LIG    1        9.090   2.458  -0.600  0.00  0.00    +0.027 C 
BRANCH  10  16
ATOM     12  C   LIG    1        8.520  -2.944  -4.074  0.00  0.00    +0.007 C 
ATOM     13  C   LIG    1        8.290  -1.647  -3.769  0.00  0.00    -0.074 C 
ATOM     14  C   LIG    1        6.951  -1.103  -3.374  0.00  0.00    +0.045 C 
ATOM     15  C   LIG    1        7.038  -0.485  -1.965  0.00  0.00    +0.089 C 
ATOM     16  N   LIG    1        8.082   0.556  -1.829  0.00  0.00    -0.296 NA
ATOM     17  C   LIG    1        9.390  -0.009  -2.284  0.00  0.00    +0.089 C 
ATOM     18  C   LIG    1        9.367  -0.612  -3.694  0.00  0.00    +0.045 C 
ENDBRANCH  10  16
ENDBRANCH   1  10
BRANCH   1  19
ATOM     19  O   LIG    1        5.975   0.421   0.467  0.00  0.00    -0.381 OA
ATOM     20  H   LIG    1        6.514  -0.368   0.667  0.00  0.00    +0.211 HD
ENDBRANCH   1  19
BRANCH   1  21
ATOM     21  C   LIG    1        6.034   2.722  -0.155  0.00  0.00    +0.186 C 
BRANCH  21  22
ATOM     22  N   LIG    1        5.582   2.604  -1.526  0.00  0.00    -0.249 N 
ATOM     23  N   LIG    1        6.193   3.301  -2.505  0.00  0.00    -0.158 NA
ATOM     24  C   LIG    1        5.433   2.996  -3.559  0.00  0.00    +0.244 A 
ATOM     25  N   LIG    1        4.340   2.225  -3.287  0.00  0.00    -0.223 NA
ATOM     26  C   LIG    1        4.442   2.020  -1.993  0.00  0.00    +0.219 A 
ENDBRANCH  21  22
ENDBRANCH   1  21
TORSDOF 6
