REMARK  Name = *****
REMARK                            x       y       z     vdW  Elec       q    Type
REMARK                         _______ _______ _______ _____ _____    ______ ____
ROOT
ATOM      1  N   LIG    1        5.516   0.657  -1.281  0.00  0.00    -0.267 N 
ATOM      2  N   LIG    1        6.112   1.823  -0.963  0.00  0.00    -0.179 NA
ATOM      3  C   LIG    1        7.412   1.567  -1.136  0.00  0.00    +0.144 A 
ATOM      4  C   LIG    1        7.661   0.234  -1.528  0.00  0.00    +0.038 A 
ATOM      5  C   LIG    1        6.402  -0.319  -1.638  0.00  0.00    +0.118 A 
ENDROOT
BRANCH   4   6
ATOM      6  C   LIG    1        8.892  -0.474  -1.786  0.00  0.00    +0.086 A 
ATOM      7  C   LIG    1       10.086  -0.135  -1.140  0.00  0.00    +0.045 A 
ATOM      8  C   LIG    1       11.192  -0.899  -1.486  0.00  0.00    +0.142 A 
ATOM      9  N   LIG    1       12.270  -0.439  -0.779  0.00  0.00    -0.346 N 
ATOM     10  H   LIG    1       13.200  -0.821  -0.862  0.00  0.00    +0.167 HD
ATOM     11  C   LIG    1       11.885   0.600   0.029  0.00  0.00    +0.085 A 
ATOM     12  N   LIG    1       11.235  -1.913  -2.362  0.00  0.00    -0.218 NA
ATOM     13  C   LIG    1       10.029  -2.145  -2.910  0.00  0.00    +0.224 A 
ATOM     14  C   LIG    1       10.536   0.806  -0.169  0.00  0.00    +0.031 A 
ATOM     15  N   LIG    1        8.871  -1.502  -2.671  0.00  0.00    -0.235 NA
ENDBRANCH   4   6
BRANCH   1  16
ATOM     16  C   LIG    1        4.055   0.544  -1.240  0.00  0.00    +0.124 C 
BRANCH  16  17
ATOM     17  C   LIG    1        3.558   0.185   0.187  0.00  0.00    +0.015 C 
ATOM     18  C   LIG    1        2.027   0.119   0.303  0.00  0.00    +0.006 C 
ATOM     19  C   LIG    1        1.779  -0.795   1.488  0.00  0.00    +0.000 C 
ATOM     20  C   LIG    1        2.808  -1.891   1.285  0.00  0.00    +0.000 C 
ATOM     21  C   LIG    1        4.045  -1.172   0.744  0.00  0.00    +0.006 C 
ENDBRANCH  16  17
BRANCH  16  22
ATOM     22  C   LIG    1        3.385   1.831  -1.763  0.00  0.00    +0.145 C 
BRANCH  22  24
ATOM     23  N   LIG    1        3.959   2.285  -4.290  0.00  0.00    -0.197 NA
ATOM     24  C   LIG    1        3.726   2.094  -3.166  0.00  0.00    +0.065 C 
ENDBRANCH  22  24
ENDBRANCH  16  22
ENDBRANCH   1  16
TORSDOF 5
