REMARK  Name = *****
REMARK                            x       y       z     vdW  Elec       q    Type
REMARK                         _______ _______ _______ _____ _____    ______ ____
ROOT
ATOM      1  C   LIG    1        4.409  -2.315  -2.938  0.00  0.00    +0.065 A 
ATOM      2  C   LIG    1        4.542  -2.301  -4.342  0.00  0.00    +0.049 A 
ATOM      3  I   LIG    1        5.892  -3.689  -5.332  0.00  0.00    -0.041 I 
ATOM      4  C   LIG    1        3.697  -1.483  -5.128  0.00  0.00    +0.064 A 
ATOM      5  C   LIG    1        2.550  -0.951  -4.517  0.00  0.00    +0.049 A 
ATOM      6  I   LIG    1        1.494   0.729  -5.281  0.00  0.00    -0.041 I 
ATOM      7  C   LIG    1        2.189  -1.369  -3.241  0.00  0.00    +0.065 A 
ATOM      8  C   LIG    1        3.222  -1.786  -2.392  0.00  0.00    +0.040 A 
ATOM      9  I   LIG    1        3.108  -0.970  -0.424  0.00  0.00    -0.042 I 
ENDROOT
BRANCH   1  11
ATOM     10  O   LIG    1        5.229  -3.349  -0.970  0.00  0.00    -0.270 OA
ATOM     11  C   LIG    1        5.488  -2.865  -2.052  0.00  0.00    +0.246 C 
ATOM     12  N   LIG    1        6.775  -2.800  -2.546  0.00  0.00    -0.309 N 
ATOM     13  H   LIG    1        6.941  -2.510  -3.501  0.00  0.00    +0.149 HD
BRANCH  12  14
ATOM     14  C   LIG    1        7.931  -3.310  -1.833  0.00  0.00    +0.138 C 
BRANCH  14  15
ATOM     15  C   LIG    1        8.996  -3.863  -2.794  0.00  0.00    +0.157 C 
BRANCH  15  16
ATOM     16  O   LIG    1        9.451  -2.825  -3.676  0.00  0.00    -0.388 OA
ATOM     17  H   LIG    1       10.313  -3.136  -4.021  0.00  0.00    +0.210 HD
ENDBRANCH  15  16
BRANCH  15  18
ATOM     18  C   LIG    1       10.197  -4.423  -2.028  0.00  0.00    +0.188 C 
BRANCH  18  19
ATOM     19  O   LIG    1       11.153  -4.923  -2.968  0.00  0.00    -0.392 OA
ATOM     20  H   LIG    1       11.021  -5.886  -3.032  0.00  0.00    +0.209 HD
ENDBRANCH  18  19
ENDBRANCH  15  18
ENDBRANCH  14  15
ENDBRANCH  12  14
ENDBRANCH   1  11
BRANCH   7  21
ATOM     21  C   LIG    1        0.908  -2.203  -3.134  0.00  0.00    +0.246 C 
ATOM     22  N   LIG    1        0.076  -2.176  -4.254  0.00  0.00    -0.309 N 
ATOM     23  H   LIG    1        0.305  -1.596  -5.045  0.00  0.00    +0.149 HD
ATOM     24  O   LIG    1        0.684  -2.908  -2.180  0.00  0.00    -0.270 OA
BRANCH  22  25
ATOM     25  C   LIG    1       -1.061  -3.070  -4.427  0.00  0.00    +0.138 C 
BRANCH  25  26
ATOM     26  C   LIG    1       -0.686  -4.422  -5.076  0.00  0.00    +0.157 C 
BRANCH  26  27
ATOM     27  O   LIG    1       -0.021  -4.192  -6.335  0.00  0.00    -0.388 OA
ATOM     28  H   LIG    1       -0.677  -3.877  -6.978  0.00  0.00    +0.210 HD
ENDBRANCH  26  27
BRANCH  26  29
ATOM     29  C   LIG    1       -1.949  -5.277  -5.296  0.00  0.00    +0.188 C 
BRANCH  29  30
ATOM     30  O   LIG    1       -1.635  -6.560  -5.833  0.00  0.00    -0.392 OA
ATOM     31  H   LIG    1       -1.557  -6.471  -6.799  0.00  0.00    +0.209 HD
ENDBRANCH  29  30
ENDBRANCH  26  29
ENDBRANCH  25  26
ENDBRANCH  22  25
ENDBRANCH   7  21
BRANCH   4  32
ATOM     32  N   LIG    1        4.000  -1.175  -6.495  0.00  0.00    -0.265 N 
ATOM     33  C   LIG    1        5.189  -0.482  -6.775  0.00  0.00    +0.245 C 
ATOM     34  O   LIG    1        5.997  -0.162  -5.897  0.00  0.00    -0.273 OA
BRANCH  32  35
ATOM     35  C   LIG    1        3.159  -1.851  -7.508  0.00  0.00    +0.141 C 
BRANCH  35  36
ATOM     36  C   LIG    1        3.748  -3.177  -8.011  0.00  0.00    +0.175 C 
BRANCH  36  37
ATOM     37  O   LIG    1        2.924  -3.750  -9.016  0.00  0.00    -0.393 OA
ATOM     38  H   LIG    1        3.294  -4.635  -9.194  0.00  0.00    +0.209 HD
ENDBRANCH  36  37
ENDBRANCH  35  36
ENDBRANCH  32  35
BRANCH  33  39
ATOM     39  C   LIG    1        5.416  -0.012  -8.225  0.00  0.00    +0.252 C 
BRANCH  39  40
ATOM     40  O   LIG    1        6.758   0.002  -8.675  0.00  0.00    -0.386 OA
ATOM     41  H   LIG    1        7.221   0.706  -8.185  0.00  0.00    +0.210 HD
ENDBRANCH  39  40
ENDBRANCH  33  39
ENDBRANCH   4  32
TORSDOF 18
