REMARK  Name = *****
REMARK                            x       y       z     vdW  Elec       q    Type
REMARK                         _______ _______ _______ _____ _____    ______ ____
ROOT
ATOM      1  C   LIG    1       -4.216  -1.959   0.099  0.00  0.00    +0.001 A 
ATOM      2  C   LIG    1       -3.048  -1.979  -0.659  0.00  0.00    +0.017 A 
ATOM      3  C   LIG    1       -2.053  -1.005  -0.472  0.00  0.00    +0.034 A 
ATOM      4  S   LIG    1       -0.616  -1.119  -1.521  0.00  0.00    -0.086 S 
ATOM      5  C   LIG    1        0.524  -0.038  -0.682  0.00  0.00    +0.034 A 
ATOM      6  C   LIG    1        0.120   0.888   0.297  0.00  0.00    +0.048 A 
ATOM      7  N   LIG    1       -1.242   1.027   0.685  0.00  0.00    -0.298 N 
ATOM      8  C   LIG    1        1.121   1.661   0.919  0.00  0.00    +0.024 A 
ATOM      9  C   LIG    1        2.465   1.557   0.543  0.00  0.00    +0.002 A 
ATOM     10  C   LIG    1        2.838   0.676  -0.459  0.00  0.00    +0.001 A 
ATOM     11  C   LIG    1        1.874  -0.123  -1.069  0.00  0.00    +0.017 A 
ATOM     12  C   LIG    1       -2.232   0.030   0.467  0.00  0.00    +0.048 A 
ATOM     13  C   LIG    1       -3.411   0.010   1.238  0.00  0.00    +0.024 A 
ATOM     14  C   LIG    1       -4.395  -0.967   1.052  0.00  0.00    +0.002 A 
ENDROOT
BRANCH   7  15
ATOM     15  C   LIG    1       -1.740   2.430   0.751  0.00  0.00    +0.116 C 
BRANCH  15  16
ATOM     16  C   LIG    1       -1.642   3.181  -0.597  0.00  0.00    +0.024 C 
ATOM     17  C   LIG    1       -2.443   2.550  -1.762  0.00  0.00    -0.003 C 
ATOM     18  C   LIG    1       -3.941   2.830  -1.568  0.00  0.00    +0.019 C 
ATOM     19  C   LIG    1       -4.184   4.346  -1.623  0.00  0.00    +0.085 C 
ATOM     20  N   LIG    1       -2.910   5.100  -1.613  0.00  0.00    -0.302 NA
ATOM     21  C   LIG    1       -2.171   4.785  -2.858  0.00  0.00    +0.085 C 
ATOM     22  C   LIG    1       -2.002   3.270  -3.048  0.00  0.00    +0.019 C 
ATOM     23  C   LIG    1       -2.111   4.651  -0.447  0.00  0.00    +0.089 C 
ENDBRANCH  15  16
ENDBRANCH   7  15
TORSDOF 2
