REMARK  Name = *****
REMARK                            x       y       z     vdW  Elec       q    Type
REMARK                         _______ _______ _______ _____ _____    ______ ____
ROOT
ATOM      1  C   LIG    1        5.060   4.729   3.674  0.00  0.00    +0.086 A 
ATOM      2  C   LIG    1        5.911   4.798   4.785  0.00  0.00    +0.031 A 
ATOM      3  C   LIG    1        6.479   6.012   5.178  0.00  0.00    +0.031 A 
ATOM      4  C   LIG    1        6.210   7.166   4.442  0.00  0.00    +0.109 A 
ATOM      5  C   LIG    1        5.393   7.113   3.307  0.00  0.00    +0.031 A 
ATOM      6  C   LIG    1        4.816   5.897   2.934  0.00  0.00    +0.031 A 
ENDROOT
BRANCH   4   7
ATOM      7  S   LIG    1        6.963   8.713   4.900  0.00  0.00    +0.073 S 
ATOM      8  O   LIG    1        7.601   9.210   3.705  0.00  0.00    -0.150 OA
ATOM      9  O   LIG    1        7.726   8.505   6.120  0.00  0.00    -0.150 OA
BRANCH   7  10
ATOM     10  N   LIG    1        5.632   9.715   5.214  0.00  0.00    -0.200 N 
ATOM     11  H   LIG    1        4.863   9.487   4.586  0.00  0.00    +0.175 HD
BRANCH  10  12
ATOM     12  C   LIG    1        5.160   9.649   6.542  0.00  0.00    +0.138 A 
ATOM     13  N   LIG    1        4.239   8.701   6.777  0.00  0.00    -0.239 NA
ATOM     14  C   LIG    1        3.798   8.619   8.057  0.00  0.00    +0.113 A 
ATOM     15  C   LIG    1        4.237   9.441   9.088  0.00  0.00    +0.020 A 
ATOM     16  C   LIG    1        5.189  10.410   8.796  0.00  0.00    +0.005 A 
ATOM     17  C   LIG    1        5.667  10.516   7.496  0.00  0.00    +0.045 A 
ENDBRANCH  10  12
ENDBRANCH   7  10
ENDBRANCH   4   7
BRANCH   1  19
ATOM     18  N   LIG    1        3.383   3.558   2.840  0.00  0.00    -0.149 NA
ATOM     19  N   LIG    1        4.531   3.474   3.325  0.00  0.00    -0.149 NA
BRANCH  18  24
ATOM     20  C   LIG    1        0.951   0.850   2.116  0.00  0.00    +0.102 A 
ATOM     21  C   LIG    1        1.809  -0.175   1.692  0.00  0.00    +0.131 A 
ATOM     22  C   LIG    1        3.185   0.026   1.629  0.00  0.00    +0.048 A 
ATOM     23  C   LIG    1        3.715   1.259   2.004  0.00  0.00    +0.033 A 
ATOM     24  C   LIG    1        2.886   2.298   2.455  0.00  0.00    +0.087 A 
ATOM     25  C   LIG    1        1.503   2.085   2.491  0.00  0.00    +0.048 A 
BRANCH  20  27
ATOM     26  O   LIG    1       -1.260   1.628   2.548  0.00  0.00    -0.245 OA
ATOM     27  C   LIG    1       -0.533   0.712   2.198  0.00  0.00    +0.340 C 
BRANCH  27  28
ATOM     28  O   LIG    1       -1.017  -0.501   1.859  0.00  0.00    -0.477 OA
ATOM     29  H   LIG    1       -0.307  -1.125   1.586  0.00  0.00    +0.295 HD
ENDBRANCH  27  28
ENDBRANCH  20  27
BRANCH  21  30
ATOM     30  O   LIG    1        1.302  -1.398   1.333  0.00  0.00    -0.506 OA
ATOM     31  H   LIG    1        2.045  -1.982   1.085  0.00  0.00    +0.292 HD
ENDBRANCH  21  30
ENDBRANCH  18  24
ENDBRANCH   1  19
TORSDOF 8
