REMARK  Name = *****
REMARK                            x       y       z     vdW  Elec       q    Type
REMARK                         _______ _______ _______ _____ _____    ______ ____
ROOT
ATOM      1  C   LIG    1        3.974  -1.516   0.396  0.00  0.00    +0.130 C 
ATOM      2  C   LIG    1        3.218  -1.342  -0.918  0.00  0.00    +0.238 C 
ATOM      3  O   LIG    1        3.760  -0.859  -1.915  0.00  0.00    -0.274 OA
ATOM      4  N   LIG    1        1.912  -1.815  -0.960  0.00  0.00    -0.228 N 
ATOM      5  C   LIG    1        1.214  -1.679  -2.229  0.00  0.00    +0.143 C 
ATOM      6  C   LIG    1        1.235  -2.403   0.099  0.00  0.00    +0.317 C 
ATOM      7  O   LIG    1        0.101  -2.867  -0.024  0.00  0.00    -0.252 OA
ATOM      8  N   LIG    1        1.882  -2.396   1.321  0.00  0.00    -0.228 N 
ATOM      9  C   LIG    1        1.133  -2.868   2.472  0.00  0.00    +0.143 C 
ATOM     10  C   LIG    1        2.990  -1.603   1.562  0.00  0.00    +0.238 C 
ATOM     11  O   LIG    1        3.197  -1.102   2.661  0.00  0.00    -0.274 OA
ENDROOT
BRANCH   1  12
ATOM     12  C   LIG    1        5.000  -0.323   0.571  0.00  0.00    +0.010 C 
ATOM     13  C   LIG    1        5.970  -0.493   1.755  0.00  0.00    +0.009 C 
BRANCH  12  14
ATOM     14  C   LIG    1        4.283   1.056   0.635  0.00  0.00    +0.001 C 
ATOM     15  C   LIG    1        5.225   2.254   0.588  0.00  0.00    +0.004 C 
ENDBRANCH  12  14
ENDBRANCH   1  12
BRANCH   1  16
ATOM     16  C   LIG    1        4.659  -2.923   0.356  0.00  0.00    +0.052 C 
BRANCH  16  18
ATOM     17  C   LIG    1        5.706  -4.084  -1.608  0.00  0.00    +0.004 C 
ATOM     18  C   LIG    1        5.746  -3.134  -0.665  0.00  0.00    -0.033 C 
ENDBRANCH  16  18
ENDBRANCH   1  16
TORSDOF 4
