REMARK  Name = *****
REMARK                            x       y       z     vdW  Elec       q    Type
REMARK                         _______ _______ _______ _____ _____    ______ ____
ROOT
ATOM      1  C   LIG    1        3.035  -0.145  -1.197  0.00  0.00    -0.017 C 
ATOM      2  C   LIG    1        3.104  -1.419  -1.845  0.00  0.00    +0.042 C 
ATOM      3  C   LIG    1        2.809  -2.771  -1.375  0.00  0.00    +0.169 C 
ATOM      4  C   LIG    1        2.913  -3.907  -2.408  0.00  0.00    +0.075 C 
ATOM      5  C   LIG    1        3.900  -3.591  -3.556  0.00  0.00    +0.019 C 
ATOM      6  C   LIG    1        3.700  -2.215  -4.206  0.00  0.00    +0.055 C 
ATOM      7  O   LIG    1        2.424  -3.001  -0.232  0.00  0.00    -0.292 OA
ATOM      8  C   LIG    1        3.522  -1.196  -3.141  0.00  0.00    +0.027 C 
ATOM      9  N   LIG    1        3.745   0.141  -3.303  0.00  0.00    -0.361 NA
ATOM     10  H   LIG    1        4.075   0.585  -4.151  0.00  0.00    +0.165 HD
ATOM     11  C   LIG    1        3.432   0.800  -2.138  0.00  0.00    +0.017 C 
ATOM     12  C   LIG    1        3.549   2.280  -2.058  0.00  0.00    +0.063 C 
ENDROOT
BRANCH   1  14
ATOM     13  C   LIG    1        1.114   0.374   0.340  0.00  0.00    +0.009 C 
ATOM     14  C   LIG    1        2.610   0.124   0.216  0.00  0.00    +0.034 C 
ENDBRANCH   1  14
BRANCH   4  15
ATOM     15  C   LIG    1        1.478  -4.237  -2.868  0.00  0.00    +0.096 C 
BRANCH  15  16
ATOM     16  N   LIG    1        1.354  -5.373  -3.805  0.00  0.00    -0.297 NA
ATOM     17  C   LIG    1        1.816  -6.666  -3.246  0.00  0.00    +0.112 C 
ATOM     18  C   LIG    1        0.884  -7.266  -2.180  0.00  0.00    +0.175 C 
ATOM     19  O   LIG    1       -0.443  -7.435  -2.692  0.00  0.00    -0.377 OA
ATOM     20  C   LIG    1       -0.969  -6.185  -3.154  0.00  0.00    +0.175 C 
ATOM     21  C   LIG    1       -0.060  -5.554  -4.227  0.00  0.00    +0.112 C 
ENDBRANCH  15  16
ENDBRANCH   4  15
TORSDOF 3
