REMARK  Name = *****
REMARK                            x       y       z     vdW  Elec       q    Type
REMARK                         _______ _______ _______ _____ _____    ______ ____
ROOT
ATOM      1  C   LIG    1       -2.781   0.232  -0.457  0.00  0.00    +0.011 C 
ATOM      2  C   LIG    1       -1.710  -0.853  -0.559  0.00  0.00    +0.026 C 
ATOM      3  C   LIG    1       -0.446  -0.569   0.277  0.00  0.00    +0.134 C 
ATOM      4  C   LIG    1        0.080  -1.988   0.671  0.00  0.00    +0.009 C 
ATOM      5  C   LIG    1        0.811  -2.680  -0.510  0.00  0.00    +0.015 C 
ATOM      6  C   LIG    1       -1.236  -2.780   0.955  0.00  0.00    +0.003 C 
ATOM      7  C   LIG    1       -1.792  -2.679   2.406  0.00  0.00    +0.017 C 
ATOM      8  C   LIG    1       -0.711  -3.010   3.463  0.00  0.00    +0.036 C 
ATOM      9  C   LIG    1        0.456  -2.011   3.265  0.00  0.00    +0.120 C 
ATOM     10  C   LIG    1       -0.390  -4.557   3.682  0.00  0.00    +0.013 C 
ATOM     11  C   LIG    1        0.029  -4.755   5.168  0.00  0.00    +0.020 C 
ATOM     12  C   LIG    1       -1.612  -5.489   3.432  0.00  0.00    -0.055 C 
ATOM     13  C   LIG    1       -1.407  -6.830   3.406  0.00  0.00    +0.051 C 
ATOM     14  C   LIG    1       -0.451  -7.156   2.284  0.00  0.00    +0.179 C 
ATOM     15  O   LIG    1       -0.585  -8.155   1.585  0.00  0.00    -0.288 OA
ATOM     16  C   LIG    1        0.720  -6.251   2.148  0.00  0.00    +0.047 C 
ATOM     17  C   LIG    1       -2.755  -5.018   2.561  0.00  0.00    +0.051 C 
ATOM     18  C   LIG    1        0.758  -5.091   2.828  0.00  0.00    -0.012 C 
ATOM     19  C   LIG    1       -3.057  -3.531   2.637  0.00  0.00    +0.088 C 
ATOM     20 CL   LIG    1       -3.834  -3.137   4.213  0.00  0.00    -0.121 Cl
ATOM     21  C   LIG    1        1.062  -1.971   1.861  0.00  0.00    +0.042 C 
ATOM     22  C   LIG    1       -2.232  -2.223  -0.087  0.00  0.00    +0.011 C 
ENDROOT
BRANCH   3  23
ATOM     23  C   LIG    1        0.596   0.340  -0.427  0.00  0.00    +0.190 C 
ATOM     24  O   LIG    1        1.294   1.116   0.242  0.00  0.00    -0.292 OA
BRANCH  23  25
ATOM     25  C   LIG    1        0.693   0.359  -1.950  0.00  0.00    +0.233 C 
BRANCH  25  26
ATOM     26  O   LIG    1        1.846   1.056  -2.397  0.00  0.00    -0.387 OA
ATOM     27  H   LIG    1        2.035   1.744  -1.726  0.00  0.00    +0.210 HD
ENDBRANCH  25  26
ENDBRANCH  23  25
ENDBRANCH   3  23
BRANCH   3  28
ATOM     28  O   LIG    1       -0.842   0.110   1.480  0.00  0.00    -0.380 OA
ATOM     29  H   LIG    1       -0.458   1.010   1.458  0.00  0.00    +0.211 HD
ENDBRANCH   3  28
BRANCH   9  30
ATOM     30  O   LIG    1        1.504  -2.243   4.201  0.00  0.00    -0.391 OA
ATOM     31  H   LIG    1        2.081  -1.458   4.190  0.00  0.00    +0.210 HD
ENDBRANCH   9  30
TORSDOF 5
