REMARK  Name = *****
REMARK                            x       y       z     vdW  Elec       q    Type
REMARK                         _______ _______ _______ _____ _____    ______ ____
ROOT
ATOM      1  C   LIG    1       -0.929  -2.026  -1.386  0.00  0.00    +0.053 C 
ENDROOT
BRANCH   1   2
ATOM      2  C   LIG    1       -1.656  -3.365  -1.367  0.00  0.00    -0.045 A 
ATOM      3  C   LIG    1       -2.236  -3.831  -0.164  0.00  0.00    +0.018 A 
ATOM      4  C   LIG    1       -3.087  -4.950  -0.135  0.00  0.00    +0.058 A 
ATOM      5  C   LIG    1       -3.423  -5.536  -1.358  0.00  0.00    +0.045 A 
ATOM      6  N   LIG    1       -4.573  -6.391  -1.641  0.00  0.00    -0.329 N 
ATOM      7  C   LIG    1       -4.078  -7.044  -2.895  0.00  0.00    +0.110 C 
ATOM      8  C   LIG    1       -3.126  -6.080  -3.633  0.00  0.00    +0.056 C 
ATOM      9  C   LIG    1       -2.692  -5.211  -2.506  0.00  0.00    -0.024 A 
ATOM     10  C   LIG    1       -1.816  -4.132  -2.532  0.00  0.00    +0.009 A 
BRANCH   4  11
ATOM     11  C   LIG    1       -3.494  -5.520   1.170  0.00  0.00    +0.243 C 
ATOM     12  O   LIG    1       -3.102  -5.025   2.247  0.00  0.00    -0.270 OA
ATOM     13  N   LIG    1       -4.245  -6.651   1.167  0.00  0.00    -0.325 N 
ATOM     14  H   LIG    1       -4.472  -7.103   2.044  0.00  0.00    +0.145 HD
ATOM     15  H   LIG    1       -4.514  -7.069   0.282  0.00  0.00    +0.145 HD
ENDBRANCH   4  11
BRANCH   6  16
ATOM     16  C   LIG    1       -5.750  -5.477  -1.858  0.00  0.00    +0.107 C 
BRANCH  16  17
ATOM     17  C   LIG    1       -7.108  -6.146  -1.607  0.00  0.00    +0.046 C 
BRANCH  17  18
ATOM     18  C   LIG    1       -7.340  -6.559  -0.160  0.00  0.00    +0.157 C 
BRANCH  18  19
ATOM     19  O   LIG    1       -8.667  -7.059  -0.007  0.00  0.00    -0.395 OA
ATOM     20  H   LIG    1       -8.684  -7.957  -0.380  0.00  0.00    +0.209 HD
ENDBRANCH  18  19
ENDBRANCH  17  18
ENDBRANCH  16  17
ENDBRANCH   6  16
ENDBRANCH   1   2
BRANCH   1  22
ATOM     21  C   LIG    1        0.986  -0.489  -2.042  0.00  0.00    +0.024 C 
ATOM     22  C   LIG    1        0.534  -1.963  -1.910  0.00  0.00    +0.055 C 
BRANCH  22  23
ATOM     23  N   LIG    1        1.516  -2.635  -1.044  0.00  0.00    -0.310 NA
ATOM     24  H   LIG    1        2.467  -2.437  -1.359  0.00  0.00    +0.122 HD
BRANCH  23  25
ATOM     25  C   LIG    1        1.357  -4.090  -0.985  0.00  0.00    +0.122 C 
BRANCH  25  26
ATOM     26  C   LIG    1        2.370  -4.758  -0.054  0.00  0.00    +0.244 C 
BRANCH  26  27
ATOM     27  O   LIG    1        3.725  -4.550  -0.466  0.00  0.00    -0.487 OA
BRANCH  27  28
ATOM     28  C   LIG    1        4.665  -4.677   0.539  0.00  0.00    +0.162 A 
ATOM     29  C   LIG    1        4.535  -5.440   1.716  0.00  0.00    +0.162 A 
ATOM     30  C   LIG    1        5.565  -5.443   2.665  0.00  0.00    +0.049 A 
ATOM     31  C   LIG    1        6.699  -4.660   2.485  0.00  0.00    +0.004 A 
ATOM     32  C   LIG    1        6.847  -3.921   1.317  0.00  0.00    +0.004 A 
ATOM     33  C   LIG    1        5.845  -3.946   0.339  0.00  0.00    +0.049 A 
BRANCH  29  34
ATOM     34  O   LIG    1        3.398  -6.179   1.907  0.00  0.00    -0.479 OA
BRANCH  34  35
ATOM     35  C   LIG    1        2.935  -6.333   3.255  0.00  0.00    +0.342 C 
BRANCH  35  36
ATOM     36  C   LIG    1        2.770  -5.061   4.097  0.00  0.00    +0.424 C 
ATOM     37  F   LIG    1        3.611  -5.098   5.162  0.00  0.00    -0.167 F 
ATOM     38  F   LIG    1        1.513  -4.970   4.590  0.00  0.00    -0.167 F 
ATOM     39  F   LIG    1        3.018  -3.917   3.428  0.00  0.00    -0.167 F 
ENDBRANCH  35  36
ENDBRANCH  34  35
ENDBRANCH  29  34
ENDBRANCH  27  28
ENDBRANCH  26  27
ENDBRANCH  25  26
ENDBRANCH  23  25
ENDBRANCH  22  23
ENDBRANCH   1  22
TORSDOF 15
