REMARK  Name = *****
REMARK                            x       y       z     vdW  Elec       q    Type
REMARK                         _______ _______ _______ _____ _____    ______ ____
ROOT
ATOM      1  N   LIG    1        3.744  -0.458   0.350  0.00  0.00    -0.290 NA
ENDROOT
BRANCH   1   2
ATOM      2  C   LIG    1        4.764   0.579   0.679  0.00  0.00    +0.100 C 
BRANCH   2   3
ATOM      3  C   LIG    1        6.083   0.677  -0.178  0.00  0.00    +0.101 C 
BRANCH   3   4
ATOM      4  N   LIG    1        7.065   1.719   0.254  0.00  0.00    -0.281 NA
BRANCH   4   5
ATOM      5  C   LIG    1        6.436   3.053   0.384  0.00  0.00    +0.206 C 
BRANCH   5   6
ATOM      6  C   LIG    1        7.389   4.153   0.837  0.00  0.00    +0.319 C 
ATOM      7  O   LIG    1        8.361   4.540   0.217  0.00  0.00    -0.250 OA
BRANCH   6   8
ATOM      8  O   LIG    1        7.014   4.743   1.994  0.00  0.00    -0.480 OA
ATOM      9  H   LIG    1        7.674   5.447   2.161  0.00  0.00    +0.295 HD
ENDBRANCH   6   8
ENDBRANCH   5   6
ENDBRANCH   4   5
BRANCH   4  10
ATOM     10  C   LIG    1        8.311   1.695  -0.571  0.00  0.00    +0.206 C 
BRANCH  10  11
ATOM     11  C   LIG    1        8.139   2.046  -2.039  0.00  0.00    +0.319 C 
ATOM     12  O   LIG    1        7.991   1.213  -2.937  0.00  0.00    -0.250 OA
BRANCH  11  13
ATOM     13  O   LIG    1        8.176   3.376  -2.309  0.00  0.00    -0.480 OA
ATOM     14  H   LIG    1        8.391   3.937  -1.525  0.00  0.00    +0.295 HD
ENDBRANCH  11  13
ENDBRANCH  10  11
ENDBRANCH   4  10
ENDBRANCH   3   4
ENDBRANCH   2   3
ENDBRANCH   1   2
BRANCH   1  15
ATOM     15  C   LIG    1        4.215  -1.853   0.546  0.00  0.00    +0.100 C 
BRANCH  15  16
ATOM     16  C   LIG    1        4.684  -2.201   1.997  0.00  0.00    +0.101 C 
BRANCH  16  17
ATOM     17  N   LIG    1        5.105  -3.587   2.299  0.00  0.00    -0.281 NA
BRANCH  17  18
ATOM     18  C   LIG    1        5.707  -3.816   3.646  0.00  0.00    +0.206 C 
BRANCH  18  19
ATOM     19  C   LIG    1        4.845  -3.668   4.904  0.00  0.00    +0.319 C 
ATOM     20  O   LIG    1        4.955  -4.425   5.864  0.00  0.00    -0.250 OA
BRANCH  19  21
ATOM     21  O   LIG    1        4.051  -2.586   4.997  0.00  0.00    -0.480 OA
ATOM     22  H   LIG    1        4.244  -1.900   4.343  0.00  0.00    +0.295 HD
ENDBRANCH  19  21
ENDBRANCH  18  19
ENDBRANCH  17  18
BRANCH  17  23
ATOM     23  C   LIG    1        4.117  -4.621   1.913  0.00  0.00    +0.206 C 
BRANCH  23  24
ATOM     24  C   LIG    1        4.582  -6.057   2.157  0.00  0.00    +0.319 C 
ATOM     25  O   LIG    1        4.047  -6.859   2.901  0.00  0.00    -0.250 OA
BRANCH  24  26
ATOM     26  O   LIG    1        5.696  -6.412   1.479  0.00  0.00    -0.480 OA
ATOM     27  H   LIG    1        5.869  -7.328   1.786  0.00  0.00    +0.295 HD
ENDBRANCH  24  26
ENDBRANCH  23  24
ENDBRANCH  17  23
ENDBRANCH  16  17
ENDBRANCH  15  16
ENDBRANCH   1  15
BRANCH   1  28
ATOM     28  C   LIG    1        3.182  -0.206  -1.012  0.00  0.00    +0.205 C 
BRANCH  28  30
ATOM     29  O   LIG    1        1.800  -2.269  -1.167  0.00  0.00    -0.250 OA
ATOM     30  C   LIG    1        2.030  -1.127  -1.460  0.00  0.00    +0.319 C 
BRANCH  30  31
ATOM     31  O   LIG    1        1.256  -0.523  -2.413  0.00  0.00    -0.480 OA
ATOM     32  H   LIG    1        0.627  -1.234  -2.663  0.00  0.00    +0.295 HD
ENDBRANCH  30  31
ENDBRANCH  28  30
ENDBRANCH   1  28
TORSDOF 21
