REMARK  Name = *****
REMARK                            x       y       z     vdW  Elec       q    Type
REMARK                         _______ _______ _______ _____ _____    ______ ____
ROOT
ATOM      1  C   LIG    1        4.343  -4.698  -2.320  0.00  0.00    +0.065 C 
ENDROOT
BRANCH   1   5
ATOM      2  C   LIG    1        3.640  -0.603  -0.901  0.00  0.00    +0.120 A 
ATOM      3  C   LIG    1        4.106  -1.597  -0.034  0.00  0.00    +0.046 A 
ATOM      4  C   LIG    1        4.296  -2.897  -0.482  0.00  0.00    +0.007 A 
ATOM      5  C   LIG    1        4.049  -3.259  -1.806  0.00  0.00    -0.040 A 
ATOM      6  C   LIG    1        3.530  -2.269  -2.667  0.00  0.00    +0.007 A 
ATOM      7  C   LIG    1        3.319  -0.958  -2.209  0.00  0.00    +0.046 A 
BRANCH   2   9
ATOM      8  C   LIG    1        4.324   1.144   0.526  0.00  0.00    +0.277 C 
ATOM      9  O   LIG    1        3.462   0.698  -0.522  0.00  0.00    -0.495 OA
ENDBRANCH   2   9
ENDBRANCH   1   5
BRANCH   1  10
ATOM     10  C   LIG    1        3.251  -5.718  -1.789  0.00  0.00    +0.074 C 
ATOM     11  C   LIG    1        1.815  -5.307  -2.230  0.00  0.00    +0.035 C 
ATOM     12  C   LIG    1        1.562  -5.501  -3.728  0.00  0.00    +0.003 C 
ATOM     13  C   LIG    1        1.835  -6.935  -4.173  0.00  0.00    +0.000 C 
ATOM     14  C   LIG    1        3.204  -7.423  -3.720  0.00  0.00    +0.003 C 
ATOM     15  C   LIG    1        3.426  -7.189  -2.231  0.00  0.00    +0.035 C 
BRANCH  10  16
ATOM     16  O   LIG    1        3.259  -5.739  -0.350  0.00  0.00    -0.388 OA
ATOM     17  H   LIG    1        4.041  -6.248  -0.073  0.00  0.00    +0.210 HD
ENDBRANCH  10  16
ENDBRANCH   1  10
BRANCH   1  18
ATOM     18  C   LIG    1        5.856  -4.968  -1.982  0.00  0.00    +0.094 C 
BRANCH  18  19
ATOM     19  N   LIG    1        6.500  -6.240  -2.363  0.00  0.00    -0.308 NA
ATOM     20  C   LIG    1        7.817  -6.329  -1.703  0.00  0.00    +0.104 C 
ATOM     21  C   LIG    1        6.705  -6.379  -3.805  0.00  0.00    +0.104 C 
ENDBRANCH  18  19
ENDBRANCH   1  18
TORSDOF 6
