REMARK  Name = *****
REMARK                            x       y       z     vdW  Elec       q    Type
REMARK                         _______ _______ _______ _____ _____    ______ ____
ROOT
ATOM      1  C   LIG    1       19.206   2.059   2.357  0.00  0.00    +0.061 A 
ATOM      2  C   LIG    1       18.906   1.980   0.975  0.00  0.00    +0.038 A 
ATOM      3  C   LIG    1       17.556   1.917   0.639  0.00  0.00    +0.042 A 
ATOM      4  N   LIG    1       17.058   1.752  -0.639  0.00  0.00    -0.281 N 
ATOM      5  H   LIG    1       17.603   1.668  -1.482  0.00  0.00    +0.155 HD
ATOM      6  C   LIG    1       15.689   1.557  -0.630  0.00  0.00    +0.251 C 
ATOM      7  C   LIG    1       15.261   1.627   0.824  0.00  0.00    +0.068 C 
ATOM      8  C   LIG    1       14.002   1.288   1.214  0.00  0.00    +0.051 C 
ATOM      9  O   LIG    1       15.044   1.222  -1.600  0.00  0.00    -0.270 OA
ATOM     10  C   LIG    1       16.512   1.936   1.577  0.00  0.00    +0.010 A 
ATOM     11  C   LIG    1       16.828   2.204   2.897  0.00  0.00    +0.011 A 
ATOM     12  C   LIG    1       18.182   2.248   3.273  0.00  0.00    +0.015 A 
ENDROOT
BRANCH   8  13
ATOM     13  C   LIG    1       13.741   1.074   2.666  0.00  0.00    -0.003 A 
ATOM     14  C   LIG    1       13.901  -0.202   3.235  0.00  0.00    +0.010 A 
ATOM     15  C   LIG    1       13.790  -0.388   4.617  0.00  0.00    +0.001 A 
ATOM     16  C   LIG    1       13.631   0.715   5.451  0.00  0.00    +0.000 A 
ATOM     17  C   LIG    1       13.442   1.980   4.895  0.00  0.00    +0.001 A 
ATOM     18  C   LIG    1       13.412   2.145   3.506  0.00  0.00    +0.010 A 
ENDBRANCH   8  13
BRANCH   1  19
ATOM     19  C   LIG    1       20.638   1.801   2.766  0.00  0.00    +0.339 C 
ATOM     20  O   LIG    1       21.463   1.210   2.123  0.00  0.00    -0.245 OA
BRANCH  19  22
ATOM     21  C   LIG    1       21.979   2.015   4.710  0.00  0.00    +0.280 C 
ATOM     22  O   LIG    1       20.760   2.334   4.005  0.00  0.00    -0.464 OA
ENDBRANCH  19  22
ENDBRANCH   1  19
BRANCH   8  23
ATOM     23  N   LIG    1       12.875   1.066   0.419  0.00  0.00    -0.313 N 
ATOM     24  H   LIG    1       12.367   1.901   0.148  0.00  0.00    +0.152 HD
BRANCH  23  25
ATOM     25  C   LIG    1       12.454  -0.144  -0.180  0.00  0.00    +0.032 A 
ATOM     26  C   LIG    1       13.335  -1.206  -0.390  0.00  0.00    +0.025 A 
ATOM     27  C   LIG    1       12.898  -2.485  -0.788  0.00  0.00    +0.025 A 
ATOM     28  C   LIG    1       11.544  -2.761  -0.977  0.00  0.00    +0.036 A 
ATOM     29  C   LIG    1       10.652  -1.679  -0.871  0.00  0.00    +0.025 A 
ATOM     30  C   LIG    1       11.100  -0.390  -0.464  0.00  0.00    +0.025 A 
BRANCH  28  31
ATOM     31  N   LIG    1       11.072  -4.108  -1.246  0.00  0.00    -0.273 N 
ATOM     32  C   LIG    1       11.414  -5.171  -0.368  0.00  0.00    +0.234 C 
ATOM     33  O   LIG    1       12.065  -4.997   0.669  0.00  0.00    -0.274 OA
ATOM     34  C   LIG    1       10.906  -4.427  -2.657  0.00  0.00    +0.138 C 
BRANCH  32  35
ATOM     35  C   LIG    1       10.840  -6.615  -0.664  0.00  0.00    +0.181 C 
BRANCH  35  36
ATOM     36  N   LIG    1       11.671  -7.424  -1.592  0.00  0.00    -0.292 NA
ATOM     37  C   LIG    1       13.051  -7.636  -1.125  0.00  0.00    +0.100 C 
ATOM     38  C   LIG    1       13.283  -8.775  -0.104  0.00  0.00    +0.099 C 
ATOM     39  N   LIG    1       12.707 -10.088  -0.433  0.00  0.00    -0.303 NA
ATOM     40  C   LIG    1       13.599 -10.910  -1.244  0.00  0.00    +0.105 C 
ATOM     41  C   LIG    1       11.364  -9.970  -1.018  0.00  0.00    +0.099 C 
ATOM     42  C   LIG    1       11.081  -8.742  -1.935  0.00  0.00    +0.100 C 
ENDBRANCH  35  36
ENDBRANCH  32  35
ENDBRANCH  28  31
ENDBRANCH  23  25
ENDBRANCH   8  23
TORSDOF 8
