REMARK  Name = *****
REMARK                            x       y       z     vdW  Elec       q    Type
REMARK                         _______ _______ _______ _____ _____    ______ ____
ROOT
ATOM      1  N   LIG    1        4.304   0.649   1.230  0.00  0.00    -0.119 NA
ATOM      2  C   LIG    1        5.192   0.850   2.150  0.00  0.00    +0.159 C 
ENDROOT
BRANCH   2   3
ATOM      3  C   LIG    1        6.633   0.581   1.946  0.00  0.00    +0.033 A 
ATOM      4  C   LIG    1        7.398   0.163   3.051  0.00  0.00    +0.051 A 
ATOM      5 CL   LIG    1        6.728  -0.053   4.634  0.00  0.00    -0.083 Cl
ATOM      6  C   LIG    1        8.758  -0.136   2.905  0.00  0.00    +0.021 A 
ATOM      7  C   LIG    1        9.375  -0.008   1.665  0.00  0.00    +0.003 A 
ATOM      8  C   LIG    1        8.631   0.419   0.568  0.00  0.00    +0.021 A 
ATOM      9  C   LIG    1        7.265   0.710   0.698  0.00  0.00    +0.051 A 
ATOM     10 CL   LIG    1        6.473   1.268  -0.735  0.00  0.00    -0.083 Cl
ENDBRANCH   2   3
BRANCH   1  11
ATOM     11  N   LIG    1        3.017   0.879   1.634  0.00  0.00    -0.155 N 
ATOM     12  H   LIG    1        2.769   0.813   2.619  0.00  0.00    +0.292 HD
BRANCH  11  15
ATOM     13  N   LIG    1        0.738   0.587   1.294  0.00  0.00    -0.128 NA
ATOM     14  H   LIG    1        0.091   0.530   0.504  0.00  0.00    +0.306 HD
ATOM     15  C   LIG    1        1.925   0.741   0.828  0.00  0.00    +0.400 C 
BRANCH  15  16
ATOM     16  N   LIG    1        2.210   0.764  -0.493  0.00  0.00    -0.288 N 
ATOM     17  H   LIG    1        3.207   0.598  -0.623  0.00  0.00    +0.255 HD
ATOM     18  H   LIG    1        1.632   0.178  -1.077  0.00  0.00    +0.255 HD
ENDBRANCH  15  16
ENDBRANCH  11  15
ENDBRANCH   1  11
TORSDOF 4
