REMARK  Name = *****
REMARK                            x       y       z     vdW  Elec       q    Type
REMARK                         _______ _______ _______ _____ _____    ______ ____
ROOT
ATOM      1  C   LIG    1        1.487   2.636   0.494  0.00  0.00    +0.006 A 
ATOM      2  C   LIG    1        1.368   3.898   0.995  0.00  0.00    +0.028 A 
ATOM      3  C   LIG    1        0.439   4.181   2.101  0.00  0.00    +0.154 A 
ATOM      4  C   LIG    1        0.212   5.438   2.528  0.00  0.00    +0.108 C 
ATOM      5  C   LIG    1        0.905   6.598   1.885  0.00  0.00    +0.210 C 
ATOM      6  C   LIG    1        1.944   6.284   0.858  0.00  0.00    +0.066 C 
ATOM      7 BR   LIG    1        2.940   7.693   0.138  0.00  0.00    -0.046 Br
ATOM      8  O   LIG    1        0.641   7.760   2.186  0.00  0.00    -0.285 OA
ATOM      9 BR   LIG    1       -0.979   5.831   3.926  0.00  0.00    -0.043 Br
ATOM     10  O   LIG    1       -0.213   3.130   2.727  0.00  0.00    -0.452 OA
ATOM     11  C   LIG    1       -0.180   1.871   2.190  0.00  0.00    +0.154 A 
ATOM     12  C   LIG    1       -0.992   0.887   2.782  0.00  0.00    +0.103 A 
ATOM     13 BR   LIG    1       -2.072   1.321   4.291  0.00  0.00    -0.043 Br
ATOM     14  C   LIG    1       -1.013  -0.406   2.256  0.00  0.00    +0.148 A 
ATOM     15  C   LIG    1       -0.219  -0.710   1.151  0.00  0.00    +0.061 A 
ATOM     16 BR   LIG    1       -0.225  -2.451   0.398  0.00  0.00    -0.046 Br
ATOM     17  C   LIG    1        0.595   0.268   0.573  0.00  0.00    +0.031 A 
ATOM     18  C   LIG    1        2.148   5.018   0.463  0.00  0.00    +0.031 C 
ATOM     19  C   LIG    1        0.624   1.575   1.087  0.00  0.00    +0.028 A 
ENDROOT
BRANCH   1  21
ATOM     20  C   LIG    1        3.768   1.976  -0.422  0.00  0.00    +0.088 A 
ATOM     21  C   LIG    1        2.421   2.351  -0.650  0.00  0.00    +0.019 A 
ATOM     22  C   LIG    1        1.955   2.455  -1.982  0.00  0.00    +0.069 A 
ATOM     23 CL   LIG    1        0.300   2.921  -2.274  0.00  0.00    -0.081 Cl
ATOM     24  C   LIG    1        2.815   2.188  -3.063  0.00  0.00    +0.080 A 
ATOM     25 CL   LIG    1        2.227   2.328  -4.697  0.00  0.00    -0.081 Cl
ATOM     26  C   LIG    1        4.148   1.810  -2.823  0.00  0.00    +0.080 A 
ATOM     27 CL   LIG    1        5.217   1.488  -4.160  0.00  0.00    -0.081 Cl
ATOM     28  C   LIG    1        4.624   1.699  -1.502  0.00  0.00    +0.075 A 
ATOM     29 CL   LIG    1        6.268   1.211  -1.205  0.00  0.00    -0.081 Cl
BRANCH  20  31
ATOM     30  O   LIG    1        3.670   1.143   1.794  0.00  0.00    -0.245 OA
ATOM     31  C   LIG    1        4.247   1.833   0.975  0.00  0.00    +0.339 C 
BRANCH  31  32
ATOM     32  O   LIG    1        5.300   2.619   1.272  0.00  0.00    -0.477 OA
ATOM     33  H   LIG    1        5.820   2.972   0.524  0.00  0.00    +0.295 HD
ENDBRANCH  31  32
ENDBRANCH  20  31
ENDBRANCH   1  21
BRANCH  14  34
ATOM     34  O   LIG    1       -1.815  -1.359   2.826  0.00  0.00    -0.504 OA
ATOM     35  H   LIG    1       -1.688  -2.196   2.344  0.00  0.00    +0.292 HD
ENDBRANCH  14  34
TORSDOF 4
