REMARK  Name = *****
REMARK                            x       y       z     vdW  Elec       q    Type
REMARK                         _______ _______ _______ _____ _____    ______ ____
ROOT
ATOM      1  C   LIG    1        3.639   0.067  -0.929  0.00  0.00    +0.264 C 
ATOM      2  C   LIG    1        4.006  -1.282  -1.642  0.00  0.00    +0.257 C 
ATOM      3  O   LIG    1        3.640  -2.377  -1.216  0.00  0.00    -0.272 OA
ATOM      4  N   LIG    1        4.782  -1.185  -2.806  0.00  0.00    -0.288 N 
ATOM      5  C   LIG    1        6.105  -0.631  -2.565  0.00  0.00    +0.133 C 
ATOM      6  C   LIG    1        4.635  -2.289  -3.832  0.00  0.00    +0.187 C 
ATOM      7  C   LIG    1        5.814  -2.445  -4.883  0.00  0.00    +0.329 C 
ATOM      8  O   LIG    1        5.658  -2.594  -6.068  0.00  0.00    -0.249 OA
ATOM      9  O   LIG    1        7.050  -2.465  -4.327  0.00  0.00    -0.450 OA
ATOM     10  C   LIG    1        8.168  -2.497  -5.229  0.00  0.00    +0.264 C 
ATOM     11  C   LIG    1        8.172  -1.308  -6.279  0.00  0.00    +0.257 C 
ATOM     12  O   LIG    1        8.586  -1.430  -7.432  0.00  0.00    -0.272 OA
ATOM     13  N   LIG    1        7.775  -0.037  -5.790  0.00  0.00    -0.288 N 
ATOM     14  C   LIG    1        8.777   0.498  -4.870  0.00  0.00    +0.133 C 
ATOM     15  C   LIG    1        7.250   0.954  -6.822  0.00  0.00    +0.187 C 
ATOM     16  C   LIG    1        6.749   2.354  -6.307  0.00  0.00    +0.329 C 
ATOM     17  O   LIG    1        6.485   3.275  -7.062  0.00  0.00    -0.249 OA
ATOM     18  O   LIG    1        6.677   2.454  -4.951  0.00  0.00    -0.450 OA
ATOM     19  C   LIG    1        6.585   3.761  -4.330  0.00  0.00    +0.264 C 
ATOM     20  C   LIG    1        5.189   4.448  -4.351  0.00  0.00    +0.257 C 
ATOM     21  O   LIG    1        4.843   5.183  -5.276  0.00  0.00    -0.272 OA
ATOM     22  N   LIG    1        4.460   4.409  -3.151  0.00  0.00    -0.288 N 
ATOM     23  C   LIG    1        4.045   5.721  -2.672  0.00  0.00    +0.133 C 
ATOM     24  C   LIG    1        3.481   3.313  -2.869  0.00  0.00    +0.187 C 
ATOM     25  C   LIG    1        4.131   2.132  -2.096  0.00  0.00    +0.329 C 
ATOM     26  O   LIG    1        5.271   2.174  -1.640  0.00  0.00    -0.249 OA
ATOM     27  O   LIG    1        3.244   1.118  -1.849  0.00  0.00    -0.450 OA
ENDROOT
BRANCH   1  29
ATOM     28  C   LIG    1        2.187   1.086   0.920  0.00  0.00    +0.011 C 
ATOM     29  C   LIG    1        2.491  -0.174   0.104  0.00  0.00    +0.033 C 
ATOM     30  C   LIG    1        1.183  -0.668  -0.529  0.00  0.00    +0.011 C 
ENDBRANCH   1  29
BRANCH   6  31
ATOM     31  C   LIG    1        3.256  -2.195  -4.617  0.00  0.00    +0.014 C 
ATOM     32  C   LIG    1        3.012  -3.394  -5.550  0.00  0.00    +0.009 C 
ATOM     33  C   LIG    1        1.998  -2.069  -3.747  0.00  0.00    +0.009 C 
ENDBRANCH   6  31
BRANCH  10  34
ATOM     34  C   LIG    1        8.380  -3.904  -5.870  0.00  0.00    +0.033 C 
ATOM     35  C   LIG    1        9.739  -4.007  -6.577  0.00  0.00    +0.011 C 
ATOM     36  C   LIG    1        8.293  -5.050  -4.849  0.00  0.00    +0.011 C 
ENDBRANCH  10  34
BRANCH  15  37
ATOM     37  C   LIG    1        6.166   0.336  -7.782  0.00  0.00    +0.014 C 
ATOM     38  C   LIG    1        4.838   0.085  -7.092  0.00  0.00    +0.009 C 
ATOM     39  C   LIG    1        5.877   1.165  -9.043  0.00  0.00    +0.009 C 
ENDBRANCH  15  37
BRANCH  19  40
ATOM     40  C   LIG    1        7.668   4.777  -4.843  0.00  0.00    +0.033 C 
ATOM     41  C   LIG    1        7.679   6.076  -4.026  0.00  0.00    +0.011 C 
ATOM     42  C   LIG    1        9.080   4.188  -4.859  0.00  0.00    +0.011 C 
ENDBRANCH  19  40
BRANCH  24  43
ATOM     43  C   LIG    1        2.551   2.906  -4.043  0.00  0.00    +0.014 C 
ATOM     44  C   LIG    1        1.801   4.080  -4.688  0.00  0.00    +0.009 C 
ATOM     45  C   LIG    1        3.257   2.105  -5.119  0.00  0.00    +0.009 C 
ENDBRANCH  24  43
TORSDOF 6
