REMARK  Name = *****
REMARK                            x       y       z     vdW  Elec       q    Type
REMARK                         _______ _______ _______ _____ _____    ______ ____
ROOT
ATOM      1  C   LIG    1        2.717  -2.520   0.264  0.00  0.00    -0.002 A 
ATOM      2  C   LIG    1        1.991  -2.718   1.442  0.00  0.00    +0.012 A 
ATOM      3  C   LIG    1        1.649  -4.005   1.861  0.00  0.00    +0.025 A 
ATOM      4  C   LIG    1        1.996  -5.126   1.103  0.00  0.00    +0.048 A 
ATOM      5  C   LIG    1        2.764  -4.934  -0.051  0.00  0.00    +0.025 A 
ATOM      6  C   LIG    1        3.109  -3.643  -0.477  0.00  0.00    +0.012 A 
ENDROOT
BRANCH   1   9
ATOM      7  C   LIG    1        1.212   0.483   0.056  0.00  0.00    +0.014 C 
ATOM      8  C   LIG    1        2.592   0.070   0.568  0.00  0.00    +0.045 C 
ATOM      9  C   LIG    1        3.079  -1.143  -0.217  0.00  0.00    +0.070 C 
ATOM     10  N   LIG    1        3.750  -1.007  -1.326  0.00  0.00    -0.184 NA
ATOM     11  N   LIG    1        4.078   0.253  -1.734  0.00  0.00    -0.207 N 
ATOM     12  H   LIG    1        4.461   0.345  -2.670  0.00  0.00    +0.177 HD
ATOM     13  C   LIG    1        4.041   1.389  -0.965  0.00  0.00    +0.233 C 
ATOM     14  O   LIG    1        4.402   2.482  -1.393  0.00  0.00    -0.274 OA
ATOM     15  C   LIG    1        3.616   1.184   0.458  0.00  0.00    +0.107 C 
ENDBRANCH   1   9
BRANCH   4  16
ATOM     16  N   LIG    1        1.653  -6.435   1.520  0.00  0.00    -0.236 N 
ATOM     17  H   LIG    1        1.785  -7.108   0.759  0.00  0.00    +0.174 HD
BRANCH  16  18
ATOM     18  N   LIG    1        0.528  -6.532   2.298  0.00  0.00    -0.160 NA
ATOM     19  C   LIG    1        0.155  -7.692   2.745  0.00  0.00    +0.234 C 
BRANCH  19  20
ATOM     20  C   LIG    1       -1.052  -7.674   3.522  0.00  0.00    +0.132 C 
ATOM     21  N   LIG    1       -2.029  -7.680   4.147  0.00  0.00    -0.189 NA
ENDBRANCH  19  20
BRANCH  19  22
ATOM     22  C   LIG    1        0.906  -8.880   2.469  0.00  0.00    +0.132 C 
ATOM     23  N   LIG    1        1.512  -9.843   2.220  0.00  0.00    -0.189 NA
ENDBRANCH  19  22
ENDBRANCH  16  18
ENDBRANCH   4  16
TORSDOF 5
