REMARK  Name = *****
REMARK                            x       y       z     vdW  Elec       q    Type
REMARK                         _______ _______ _______ _____ _____    ______ ____
ROOT
ATOM      1  C   LIG    1       -1.341  -2.520   2.699  0.00  0.00    +0.186 C 
ATOM      2  O   LIG    1       -1.706  -1.383   3.497  0.00  0.00    -0.459 OA
ATOM      3  C   LIG    1       -2.450  -0.419   2.881  0.00  0.00    +0.328 C 
ATOM      4  O   LIG    1       -2.791  -0.449   1.719  0.00  0.00    -0.249 OA
ATOM      5  C   LIG    1       -2.830   0.709   3.858  0.00  0.00    +0.185 C 
ATOM      6  N   LIG    1       -4.116   0.575   4.598  0.00  0.00    -0.281 N 
ATOM      7  C   LIG    1       -4.287   1.492   5.735  0.00  0.00    +0.109 C 
ATOM      8  C   LIG    1       -3.081   1.613   6.654  0.00  0.00    +0.019 C 
ATOM      9  C   LIG    1       -1.843   1.974   5.857  0.00  0.00    +0.004 C 
ATOM     10  C   LIG    1       -5.356   0.313   3.953  0.00  0.00    +0.288 C 
ATOM     11  O   LIG    1       -6.432   0.716   4.397  0.00  0.00    -0.267 OA
ATOM     12  C   LIG    1       -5.444  -0.483   2.665  0.00  0.00    +0.276 C 
ATOM     13  O   LIG    1       -5.477   0.137   1.604  0.00  0.00    -0.281 OA
ATOM     14  C   LIG    1       -5.673  -2.018   2.814  0.00  0.00    +0.240 C 
ATOM     15  O   LIG    1       -4.722  -2.749   1.985  0.00  0.00    -0.339 OA
ATOM     16  C   LIG    1       -5.279  -3.230   0.758  0.00  0.00    +0.125 C 
ATOM     17  C   LIG    1       -6.302  -4.314   1.071  0.00  0.00    +0.032 C 
ATOM     18  C   LIG    1       -7.290  -3.851   2.149  0.00  0.00    +0.011 C 
ATOM     19  C   LIG    1       -4.259  -3.564  -0.355  0.00  0.00    +0.067 C 
ATOM     20  C   LIG    1       -2.989  -4.463  -0.239  0.00  0.00    +0.146 C 
ATOM     21  C   LIG    1       -3.138  -5.974  -0.113  0.00  0.00    -0.044 C 
ATOM     22  C   LIG    1       -4.284  -6.584  -0.888  0.00  0.00    +0.041 C 
ATOM     23  C   LIG    1       -2.267  -6.825   0.483  0.00  0.00    +0.001 C 
ATOM     24  C   LIG    1       -1.000  -6.600   1.175  0.00  0.00    +0.000 C 
ATOM     25  C   LIG    1       -0.875  -7.049   2.434  0.00  0.00    -0.000 C 
ATOM     26  C   LIG    1        0.229  -7.098   3.384  0.00  0.00    -0.004 C 
ATOM     27  C   LIG    1       -0.048  -7.349   4.683  0.00  0.00    -0.024 C 
ATOM     28  C   LIG    1        0.857  -7.648   5.853  0.00  0.00    +0.009 C 
ATOM     29  C   LIG    1        0.949  -6.419   6.764  0.00  0.00    +0.012 C 
ATOM     30  C   LIG    1        0.383  -8.852   6.739  0.00  0.00    +0.018 C 
ATOM     31  C   LIG    1       -0.272 -10.023   5.986  0.00  0.00    +0.056 C 
ATOM     32  C   LIG    1        0.124 -11.382   6.577  0.00  0.00    +0.015 C 
ATOM     33  C   LIG    1       -1.811  -9.953   6.037  0.00  0.00    +0.167 C 
ATOM     34  O   LIG    1       -2.401 -10.039   7.124  0.00  0.00    -0.294 OA
ATOM     35  C   LIG    1       -2.641  -9.770   4.739  0.00  0.00    +0.216 C 
ATOM     36  C   LIG    1       -3.550  -8.492   5.037  0.00  0.00    +0.176 C 
ATOM     37  C   LIG    1       -4.012  -7.546   3.924  0.00  0.00    -0.045 C 
ATOM     38  C   LIG    1       -4.766  -8.213   2.796  0.00  0.00    +0.041 C 
ATOM     39  C   LIG    1       -3.857  -6.190   3.918  0.00  0.00    -0.015 C 
ATOM     40  C   LIG    1       -3.221  -5.297   4.973  0.00  0.00    +0.075 C 
ATOM     41  C   LIG    1       -4.217  -5.114   6.126  0.00  0.00    +0.019 C 
ATOM     42  C   LIG    1       -2.733  -3.893   4.476  0.00  0.00    +0.143 C 
ATOM     43  O   LIG    1       -3.199  -2.857   4.965  0.00  0.00    -0.297 OA
ATOM     44  C   LIG    1       -7.159  -2.344   2.438  0.00  0.00    +0.054 C 
ATOM     45  C   LIG    1       -8.184  -1.930   3.502  0.00  0.00    +0.013 C 
ATOM     46  C   LIG    1       -1.624   0.895   4.817  0.00  0.00    +0.034 C 
ATOM     47  C   LIG    1       -1.544  -3.823   3.518  0.00  0.00    +0.119 C 
ENDROOT
BRANCH   1  48
ATOM     48  C   LIG    1        0.141  -2.303   2.229  0.00  0.00    +0.027 C 
ATOM     49  C   LIG    1        0.677  -3.488   1.433  0.00  0.00    +0.011 C 
BRANCH  48  50
ATOM     50  C   LIG    1        0.311  -0.983   1.419  0.00  0.00    +0.010 C 
BRANCH  50  55
ATOM     51  C   LIG    1        1.528   2.025   1.048  0.00  0.00    +0.147 C 
ATOM     52  C   LIG    1        2.455   2.064   2.284  0.00  0.00    +0.143 C 
ATOM     53  C   LIG    1        2.433   0.757   3.078  0.00  0.00    +0.034 C 
ATOM     54  C   LIG    1        2.713  -0.463   2.203  0.00  0.00    +0.006 C 
ATOM     55  C   LIG    1        1.749  -0.574   1.012  0.00  0.00    -0.008 C 
ATOM     56  C   LIG    1        1.766   0.752   0.207  0.00  0.00    +0.037 C 
BRANCH  51  58
ATOM     57  C   LIG    1       -0.257   3.232   2.106  0.00  0.00    +0.194 C 
ATOM     58  O   LIG    1        0.135   2.077   1.380  0.00  0.00    -0.377 OA
ENDBRANCH  51  58
BRANCH  52  59
ATOM     59  O   LIG    1        3.797   2.377   1.900  0.00  0.00    -0.389 OA
ATOM     60  H   LIG    1        4.138   1.665   1.335  0.00  0.00    +0.210 HD
ENDBRANCH  52  59
ENDBRANCH  50  55
ENDBRANCH  48  50
ENDBRANCH   1  48
BRANCH  14  61
ATOM     61  O   LIG    1       -5.523  -2.516   4.129  0.00  0.00    -0.358 OA
ATOM     62  H   LIG    1       -4.610  -2.321   4.423  0.00  0.00    +0.213 HD
ENDBRANCH  14  61
BRANCH  20  63
ATOM     63  O   LIG    1       -2.214  -4.360  -1.465  0.00  0.00    -0.375 OA
ATOM     64  C   LIG    1       -1.867  -3.049  -1.884  0.00  0.00    +0.194 C 
ENDBRANCH  20  63
BRANCH  35  65
ATOM     65  O   LIG    1       -1.864  -9.662   3.559  0.00  0.00    -0.369 OA
ATOM     66  C   LIG    1       -1.250 -10.864   3.101  0.00  0.00    +0.195 C 
ENDBRANCH  35  65
BRANCH  36  67
ATOM     67  O   LIG    1       -4.755  -8.944   5.684  0.00  0.00    -0.385 OA
ATOM     68  H   LIG    1       -4.480  -9.314   6.546  0.00  0.00    +0.210 HD
ENDBRANCH  36  67
TORSDOF 9
