REMARK  Name = *****
REMARK                            x       y       z     vdW  Elec       q    Type
REMARK                         _______ _______ _______ _____ _____    ______ ____
ROOT
ATOM      1  C   LIG    1        4.793  -0.535   4.124  0.00  0.00    +0.129 C 
ATOM      2  C   LIG    1        3.716  -1.586   3.868  0.00  0.00    +0.236 C 
ATOM      3  O   LIG    1        3.927  -2.643   3.273  0.00  0.00    -0.274 OA
ATOM      4  N   LIG    1        2.450  -1.297   4.290  0.00  0.00    -0.239 N 
ATOM      5  H   LIG    1        1.754  -2.011   4.124  0.00  0.00    +0.159 HD
ATOM      6  C   LIG    1        2.135  -0.382   5.242  0.00  0.00    +0.312 C 
ATOM      7  O   LIG    1        1.062  -0.413   5.829  0.00  0.00    -0.252 OA
ATOM      8  N   LIG    1        3.096   0.523   5.563  0.00  0.00    -0.239 N 
ATOM      9  H   LIG    1        2.874   1.149   6.324  0.00  0.00    +0.159 HD
ATOM     10  C   LIG    1        4.420   0.424   5.244  0.00  0.00    +0.236 C 
ATOM     11  O   LIG    1        5.236   1.141   5.824  0.00  0.00    -0.274 OA
ENDROOT
BRANCH   1  12
ATOM     12  C   LIG    1        5.011   0.284   2.781  0.00  0.00    +0.010 C 
ATOM     13  C   LIG    1        6.192   1.271   2.859  0.00  0.00    +0.009 C 
BRANCH  12  14
ATOM     14  C   LIG    1        3.736   1.042   2.308  0.00  0.00    +0.004 C 
BRANCH  14  15
ATOM     15  C   LIG    1        3.869   1.707   0.932  0.00  0.00    -0.003 C 
ATOM     16  C   LIG    1        2.586   2.423   0.533  0.00  0.00    +0.004 C 
ENDBRANCH  14  15
ENDBRANCH  12  14
ENDBRANCH   1  12
BRANCH   1  17
ATOM     17  C   LIG    1        6.090  -1.296   4.540  0.00  0.00    +0.052 C 
BRANCH  17  19
ATOM     18  C   LIG    1        6.690  -1.917   6.903  0.00  0.00    +0.004 C 
ATOM     19  C   LIG    1        5.967  -2.132   5.795  0.00  0.00    -0.033 C 
ENDBRANCH  17  19
ENDBRANCH   1  17
TORSDOF 5
