REMARK  Name = *****
REMARK                            x       y       z     vdW  Elec       q    Type
REMARK                         _______ _______ _______ _____ _____    ______ ____
ROOT
ATOM      1  N   LIG    1        6.020   0.391  -2.089  0.00  0.00    -0.295 NA
ATOM      2  C   LIG    1        7.304   1.055  -2.444  0.00  0.00    +0.065 C 
ATOM      3  C   LIG    1        8.475   0.060  -2.553  0.00  0.00    +0.014 C 
ATOM      4  C   LIG    1        9.828   0.779  -2.669  0.00  0.00    +0.010 C 
ATOM      5  C   LIG    1        8.158  -0.934  -3.707  0.00  0.00    -0.002 C 
ATOM      6  C   LIG    1        9.276  -1.999  -3.778  0.00  0.00    +0.016 C 
ATOM      7  C   LIG    1        7.960  -0.186  -5.036  0.00  0.00    -0.034 A 
ATOM      8  C   LIG    1        7.475   1.141  -5.032  0.00  0.00    -0.042 A 
ATOM      9  C   LIG    1        7.273   1.821  -6.246  0.00  0.00    +0.007 A 
ATOM     10  C   LIG    1        7.524   1.192  -7.461  0.00  0.00    +0.045 A 
ATOM     11  C   LIG    1        7.973  -0.119  -7.468  0.00  0.00    +0.117 A 
ATOM     12  C   LIG    1        8.189  -0.810  -6.277  0.00  0.00    +0.049 A 
ATOM     13  C   LIG    1        6.823  -1.650  -3.354  0.00  0.00    +0.027 C 
ATOM     14  C   LIG    1        7.176   1.885  -3.746  0.00  0.00    +0.054 C 
ATOM     15  C   LIG    1        5.675  -0.675  -3.047  0.00  0.00    +0.086 C 
ENDROOT
BRANCH  11  16
ATOM     16  O   LIG    1        8.190  -0.708  -8.680  0.00  0.00    -0.507 OA
ATOM     17  H   LIG    1        8.478  -1.622  -8.532  0.00  0.00    +0.292 HD
ENDBRANCH  11  16
BRANCH   1  18
ATOM     18  C   LIG    1        5.973  -0.124  -0.709  0.00  0.00    +0.112 C 
BRANCH  18  21
ATOM     19  C   LIG    1        7.241   2.125   2.255  0.00  0.00    +0.038 C 
ATOM     20  C   LIG    1        7.166   0.976   1.282  0.00  0.00    -0.078 C 
ATOM     21  C   LIG    1        6.203   0.934   0.338  0.00  0.00    -0.013 C 
ATOM     22  C   LIG    1        8.242  -0.056   1.473  0.00  0.00    +0.038 C 
ENDBRANCH  18  21
ENDBRANCH   1  18
TORSDOF 3
