REMARK  Name = *****
REMARK                            x       y       z     vdW  Elec       q    Type
REMARK                         _______ _______ _______ _____ _____    ______ ____
ROOT
ATOM      1  C   LIG    1        1.090   2.269  -3.256  0.00  0.00    +0.086 C 
ATOM      2  C   LIG    1        1.372   2.187  -1.798  0.00  0.00    +0.112 A 
ATOM      3  N   LIG    1        1.151   1.067  -1.004  0.00  0.00    -0.268 N 
ATOM      4  C   LIG    1        1.535   1.424   0.270  0.00  0.00    +0.368 A 
ATOM      5  C   LIG    1        1.974   2.721   0.193  0.00  0.00    +0.217 A 
ATOM      6  N   LIG    1        1.870   3.182  -1.087  0.00  0.00    -0.234 NA
ENDROOT
BRANCH   4   7
ATOM      7  N   LIG    1        1.482   0.612   1.436  0.00  0.00    +0.100 N 
ATOM      8  O   LIG    1        1.010  -0.528   1.326  0.00  0.00    -0.575 OA
ATOM      9  O   LIG    1        1.904   1.113   2.483  0.00  0.00    +0.043 OA
ENDBRANCH   4   7
BRANCH   3  10
ATOM     10  C   LIG    1        0.662  -0.220  -1.490  0.00  0.00    +0.160 C 
BRANCH  10  11
ATOM     11  C   LIG    1       -0.860  -0.383  -1.361  0.00  0.00    +0.131 C 
ATOM     12  C   LIG    1       -1.320  -1.748  -1.863  0.00  0.00    +0.039 C 
BRANCH  11  13
ATOM     13  O   LIG    1       -1.515   0.608  -2.153  0.00  0.00    -0.390 OA
ATOM     14  H   LIG    1       -2.464   0.584  -1.932  0.00  0.00    +0.210 HD
ENDBRANCH  11  13
ENDBRANCH  10  11
ENDBRANCH   3  10
TORSDOF 4
