REMARK  Name = *****
REMARK                            x       y       z     vdW  Elec       q    Type
REMARK                         _______ _______ _______ _____ _____    ______ ____
ROOT
ATOM      1  C   LIG    1        4.342  -0.401   7.028  0.00  0.00    +0.122 A 
ATOM      2  C   LIG    1        3.329   0.013   6.177  0.00  0.00    +0.046 A 
ATOM      3  C   LIG    1        2.293  -0.867   5.828  0.00  0.00    +0.007 A 
ATOM      4  C   LIG    1        2.253  -2.194   6.284  0.00  0.00    -0.041 A 
ATOM      5  C   LIG    1        3.267  -2.585   7.167  0.00  0.00    +0.007 A 
ATOM      6  C   LIG    1        4.300  -1.707   7.523  0.00  0.00    +0.046 A 
ENDROOT
BRANCH   4   7
ATOM      7  C   LIG    1        1.135  -3.119   5.857  0.00  0.00    +0.058 C 
ATOM      8  C   LIG    1        1.344  -4.512   5.296  0.00  0.00    +0.126 C 
ATOM      9 CL   LIG    1        0.121  -5.726   5.679  0.00  0.00    -0.100 Cl
ATOM     10 CL   LIG    1        2.943  -5.199   5.060  0.00  0.00    -0.100 Cl
ATOM     11  C   LIG    1        0.943  -3.394   4.380  0.00  0.00    +0.050 C 
ENDBRANCH   4   7
BRANCH   1  12
ATOM     12  O   LIG    1        5.420   0.319   7.444  0.00  0.00    -0.475 OA
BRANCH  12  14
ATOM     13  C   LIG    1        4.622   2.680   7.445  0.00  0.00    +0.067 C 
ATOM     14  C   LIG    1        5.704   1.666   7.042  0.00  0.00    +0.200 C 
ATOM     15  C   LIG    1        6.963   2.036   7.854  0.00  0.00    +0.067 C 
BRANCH  14  16
ATOM     16  C   LIG    1        6.095   1.817   5.559  0.00  0.00    +0.348 C 
ATOM     17  O   LIG    1        6.055   2.873   4.934  0.00  0.00    -0.246 OA
BRANCH  16  18
ATOM     18  O   LIG    1        6.548   0.672   4.994  0.00  0.00    -0.478 OA
ATOM     19  H   LIG    1        6.496  -0.083   5.618  0.00  0.00    +0.295 HD
ENDBRANCH  16  18
ENDBRANCH  14  16
ENDBRANCH  12  14
ENDBRANCH   1  12
TORSDOF 5
