REMARK  Name = *****
REMARK                            x       y       z     vdW  Elec       q    Type
REMARK                         _______ _______ _______ _____ _____    ______ ____
ROOT
ATOM      1  C   LIG    1       -5.772   0.994   2.460  0.00  0.00    +0.011 C 
ATOM      2  C   LIG    1       -4.527   0.860   1.576  0.00  0.00    +0.026 C 
ATOM      3  C   LIG    1       -4.595   1.613   0.215  0.00  0.00    +0.134 C 
ATOM      4  C   LIG    1       -3.763   2.959   0.415  0.00  0.00    +0.009 C 
ATOM      5  C   LIG    1       -2.545   3.028  -0.551  0.00  0.00    +0.015 C 
ATOM      6  C   LIG    1       -3.167   2.879   1.866  0.00  0.00    +0.002 C 
ATOM      7  C   LIG    1       -3.775   3.778   2.982  0.00  0.00    +0.002 C 
ATOM      8  C   LIG    1       -4.320   5.143   2.493  0.00  0.00    +0.035 C 
ATOM      9  C   LIG    1       -5.285   4.843   1.331  0.00  0.00    +0.120 C 
ATOM     10  C   LIG    1       -3.206   6.282   2.353  0.00  0.00    +0.016 C 
ATOM     11  C   LIG    1       -3.427   7.330   3.479  0.00  0.00    +0.020 C 
ATOM     12  C   LIG    1       -1.800   5.705   2.546  0.00  0.00    -0.023 C 
ATOM     13  C   LIG    1       -0.793   5.889   1.671  0.00  0.00    +0.053 C 
ATOM     14  C   LIG    1       -0.964   6.677   0.438  0.00  0.00    +0.179 C 
ATOM     15  O   LIG    1       -0.044   6.799  -0.374  0.00  0.00    -0.288 OA
ATOM     16  C   LIG    1       -2.277   7.286   0.203  0.00  0.00    +0.047 C 
ATOM     17  C   LIG    1       -1.575   4.836   3.760  0.00  0.00    +0.193 C 
ATOM     18  F   LIG    1       -1.222   5.604   4.829  0.00  0.00    -0.241 F 
ATOM     19  C   LIG    1       -3.285   7.104   1.073  0.00  0.00    -0.012 C 
ATOM     20  C   LIG    1       -2.797   4.008   4.148  0.00  0.00    +0.045 C 
ATOM     21  C   LIG    1       -4.584   4.242   0.124  0.00  0.00    +0.042 C 
ATOM     22  C   LIG    1       -3.257   1.391   2.238  0.00  0.00    +0.011 C 
ENDROOT
BRANCH   3  23
ATOM     23  C   LIG    1       -4.033   0.688  -0.916  0.00  0.00    +0.190 C 
ATOM     24  O   LIG    1       -3.184  -0.183  -0.695  0.00  0.00    -0.292 OA
BRANCH  23  25
ATOM     25  C   LIG    1       -4.513   0.931  -2.351  0.00  0.00    +0.233 C 
BRANCH  25  26
ATOM     26  O   LIG    1       -4.419  -0.240  -3.150  0.00  0.00    -0.387 OA
ATOM     27  H   LIG    1       -3.510  -0.582  -3.038  0.00  0.00    +0.210 HD
ENDBRANCH  25  26
ENDBRANCH  23  25
ENDBRANCH   3  23
BRANCH   3  28
ATOM     28  O   LIG    1       -5.962   1.896  -0.086  0.00  0.00    -0.380 OA
ATOM     29  H   LIG    1       -6.454   1.053  -0.091  0.00  0.00    +0.211 HD
ENDBRANCH   3  28
BRANCH   9  30
ATOM     30  O   LIG    1       -6.009   6.012   0.964  0.00  0.00    -0.391 OA
ATOM     31  H   LIG    1       -6.686   5.741   0.318  0.00  0.00    +0.210 HD
ENDBRANCH   9  30
TORSDOF 5
