REMARK  Name = *****
REMARK                            x       y       z     vdW  Elec       q    Type
REMARK                         _______ _______ _______ _____ _____    ______ ____
ROOT
ATOM      1  C   LIG    1        3.149   1.528  -0.584  0.00  0.00    -0.024 C 
ATOM      2  C   LIG    1        3.931   1.488  -1.755  0.00  0.00    +0.050 C 
ATOM      3  C   LIG    1        4.153   2.606  -2.565  0.00  0.00    +0.004 C 
ATOM      4  C   LIG    1        4.936   2.171  -3.666  0.00  0.00    -0.014 C 
ATOM      5  C   LIG    1        5.434   2.893  -4.860  0.00  0.00    +0.065 C 
ATOM      6  C   LIG    1        6.626   2.115  -5.438  0.00  0.00    +0.166 C 
ATOM      7  O   LIG    1        6.334   0.709  -5.621  0.00  0.00    -0.366 OA
ATOM      8  C   LIG    1        6.016  -0.049  -4.413  0.00  0.00    +0.119 C 
ATOM      9  C   LIG    1        5.203   0.830  -3.500  0.00  0.00    +0.053 C 
ATOM     10  C   LIG    1        3.597   3.841  -2.186  0.00  0.00    +0.010 C 
ATOM     11  C   LIG    1        2.845   3.920  -1.012  0.00  0.00    +0.001 C 
ATOM     12  N   LIG    1        4.595   0.428  -2.340  0.00  0.00    -0.355 NA
ATOM     13  H   LIG    1        4.610  -0.507  -1.958  0.00  0.00    +0.166 HD
ATOM     14  C   LIG    1        2.626   2.786  -0.231  0.00  0.00    +0.006 C 
ENDROOT
BRANCH   1  16
ATOM     15  C   LIG    1        3.890   0.107   1.359  0.00  0.00    +0.009 C 
ATOM     16  C   LIG    1        2.853   0.320   0.269  0.00  0.00    +0.034 C 
ENDBRANCH   1  16
BRANCH   8  17
ATOM     17  C   LIG    1        5.203  -1.291  -4.857  0.00  0.00    +0.038 C 
ATOM     18  C   LIG    1        3.931  -0.962  -5.638  0.00  0.00    +0.007 C 
ENDBRANCH   8  17
BRANCH   8  19
ATOM     19  C   LIG    1        7.327  -0.456  -3.718  0.00  0.00    +0.161 C 
BRANCH  19  20
ATOM     20  C   LIG    1        8.249  -1.321  -4.543  0.00  0.00    +0.308 C 
ATOM     21  O   LIG    1        8.990  -2.154  -4.042  0.00  0.00    -0.251 OA
BRANCH  20  22
ATOM     22  O   LIG    1        8.265  -1.058  -5.867  0.00  0.00    -0.480 OA
ATOM     23  H   LIG    1        7.627  -0.358  -6.138  0.00  0.00    +0.295 HD
ENDBRANCH  20  22
ENDBRANCH  19  20
ENDBRANCH   8  19
TORSDOF 5
