REMARK  Name = *****
REMARK                            x       y       z     vdW  Elec       q    Type
REMARK                         _______ _______ _______ _____ _____    ______ ____
ROOT
ATOM      1  C   LIG    1        9.692   0.675  -3.292  0.00  0.00    +0.133 C 
ATOM      2  C   LIG    1        9.318   2.229  -3.201  0.00  0.00    +0.012 C 
ATOM      3  C   LIG    1        9.398   2.795  -1.750  0.00  0.00    +0.011 C 
ATOM      4  C   LIG    1       10.786   3.418  -1.434  0.00  0.00    +0.089 C 
ATOM      5  N   LIG    1       11.248   4.461  -2.383  0.00  0.00    -0.293 NA
ATOM      6  C   LIG    1       10.282   4.693  -3.492  0.00  0.00    +0.104 C 
ATOM      7  C   LIG    1       10.611   6.014  -4.246  0.00  0.00    +0.038 C 
ATOM      8  C   LIG    1       11.290   7.080  -3.645  0.00  0.00    -0.016 C 
ATOM      9  C   LIG    1       10.600   8.288  -3.985  0.00  0.00    +0.003 C 
ATOM     10  C   LIG    1        9.701   7.951  -4.995  0.00  0.00    +0.051 C 
ATOM     11  C   LIG    1        8.717   8.861  -5.455  0.00  0.00    +0.072 C 
ATOM     12  C   LIG    1        8.579  10.089  -4.781  0.00  0.00    +0.122 C 
ATOM     13  C   LIG    1        9.491  10.448  -3.790  0.00  0.00    +0.046 C 
ATOM     14  C   LIG    1       10.537   9.587  -3.424  0.00  0.00    +0.014 C 
ATOM     15  C   LIG    1       12.220   6.834  -2.518  0.00  0.00    +0.053 C 
ATOM     16  N   LIG    1        9.941   6.607  -5.305  0.00  0.00    -0.356 NA
ATOM     17  H   LIG    1        9.481   6.120  -6.059  0.00  0.00    +0.166 HD
ATOM     18  C   LIG    1       11.664   5.689  -1.646  0.00  0.00    +0.090 C 
ATOM     19  C   LIG    1        8.868   1.889  -0.621  0.00  0.00    +0.052 C 
ATOM     20  C   LIG    1        8.303   0.567  -1.112  0.00  0.00    +0.206 C 
ATOM     21  C   LIG    1       10.024   3.297  -4.194  0.00  0.00    +0.030 C 
ATOM     22  C   LIG    1        9.316  -0.168  -2.019  0.00  0.00    +0.172 C 
ENDROOT
BRANCH   1  23
ATOM     23  C   LIG    1        9.072  -0.121  -4.456  0.00  0.00    +0.313 C 
ATOM     24  O   LIG    1        9.731  -0.707  -5.309  0.00  0.00    -0.250 OA
BRANCH  23  26
ATOM     25  C   LIG    1        6.995  -0.607  -5.552  0.00  0.00    +0.280 C 
ATOM     26  O   LIG    1        7.723  -0.170  -4.392  0.00  0.00    -0.468 OA
ENDBRANCH  23  26
ENDBRANCH   1  23
BRANCH  12  27
ATOM     27  O   LIG    1        7.519  10.952  -4.898  0.00  0.00    -0.495 OA
ATOM     28  C   LIG    1        6.866  11.072  -6.153  0.00  0.00    +0.277 C 
ENDBRANCH  12  27
BRANCH  22  29
ATOM     29  O   LIG    1       10.488  -0.554  -1.269  0.00  0.00    -0.375 OA
ATOM     30  C   LIG    1       11.277  -1.540  -1.948  0.00  0.00    +0.194 C 
ENDBRANCH  22  29
BRANCH  20  31
ATOM     31  O   LIG    1        7.097   0.861  -1.865  0.00  0.00    -0.456 OA
BRANCH  31  32
ATOM     32  C   LIG    1        6.154  -0.117  -1.827  0.00  0.00    +0.332 C 
ATOM     33  O   LIG    1        6.184  -1.035  -1.086  0.00  0.00    -0.246 OA
BRANCH  32  34
ATOM     34  C   LIG    1        5.235   0.083  -3.011  0.00  0.00    +0.092 C 
ATOM     35  C   LIG    1        4.055  -0.442  -3.344  0.00  0.00    +0.015 C 
BRANCH  35  36
ATOM     36  C   LIG    1        3.125  -1.250  -2.561  0.00  0.00    -0.018 A 
ATOM     37  C   LIG    1        3.362  -1.609  -1.246  0.00  0.00    +0.057 A 
ATOM     38  C   LIG    1        2.501  -2.382  -0.483  0.00  0.00    +0.166 A 
ATOM     39  C   LIG    1        1.243  -2.705  -0.963  0.00  0.00    +0.203 A 
ATOM     40  C   LIG    1        0.986  -2.367  -2.324  0.00  0.00    +0.166 A 
ATOM     41  C   LIG    1        1.919  -1.653  -3.103  0.00  0.00    +0.057 A 
BRANCH  38  42
ATOM     42  O   LIG    1        2.877  -2.822   0.745  0.00  0.00    -0.491 OA
ATOM     43  C   LIG    1        4.242  -3.116   0.971  0.00  0.00    +0.277 C 
ENDBRANCH  38  42
BRANCH  39  44
ATOM     44  O   LIG    1        0.351  -3.423  -0.198  0.00  0.00    -0.488 OA
ATOM     45  C   LIG    1        0.310  -3.293   1.236  0.00  0.00    +0.277 C 
ENDBRANCH  39  44
BRANCH  40  46
ATOM     46  O   LIG    1       -0.101  -2.657  -3.108  0.00  0.00    -0.491 OA
ATOM     47  C   LIG    1       -1.058  -3.489  -2.504  0.00  0.00    +0.277 C 
ENDBRANCH  40  46
ENDBRANCH  35  36
ENDBRANCH  32  34
ENDBRANCH  31  32
ENDBRANCH  20  31
TORSDOF 11
