REMARK  Name = *****
REMARK                            x       y       z     vdW  Elec       q    Type
REMARK                         _______ _______ _______ _____ _____    ______ ____
ROOT
ATOM      1  N   LIG    1        3.478   0.604   0.485  0.00  0.00    -0.279 NA
ATOM      2  C   LIG    1        4.744   0.821   0.695  0.00  0.00    +0.082 C 
ATOM      3  C   LIG    1        5.141   2.147   1.278  0.00  0.00    +0.059 C 
ATOM      4  C   LIG    1        6.432   2.488   1.272  0.00  0.00    +0.055 C 
ATOM      5  C   LIG    1        7.511   1.614   0.781  0.00  0.00    +0.090 C 
ATOM      6  C   LIG    1        7.177   0.239   0.256  0.00  0.00    +0.075 C 
ATOM      7  N   LIG    1        8.272  -0.552  -0.244  0.00  0.00    -0.306 N 
ATOM      8  C   LIG    1        9.597   0.060  -0.193  0.00  0.00    +0.072 C 
ATOM      9  C   LIG    1        9.774   1.304   0.446  0.00  0.00    +0.088 C 
ATOM     10  C   LIG    1       11.051   1.875   0.605  0.00  0.00    +0.030 C 
ATOM     11  C   LIG    1       12.177   1.253   0.085  0.00  0.00    +0.002 C 
ATOM     12  C   LIG    1       12.020   0.079  -0.635  0.00  0.00    +0.002 C 
ATOM     13  C   LIG    1       10.746  -0.495  -0.792  0.00  0.00    +0.028 C 
ATOM     14  N   LIG    1        8.710   2.087   0.898  0.00  0.00    -0.244 NA
ATOM     15  C   LIG    1        5.878  -0.103   0.388  0.00  0.00    +0.057 C 
ENDROOT
BRANCH   7  16
ATOM     16  C   LIG    1        8.039  -1.887  -0.780  0.00  0.00    +0.047 A 
ATOM     17  C   LIG    1        6.904  -2.188  -1.563  0.00  0.00    +0.027 A 
ATOM     18  C   LIG    1        6.622  -3.490  -2.005  0.00  0.00    +0.022 A 
ATOM     19  C   LIG    1        7.529  -4.512  -1.764  0.00  0.00    +0.041 A 
ATOM     20 CL   LIG    1        7.207  -6.100  -2.339  0.00  0.00    -0.084 Cl
ATOM     21  C   LIG    1        8.696  -4.245  -1.060  0.00  0.00    +0.022 A 
ATOM     22  C   LIG    1        8.925  -2.959  -0.541  0.00  0.00    +0.027 A 
ENDBRANCH   7  16
BRANCH   1  24
ATOM     23  C   LIG    1        1.562  -0.899   0.343  0.00  0.00    +0.032 C 
ATOM     24  C   LIG    1        2.969  -0.595  -0.175  0.00  0.00    +0.100 C 
ATOM     25  C   LIG    1        2.896  -0.349  -1.681  0.00  0.00    +0.032 C 
ENDBRANCH   1  24
BRANCH   3  26
ATOM     26  N   LIG    1        4.120   2.967   1.763  0.00  0.00    -0.313 N 
ATOM     27  H   LIG    1        3.271   2.761   1.223  0.00  0.00    +0.152 HD
BRANCH  26  28
ATOM     28  C   LIG    1        3.763   2.929   3.144  0.00  0.00    +0.031 A 
ATOM     29  C   LIG    1        4.683   2.592   4.147  0.00  0.00    +0.024 A 
ATOM     30  C   LIG    1        4.302   2.545   5.490  0.00  0.00    +0.022 A 
ATOM     31  C   LIG    1        3.001   2.876   5.850  0.00  0.00    +0.041 A 
ATOM     32 CL   LIG    1        2.527   2.793   7.501  0.00  0.00    -0.084 Cl
ATOM     33  C   LIG    1        2.085   3.275   4.879  0.00  0.00    +0.022 A 
ATOM     34  C   LIG    1        2.471   3.318   3.533  0.00  0.00    +0.024 A 
ENDBRANCH  26  28
ENDBRANCH   3  26
TORSDOF 4
