REMARK  Name = *****
REMARK                            x       y       z     vdW  Elec       q    Type
REMARK                         _______ _______ _______ _____ _____    ______ ____
ROOT
ATOM      1  C   LIG    1        0.926  -0.058  -0.023  0.00  0.00    +0.155 C 
ATOM      2  N   LIG    1        2.373   0.023  -0.034  0.00  0.00    -0.280 N 
ATOM      3  C   LIG    1        2.973   1.282  -0.068  0.00  0.00    +0.333 C 
ATOM      4  O   LIG    1        2.300   2.318  -0.074  0.00  0.00    -0.246 OA
ATOM      5  N   LIG    1        4.381   1.325  -0.096  0.00  0.00    -0.262 N 
ATOM      6  C   LIG    1        4.980   2.646  -0.102  0.00  0.00    +0.157 C 
ATOM      7  C   LIG    1        5.225   0.213  -0.169  0.00  0.00    +0.282 C 
ATOM      8  O   LIG    1        6.443   0.268  -0.309  0.00  0.00    -0.265 OA
ATOM      9  C   LIG    1        4.522  -1.020  -0.068  0.00  0.00    +0.151 A 
ATOM     10  N   LIG    1        4.956  -2.316  -0.034  0.00  0.00    -0.322 N 
ATOM     11  C   LIG    1        3.842  -3.107   0.079  0.00  0.00    +0.202 A 
ATOM     12  N   LIG    1        2.736  -2.390   0.088  0.00  0.00    -0.218 NA
ATOM     13  C   LIG    1        3.163  -1.100  -0.004  0.00  0.00    +0.168 A 
ENDROOT
BRANCH  10  14
ATOM     14  C   LIG    1        6.329  -2.787  -0.069  0.00  0.00    +0.157 C 
BRANCH  14  15
ATOM     15  C   LIG    1        6.826  -3.050  -1.492  0.00  0.00    +0.160 C 
BRANCH  15  16
ATOM     16  O   LIG    1        6.807  -1.865  -2.305  0.00  0.00    -0.388 OA
ATOM     17  H   LIG    1        7.165  -1.118  -1.782  0.00  0.00    +0.210 HD
ENDBRANCH  15  16
BRANCH  15  18
ATOM     18  C   LIG    1        8.267  -3.570  -1.489  0.00  0.00    +0.188 C 
BRANCH  18  19
ATOM     19  O   LIG    1        8.681  -3.828  -2.829  0.00  0.00    -0.392 OA
ATOM     20  H   LIG    1        8.310  -3.100  -3.369  0.00  0.00    +0.209 HD
ENDBRANCH  18  19
ENDBRANCH  15  18
ENDBRANCH  14  15
ENDBRANCH  10  14
TORSDOF 5
