REMARK  Name = *****
REMARK                            x       y       z     vdW  Elec       q    Type
REMARK                         _______ _______ _______ _____ _____    ______ ____
ROOT
ATOM      1  C   LIG    1       -0.877   3.284   1.612  0.00  0.00    +0.124 A 
ATOM      2  C   LIG    1       -1.397   4.082   2.630  0.00  0.00    +0.067 A 
ATOM      3 CL   LIG    1       -2.843   3.725   3.504  0.00  0.00    -0.082 Cl
ATOM      4  C   LIG    1       -0.729   5.258   2.980  0.00  0.00    +0.022 A 
ATOM      5  C   LIG    1        0.450   5.633   2.327  0.00  0.00    +0.010 A 
ATOM      6  C   LIG    1        1.007   4.830   1.317  0.00  0.00    +0.009 A 
ATOM      7  C   LIG    1        0.316   3.655   0.964  0.00  0.00    +0.038 A 
ENDROOT
BRANCH   6   8
ATOM      8  C   LIG    1        2.293   5.219   0.603  0.00  0.00    +0.187 C 
ATOM      9  C   LIG    1        2.098   6.125  -0.579  0.00  0.00    +0.019 A 
ATOM     10  C   LIG    1        2.739   7.342  -0.340  0.00  0.00    +0.045 A 
ATOM     11  C   LIG    1        2.738   8.386  -1.244  0.00  0.00    +0.013 A 
ATOM     12  C   LIG    1        2.070   8.181  -2.452  0.00  0.00    +0.001 A 
ATOM     13  C   LIG    1        1.433   6.955  -2.721  0.00  0.00    +0.001 A 
ATOM     14  C   LIG    1        3.391   7.253   0.970  0.00  0.00    +0.247 C 
ATOM     15  O   LIG    1        3.988   8.144   1.536  0.00  0.00    -0.270 OA
ATOM     16  C   LIG    1        1.444   5.915  -1.783  0.00  0.00    +0.009 A 
ATOM     17  N   LIG    1        3.186   5.972   1.432  0.00  0.00    -0.276 N 
ATOM     18  H   LIG    1        3.439   5.704   2.372  0.00  0.00    +0.152 HD
BRANCH   8  19
ATOM     19  O   LIG    1        3.023   4.077   0.220  0.00  0.00    -0.364 OA
ATOM     20  H   LIG    1        3.945   4.384   0.204  0.00  0.00    +0.213 HD
ENDBRANCH   8  19
ENDBRANCH   6   8
BRANCH   1  21
ATOM     21  S   LIG    1       -1.671   1.790   1.111  0.00  0.00    +0.057 S 
ATOM     22  O   LIG    1       -1.020   1.290  -0.080  0.00  0.00    -0.153 OA
ATOM     23  O   LIG    1       -1.891   0.951   2.264  0.00  0.00    -0.153 OA
BRANCH  21  24
ATOM     24  N   LIG    1       -3.175   2.307   0.576  0.00  0.00    -0.203 NA
ATOM     25  H   LIG    1       -3.291   2.077  -0.411  0.00  0.00    +0.144 HD
ATOM     26  H   LIG    1       -3.907   1.925   1.178  0.00  0.00    +0.144 HD
ENDBRANCH  21  24
ENDBRANCH   1  21
TORSDOF 4
