REMARK  Name = *****
REMARK                            x       y       z     vdW  Elec       q    Type
REMARK                         _______ _______ _______ _____ _____    ______ ____
ROOT
ATOM      1  C   LIG    1        8.598   1.403   7.290  0.00  0.00    +0.122 C 
ENDROOT
BRANCH   1   2
ATOM      2  C   LIG    1        8.500   2.902   6.819  0.00  0.00    +0.172 C 
ATOM      3  C   LIG    1        7.399   3.691   7.559  0.00  0.00    +0.176 C 
ATOM      4  C   LIG    1        7.267   5.119   7.015  0.00  0.00    +0.177 C 
ATOM      5  C   LIG    1        7.057   5.098   5.501  0.00  0.00    +0.184 C 
ATOM      6  C   LIG    1        8.160   4.260   4.818  0.00  0.00    +0.207 C 
ATOM      7  O   LIG    1        8.205   2.934   5.395  0.00  0.00    -0.356 OA
BRANCH   3   8
ATOM      8  O   LIG    1        6.121   3.041   7.410  0.00  0.00    -0.387 OA
ATOM      9  H   LIG    1        6.064   2.691   6.498  0.00  0.00    +0.210 HD
ENDBRANCH   3   8
BRANCH   4  10
ATOM     10  O   LIG    1        6.137   5.773   7.621  0.00  0.00    -0.387 OA
ATOM     11  H   LIG    1        5.486   5.067   7.811  0.00  0.00    +0.210 HD
ENDBRANCH   4  10
BRANCH   5  12
ATOM     12  O   LIG    1        6.932   6.429   4.994  0.00  0.00    -0.386 OA
ATOM     13  H   LIG    1        6.379   6.907   5.647  0.00  0.00    +0.210 HD
ENDBRANCH   5  12
BRANCH   6  14
ATOM     14  S   LIG    1        9.810   5.068   4.809  0.00  0.00    -0.131 S 
ATOM     15  C   LIG    1       10.698   3.885   3.771  0.00  0.00    +0.087 C 
ENDBRANCH   6  14
ENDBRANCH   1   2
BRANCH   1  17
ATOM     16  C   LIG    1        9.365  -0.659   6.068  0.00  0.00    +0.231 C 
ATOM     17  N   LIG    1        9.567   0.660   6.463  0.00  0.00    -0.307 N 
ATOM     18  H   LIG    1       10.517   1.012   6.391  0.00  0.00    +0.149 HD
ATOM     19  O   LIG    1        8.341  -1.287   6.364  0.00  0.00    -0.274 OA
BRANCH  16  24
ATOM     20  C   LIG    1       11.142  -3.451   4.352  0.00  0.00    +0.005 C 
ATOM     21  C   LIG    1       12.279  -2.782   5.121  0.00  0.00    +0.088 C 
ATOM     22  N   LIG    1       11.625  -1.848   6.056  0.00  0.00    -0.294 NA
ATOM     23  C   LIG    1       11.174  -2.578   7.244  0.00  0.00    +0.105 C 
ATOM     24  C   LIG    1       10.515  -1.262   5.242  0.00  0.00    +0.143 C 
ATOM     25  C   LIG    1       10.090  -2.345   4.239  0.00  0.00    +0.033 C 
BRANCH  20  26
ATOM     26  C   LIG    1       11.575  -4.037   3.002  0.00  0.00    +0.004 C 
BRANCH  26  28
ATOM     27  C   LIG    1       13.043  -5.723   1.812  0.00  0.00    +0.004 C 
ATOM     28  C   LIG    1       12.621  -5.147   3.155  0.00  0.00    -0.003 C 
ENDBRANCH  26  28
ENDBRANCH  20  26
ENDBRANCH  16  24
ENDBRANCH   1  17
BRANCH   1  29
ATOM     29  C   LIG    1        8.916   1.274   8.808  0.00  0.00    +0.100 C 
ATOM     30  C   LIG    1        8.703  -0.121   9.382  0.00  0.00    +0.026 C 
ATOM     31 CL   LIG    1       10.598   1.806   9.159  0.00  0.00    -0.120 Cl
ENDBRANCH   1  29
TORSDOF 10
