REMARK  Name = *****
REMARK                            x       y       z     vdW  Elec       q    Type
REMARK                         _______ _______ _______ _____ _____    ______ ____
ROOT
ATOM      1  C   LIG    1        6.847  -1.132   0.356  0.00  0.00    +0.064 A 
ATOM      2  C   LIG    1        7.232  -0.880  -0.983  0.00  0.00    +0.057 A 
ATOM      3  I   LIG    1        5.971   0.197  -2.334  0.00  0.00    -0.040 I 
ATOM      4  C   LIG    1        8.448  -1.379  -1.515  0.00  0.00    +0.053 A 
ATOM      5  C   LIG    1        9.208  -2.255  -0.724  0.00  0.00    +0.036 A 
ATOM      6  I   LIG    1       10.952  -3.165  -1.472  0.00  0.00    -0.042 I 
ATOM      7  C   LIG    1        8.841  -2.537   0.590  0.00  0.00    +0.032 A 
ATOM      8  C   LIG    1        7.721  -1.906   1.152  0.00  0.00    +0.037 A 
ATOM      9  I   LIG    1        7.543  -2.099   3.240  0.00  0.00    -0.042 I 
ENDROOT
BRANCH   1  12
ATOM     10  C   LIG    1        4.505  -2.746  -0.004  0.00  0.00    +0.110 C 
ATOM     11  C   LIG    1        4.431  -1.447   0.769  0.00  0.00    +0.217 C 
ATOM     12  N   LIG    1        5.585  -0.659   0.856  0.00  0.00    -0.269 N 
ATOM     13  O   LIG    1        3.359  -1.126   1.283  0.00  0.00    -0.276 OA
BRANCH  12  14
ATOM     14  C   LIG    1        5.573   0.611   1.628  0.00  0.00    +0.128 C 
BRANCH  14  15
ATOM     15  C   LIG    1        4.867   1.808   0.945  0.00  0.00    +0.112 C 
ATOM     16  C   LIG    1        3.342   1.716   0.848  0.00  0.00    +0.021 C 
BRANCH  15  17
ATOM     17  C   LIG    1        5.255   3.107   1.644  0.00  0.00    +0.309 C 
ATOM     18  O   LIG    1        4.507   3.821   2.272  0.00  0.00    -0.251 OA
BRANCH  17  19
ATOM     19  O   LIG    1        6.560   3.433   1.454  0.00  0.00    -0.480 OA
ATOM     20  H   LIG    1        7.059   2.834   0.869  0.00  0.00    +0.295 HD
ENDBRANCH  17  19
ENDBRANCH  15  17
ENDBRANCH  14  15
ENDBRANCH  12  14
ENDBRANCH   1  12
BRANCH   4  21
ATOM     21  N   LIG    1        9.020  -0.797  -2.664  0.00  0.00    -0.356 N 
ATOM     22  H   LIG    1        8.363  -0.370  -3.311  0.00  0.00    +0.142 HD
ATOM     23  H   LIG    1        9.739  -1.359  -3.112  0.00  0.00    +0.142 HD
ENDBRANCH   4  21
TORSDOF 6
