REMARK  Name = *****
REMARK                            x       y       z     vdW  Elec       q    Type
REMARK                         _______ _______ _______ _____ _____    ______ ____
ROOT
ATOM      1  C   LIG    1        5.405  -0.033  -0.420  0.00  0.00    +0.015 C 
ATOM      2  C   LIG    1        4.400  -0.744   0.542  0.00  0.00    +0.012 C 
ATOM      3  C   LIG    1        3.627  -1.850  -0.256  0.00  0.00    +0.157 C 
ATOM      4  C   LIG    1        4.715  -2.966  -0.375  0.00  0.00    +0.154 C 
ATOM      5  C   LIG    1        5.682  -2.784   0.817  0.00  0.00    +0.039 C 
ATOM      6  C   LIG    1        5.105  -1.606   1.611  0.00  0.00    +0.007 C 
ATOM      7  C   LIG    1        6.015  -0.793   2.552  0.00  0.00    +0.034 C 
ATOM      8  C   LIG    1        6.729  -1.730   3.543  0.00  0.00    +0.011 C 
ATOM      9  C   LIG    1        7.523  -0.968   4.599  0.00  0.00    +0.032 C 
ATOM     10  C   LIG    1        6.630   0.016   5.308  0.00  0.00    -0.053 C 
ATOM     11  C   LIG    1        5.937   1.058   4.411  0.00  0.00    +0.044 C 
ATOM     12  C   LIG    1        7.025   2.002   3.853  0.00  0.00    +0.023 C 
ATOM     13  C   LIG    1        4.995   1.938   5.234  0.00  0.00    -0.009 C 
ATOM     14  C   LIG    1        4.789   1.829   6.554  0.00  0.00    +0.047 C 
ATOM     15  C   LIG    1        5.496   0.810   7.349  0.00  0.00    +0.179 C 
ATOM     16  O   LIG    1        5.324   0.715   8.562  0.00  0.00    -0.288 OA
ATOM     17  C   LIG    1        6.423  -0.087   6.634  0.00  0.00    +0.051 C 
ATOM     18  C   LIG    1        5.133   0.272   3.296  0.00  0.00    +0.153 C 
ATOM     19  F   LIG    1        4.164  -0.452   3.973  0.00  0.00    -0.238 F 
ATOM     20  C   LIG    1        4.339   1.163   2.286  0.00  0.00    +0.154 C 
ATOM     21  C   LIG    1        3.548   0.338   1.241  0.00  0.00    +0.044 C 
ENDROOT
BRANCH   3  22
ATOM     22  C   LIG    1        2.329  -2.406   0.416  0.00  0.00    +0.193 C 
ATOM     23  O   LIG    1        2.117  -2.388   1.632  0.00  0.00    -0.292 OA
BRANCH  22  24
ATOM     24  C   LIG    1        1.265  -3.000  -0.511  0.00  0.00    +0.233 C 
BRANCH  24  25
ATOM     25  O   LIG    1        0.129  -3.490   0.190  0.00  0.00    -0.387 OA
ATOM     26  H   LIG    1        0.128  -3.035   1.056  0.00  0.00    +0.210 HD
ENDBRANCH  24  25
ENDBRANCH  22  24
ENDBRANCH   3  22
BRANCH   3  27
ATOM     27  O   LIG    1        3.287  -1.354  -1.556  0.00  0.00    -0.378 OA
ATOM     28  H   LIG    1        3.238  -2.116  -2.163  0.00  0.00    +0.211 HD
ENDBRANCH   3  27
BRANCH   4  29
ATOM     29  O   LIG    1        4.152  -4.265  -0.447  0.00  0.00    -0.389 OA
ATOM     30  H   LIG    1        4.870  -4.895  -0.643  0.00  0.00    +0.210 HD
ENDBRANCH   4  29
BRANCH  20  31
ATOM     31  O   LIG    1        5.181   2.099   1.617  0.00  0.00    -0.389 OA
ATOM     32  H   LIG    1        4.618   2.637   1.033  0.00  0.00    +0.210 HD
ENDBRANCH  20  31
TORSDOF 6
