REMARK  Name = *****
REMARK                            x       y       z     vdW  Elec       q    Type
REMARK                         _______ _______ _______ _____ _____    ______ ____
ROOT
ATOM      1  C   LIG    1        0.954   6.481 -10.040  0.00  0.00    +0.014 C 
ATOM      2  C   LIG    1        0.186   5.793  -8.911  0.00  0.00    +0.037 C 
ATOM      3  C   LIG    1        1.096   5.011  -7.902  0.00  0.00    +0.127 C 
ATOM      4  C   LIG    1        1.917   3.840  -8.519  0.00  0.00    +0.056 C 
ATOM      5  C   LIG    1        3.366   4.232  -8.839  0.00  0.00    +0.014 C 
ATOM      6  C   LIG    1        1.919   2.545  -7.639  0.00  0.00    +0.179 C 
ATOM      7  C   LIG    1        2.253   2.766  -6.170  0.00  0.00    +0.052 C 
ATOM      8  O   LIG    1        0.591   1.958  -7.704  0.00  0.00    -0.461 OA
ATOM      9  C   LIG    1        0.263   0.645  -7.764  0.00  0.00    +0.310 C 
ATOM     10  O   LIG    1       -0.906   0.343  -8.009  0.00  0.00    -0.251 OA
ATOM     11  C   LIG    1        1.331  -0.426  -7.666  0.00  0.00    +0.152 C 
ATOM     12  C   LIG    1        1.315  -1.374  -6.455  0.00  0.00    +0.128 C 
ATOM     13  C   LIG    1       -0.052  -1.856  -5.934  0.00  0.00    +0.063 C 
ATOM     14  C   LIG    1       -0.617  -1.083  -4.738  0.00  0.00    +0.119 C 
ATOM     15  C   LIG    1       -2.136  -1.294  -4.545  0.00  0.00    +0.062 C 
ATOM     16  C   LIG    1       -2.883  -0.224  -3.716  0.00  0.00    +0.117 C 
ATOM     17  C   LIG    1       -3.650   0.855  -4.524  0.00  0.00    +0.034 C 
ATOM     18  C   LIG    1       -2.859   1.415  -5.705  0.00  0.00    +0.036 C 
ATOM     19  C   LIG    1       -3.479   2.563  -6.516  0.00  0.00    +0.143 C 
ATOM     20  C   LIG    1       -3.291   3.966  -5.901  0.00  0.00    +0.150 C 
ATOM     21  C   LIG    1       -1.828   4.401  -5.768  0.00  0.00    +0.108 C 
ATOM     22  C   LIG    1       -1.617   5.503  -4.744  0.00  0.00    +0.138 C 
ATOM     23  O   LIG    1       -2.544   6.263  -4.441  0.00  0.00    -0.297 OA
ATOM     24  C   LIG    1       -0.218   5.769  -4.223  0.00  0.00    +0.106 C 
ATOM     25  C   LIG    1        0.538   4.817  -3.271  0.00  0.00    +0.138 C 
ATOM     26  C   LIG    1       -0.003   3.433  -2.839  0.00  0.00    +0.155 C 
ATOM     27  C   LIG    1       -0.819   3.241  -1.518  0.00  0.00    +0.134 C 
ATOM     28  C   LIG    1       -2.342   3.390  -1.707  0.00  0.00    +0.068 C 
ATOM     29  C   LIG    1       -3.319   4.250  -0.876  0.00  0.00    +0.147 C 
ATOM     30  C   LIG    1       -4.624   4.296  -1.649  0.00  0.00    +0.004 C 
ATOM     31  C   LIG    1       -5.809   3.695  -1.433  0.00  0.00    -0.002 C 
ATOM     32  C   LIG    1       -6.929   4.067  -2.284  0.00  0.00    -0.000 C 
ATOM     33  C   LIG    1       -6.867   3.885  -3.614  0.00  0.00    +0.000 C 
ATOM     34  C   LIG    1       -7.496   4.797  -4.548  0.00  0.00    +0.000 C 
ATOM     35  C   LIG    1       -7.057   4.868  -5.816  0.00  0.00    -0.000 C 
ATOM     36  C   LIG    1       -7.189   6.038  -6.658  0.00  0.00    -0.004 C 
ATOM     37  C   LIG    1       -6.644   7.210  -6.285  0.00  0.00    -0.026 C 
ATOM     38  C   LIG    1       -6.551   8.440  -7.142  0.00  0.00    +0.031 C 
ATOM     39  C   LIG    1       -5.109   8.972  -7.287  0.00  0.00    +0.031 C 
ATOM     40  C   LIG    1       -4.176   8.050  -8.036  0.00  0.00    -0.026 C 
ATOM     41  C   LIG    1       -2.878   7.877  -7.729  0.00  0.00    -0.005 C 
ATOM     42  C   LIG    1       -2.013   6.960  -8.445  0.00  0.00    -0.004 C 
ATOM     43  C   LIG    1       -0.694   6.827  -8.211  0.00  0.00    -0.021 C 
ENDROOT
BRANCH   3  44
ATOM     44  O   LIG    1        1.950   5.888  -7.160  0.00  0.00    -0.391 OA
ATOM     45  H   LIG    1        2.289   6.573  -7.762  0.00  0.00    +0.210 HD
ENDBRANCH   3  44
BRANCH  12  46
ATOM     46  O   LIG    1        2.105  -0.829  -5.394  0.00  0.00    -0.391 OA
ATOM     47  H   LIG    1        3.042  -0.985  -5.607  0.00  0.00    +0.210 HD
ENDBRANCH  12  46
BRANCH  14  48
ATOM     48  O   LIG    1       -0.302   0.294  -4.876  0.00  0.00    -0.392 OA
ATOM     49  H   LIG    1        0.623   0.379  -4.543  0.00  0.00    +0.210 HD
ENDBRANCH  14  48
BRANCH  16  50
ATOM     50  O   LIG    1       -1.991   0.406  -2.801  0.00  0.00    -0.392 OA
ATOM     51  H   LIG    1       -1.240   0.722  -3.343  0.00  0.00    +0.210 HD
ENDBRANCH  16  50
BRANCH  19  52
ATOM     52  O   LIG    1       -2.900   2.597  -7.831  0.00  0.00    -0.389 OA
ATOM     53  H   LIG    1       -2.410   1.761  -7.981  0.00  0.00    +0.210 HD
ENDBRANCH  19  52
BRANCH  20  54
ATOM     54  O   LIG    1       -3.937   4.020  -4.649  0.00  0.00    -0.389 OA
ATOM     55  H   LIG    1       -3.960   4.974  -4.415  0.00  0.00    +0.210 HD
ENDBRANCH  20  54
BRANCH  25  56
ATOM     56  O   LIG    1        0.938   5.555  -2.106  0.00  0.00    -0.391 OA
ATOM     57  H   LIG    1        1.560   6.245  -2.401  0.00  0.00    +0.210 HD
ENDBRANCH  25  56
BRANCH  26  58
ATOM     58  C   LIG    1        1.184   2.493  -2.720  0.00  0.00    +0.313 C 
ATOM     59  O   LIG    1        1.217   1.307  -3.126  0.00  0.00    -0.251 OA
BRANCH  58  60
ATOM     60  O   LIG    1        2.255   2.980  -2.098  0.00  0.00    -0.480 OA
ATOM     61  H   LIG    1        2.872   2.222  -2.003  0.00  0.00    +0.295 HD
ENDBRANCH  58  60
ENDBRANCH  26  58
BRANCH  27  62
ATOM     62  O   LIG    1       -0.295   3.906  -0.385  0.00  0.00    -0.391 OA
ATOM     63  H   LIG    1        0.479   4.430  -0.685  0.00  0.00    +0.210 HD
ENDBRANCH  27  62
BRANCH  29  64
ATOM     64  O   LIG    1       -2.925   5.610  -0.615  0.00  0.00    -0.341 OA
BRANCH  64  65
ATOM     65  C   LIG    1       -3.960   6.402   0.038  0.00  0.00    +0.281 C 
ATOM     66  C   LIG    1       -4.424   5.836   1.420  0.00  0.00    +0.189 C 
ATOM     67  C   LIG    1       -3.289   5.981   2.449  0.00  0.00    +0.116 C 
ATOM     68  C   LIG    1       -2.715   7.417   2.396  0.00  0.00    +0.162 C 
ATOM     69  C   LIG    1       -3.549   8.317   1.469  0.00  0.00    +0.148 C 
ATOM     70  C   LIG    1       -3.044   9.758   1.465  0.00  0.00    +0.040 C 
ATOM     71  O   LIG    1       -3.534   7.787   0.137  0.00  0.00    -0.343 OA
BRANCH  67  72
ATOM     72  N   LIG    1       -2.209   4.973   2.330  0.00  0.00    -0.323 NA
ATOM     73  H   LIG    1       -2.013   4.811   1.331  0.00  0.00    +0.119 HD
ATOM     74  H   LIG    1       -2.574   4.073   2.647  0.00  0.00    +0.119 HD
ENDBRANCH  67  72
BRANCH  66  75
ATOM     75  O   LIG    1       -4.952   4.508   1.463  0.00  0.00    -0.385 OA
ATOM     76  H   LIG    1       -5.888   4.563   1.202  0.00  0.00    +0.210 HD
ENDBRANCH  66  75
BRANCH  68  77
ATOM     77  O   LIG    1       -2.701   7.965   3.717  0.00  0.00    -0.388 OA
ATOM     78  H   LIG    1       -1.788   7.856   4.038  0.00  0.00    +0.210 HD
ENDBRANCH  68  77
ENDBRANCH  64  65
ENDBRANCH  29  64
TORSDOF 15
