REMARK  Name = *****
REMARK                            x       y       z     vdW  Elec       q    Type
REMARK                         _______ _______ _______ _____ _____    ______ ____
ROOT
ATOM      1  C   LIG    1        2.987  -2.608   0.756  0.00  0.00    +0.164 A 
ATOM      2  C   LIG    1        2.634  -3.961   0.642  0.00  0.00    +0.162 A 
ATOM      3  C   LIG    1        3.218  -4.890   1.503  0.00  0.00    +0.062 A 
ATOM      4  C   LIG    1        4.122  -4.469   2.502  0.00  0.00    +0.044 A 
ATOM      5  C   LIG    1        4.447  -3.122   2.633  0.00  0.00    +0.082 A 
ATOM      6  N   LIG    1        5.266  -2.664   3.581  0.00  0.00    -0.214 NA
ATOM      7  C   LIG    1        5.782  -3.536   4.453  0.00  0.00    +0.220 A 
ATOM      8  N   LIG    1        5.550  -4.856   4.381  0.00  0.00    -0.199 NA
ATOM      9  C   LIG    1        4.743  -5.307   3.421  0.00  0.00    +0.129 A 
ATOM     10  C   LIG    1        3.894  -2.215   1.746  0.00  0.00    +0.078 A 
ENDROOT
BRANCH   7  11
ATOM     11  N   LIG    1        6.605  -3.057   5.480  0.00  0.00    -0.297 N 
ATOM     12  C   LIG    1        6.723  -4.030   6.582  0.00  0.00    +0.127 C 
ATOM     13  C   LIG    1        7.665  -3.503   7.675  0.00  0.00    +0.127 C 
ATOM     14  N   LIG    1        7.223  -2.178   8.127  0.00  0.00    -0.292 N 
ATOM     15  C   LIG    1        6.290  -2.010   9.166  0.00  0.00    +0.282 C 
ATOM     16  O   LIG    1        5.492  -1.078   9.142  0.00  0.00    -0.267 OA
ATOM     17  C   LIG    1        7.202  -1.206   7.030  0.00  0.00    +0.127 C 
ATOM     18  C   LIG    1        6.275  -1.672   5.887  0.00  0.00    +0.127 C 
BRANCH  15  19
ATOM     19  C   LIG    1        6.298  -2.967  10.262  0.00  0.00    +0.189 A 
ATOM     20  O   LIG    1        7.466  -3.579  10.638  0.00  0.00    -0.458 OA
ATOM     21  C   LIG    1        7.188  -4.373  11.702  0.00  0.00    +0.196 A 
ATOM     22  C   LIG    1        5.861  -4.273  12.044  0.00  0.00    +0.042 A 
ATOM     23  C   LIG    1        5.287  -3.362  11.123  0.00  0.00    +0.054 A 
ENDBRANCH  15  19
ENDBRANCH   7  11
BRANCH   9  24
ATOM     24  N   LIG    1        4.552  -6.694   3.416  0.00  0.00    -0.343 N 
ATOM     25  H   LIG    1        4.826  -7.087   2.521  0.00  0.00    +0.144 HD
ATOM     26  H   LIG    1        5.134  -7.065   4.165  0.00  0.00    +0.144 HD
ENDBRANCH   9  24
BRANCH   1  28
ATOM     27  C   LIG    1        2.290  -0.386   0.331  0.00  0.00    +0.277 C 
ATOM     28  O   LIG    1        2.426  -1.726  -0.135  0.00  0.00    -0.491 OA
ENDBRANCH   1  28
BRANCH   2  29
ATOM     29  O   LIG    1        1.733  -4.309  -0.332  0.00  0.00    -0.491 OA
ATOM     30  C   LIG    1        0.923  -5.443  -0.032  0.00  0.00    +0.277 C 
ENDBRANCH   2  29
TORSDOF 5
