REMARK  Name = *****
REMARK                            x       y       z     vdW  Elec       q    Type
REMARK                         _______ _______ _______ _____ _____    ______ ____
ROOT
ATOM      1  C   LIG    1       16.558   0.331  -9.618  0.00  0.00    -0.021 C 
ATOM      2  C   LIG    1       15.747  -0.478  -8.886  0.00  0.00    -0.035 C 
ATOM      3  C   LIG    1       14.750   0.243  -7.959  0.00  0.00    +0.059 C 
ATOM      4  C   LIG    1       14.099  -0.631  -6.859  0.00  0.00    +0.085 C 
ATOM      5  C   LIG    1       13.071   0.176  -6.093  0.00  0.00    -0.011 C 
ATOM      6  C   LIG    1       12.356   1.133  -6.698  0.00  0.00    +0.009 C 
ATOM      7  C   LIG    1       12.520   1.394  -8.128  0.00  0.00    +0.051 C 
ATOM      8  S   LIG    1       13.202  -2.040  -7.607  0.00  0.00    -0.116 S 
ATOM      9  C   LIG    1       14.534  -2.706  -8.585  0.00  0.00    +0.016 A 
ATOM     10  C   LIG    1       14.417  -4.076  -8.884  0.00  0.00    +0.015 A 
ATOM     11  C   LIG    1       15.467  -4.766  -9.475  0.00  0.00    +0.001 A 
ATOM     12  C   LIG    1       16.660  -4.103  -9.710  0.00  0.00    +0.001 A 
ATOM     13  C   LIG    1       16.765  -2.732  -9.440  0.00  0.00    +0.009 A 
ATOM     14  C   LIG    1       13.669   1.008  -8.730  0.00  0.00    -0.005 C 
ATOM     15  C   LIG    1       15.676  -1.974  -8.976  0.00  0.00    -0.008 A 
ENDROOT
BRANCH   7  16
ATOM     16  C   LIG    1       11.382   2.048  -8.875  0.00  0.00    +0.417 C 
ATOM     17  F   LIG    1       10.929   1.263  -9.887  0.00  0.00    -0.166 F 
ATOM     18  F   LIG    1       11.762   3.227  -9.432  0.00  0.00    -0.166 F 
ATOM     19  F   LIG    1       10.310   2.319  -8.084  0.00  0.00    -0.166 F 
ENDBRANCH   7  16
BRANCH   1  20
ATOM     20  C   LIG    1       17.529   0.085 -10.746  0.00  0.00    +0.043 C 
BRANCH  20  21
ATOM     21  C   LIG    1       18.959   0.512 -10.354  0.00  0.00    +0.088 C 
BRANCH  21  25
ATOM     22  N   LIG    1       21.481   2.898 -11.823  0.00  0.00    -0.298 NA
ATOM     23  C   LIG    1       20.113   2.663 -12.329  0.00  0.00    +0.100 C 
ATOM     24  C   LIG    1       19.765   1.177 -12.587  0.00  0.00    +0.100 C 
ATOM     25  N   LIG    1       19.959   0.293 -11.418  0.00  0.00    -0.300 NA
ATOM     26  C   LIG    1       21.332   0.508 -10.903  0.00  0.00    +0.100 C 
ATOM     27  C   LIG    1       21.726   1.992 -10.675  0.00  0.00    +0.100 C 
BRANCH  22  28
ATOM     28  C   LIG    1       22.518   2.716 -12.859  0.00  0.00    +0.112 C 
BRANCH  28  29
ATOM     29  C   LIG    1       22.451   3.736 -14.008  0.00  0.00    +0.171 C 
BRANCH  29  30
ATOM     30  O   LIG    1       23.503   3.480 -14.936  0.00  0.00    -0.394 OA
ATOM     31  H   LIG    1       23.388   4.110 -15.668  0.00  0.00    +0.209 HD
ENDBRANCH  29  30
ENDBRANCH  28  29
ENDBRANCH  22  28
ENDBRANCH  21  25
ENDBRANCH  20  21
ENDBRANCH   1  20
TORSDOF 7
