REMARK  Name = *****
REMARK                            x       y       z     vdW  Elec       q    Type
REMARK                         _______ _______ _______ _____ _____    ______ ____
ROOT
ATOM      1  C   LIG    1        8.219   4.440  -1.452  0.00  0.00    +0.006 C 
ATOM      2  C   LIG    1        9.505   3.942  -0.801  0.00  0.00    +0.107 C 
ATOM      3  S   LIG    1        9.583   4.208   0.992  0.00  0.00    -0.131 S 
ATOM      4  C   LIG    1        9.124   5.944   0.855  0.00  0.00    +0.169 C 
ATOM      5  N   LIG    1        7.808   6.033   0.248  0.00  0.00    -0.249 N 
ATOM      6  C   LIG    1        7.292   6.860   1.176  0.00  0.00    +0.244 C 
ATOM      7  O   LIG    1        6.201   7.403   1.212  0.00  0.00    -0.273 OA
ATOM      8  CA  LIG    1        8.510   6.621   2.123  0.00  0.00    +0.191 C 
ATOM      9  CA  LIG    1        7.431   5.423  -0.924  0.00  0.00    +0.125 C 
ENDROOT
BRANCH   8  10
ATOM     10  N   LIG    1        8.238   5.769   3.327  0.00  0.00    -0.301 N 
ATOM     11  H   LIG    1        8.631   4.832   3.382  0.00  0.00    +0.149 HD
ATOM     12  C   LIG    1        7.286   6.127   4.264  0.00  0.00    +0.218 C 
ATOM     13  O   LIG    1        6.630   7.162   4.169  0.00  0.00    -0.275 OA
BRANCH  12  14
ATOM     14  C   LIG    1        7.165   5.218   5.476  0.00  0.00    +0.138 C 
BRANCH  14  15
ATOM     15  C   LIG    1        6.799   3.829   5.059  0.00  0.00    -0.002 A 
ATOM     16  S   LIG    1        8.011   2.629   4.893  0.00  0.00    -0.101 S 
ATOM     17  C   LIG    1        6.866   1.454   4.416  0.00  0.00    +0.045 A 
ATOM     18  C   LIG    1        5.586   1.959   4.389  0.00  0.00    +0.008 A 
ATOM     19  C   LIG    1        5.545   3.331   4.769  0.00  0.00    +0.012 A 
ENDBRANCH  14  15
ENDBRANCH  12  14
ENDBRANCH   8  10
BRANCH   9  20
ATOM     20  C   LIG    1        6.124   5.819  -1.592  0.00  0.00    +0.351 C 
ATOM     21  O   LIG    1        5.874   5.604  -2.769  0.00  0.00    -0.244 OA
BRANCH  20  22
ATOM     22  OXT LIG    1        5.202   6.437  -0.834  0.00  0.00    -0.476 OA
ATOM     23  HXT LIG    1        5.399   6.589   0.118  0.00  0.00    +0.295 HD
ENDBRANCH  20  22
ENDBRANCH   9  20
BRANCH   1  24
ATOM     24  C   LIG    1        7.923   3.603  -2.698  0.00  0.00    +0.266 C 
BRANCH  24  25
ATOM     25  O   LIG    1        9.015   3.723  -3.633  0.00  0.00    -0.460 OA
BRANCH  25  27
ATOM     26  C   LIG    1       10.725   2.841  -4.982  0.00  0.00    +0.136 C 
ATOM     27  C   LIG    1        9.602   2.559  -4.031  0.00  0.00    +0.304 C 
ATOM     28  O   LIG    1        9.300   1.438  -3.647  0.00  0.00    -0.251 OA
ENDBRANCH  25  27
ENDBRANCH  24  25
ENDBRANCH   1  24
TORSDOF 8
