REMARK  Name = *****
REMARK                            x       y       z     vdW  Elec       q    Type
REMARK                         _______ _______ _______ _____ _____    ______ ____
ROOT
ATOM      1  C   LIG    1      -12.241  -6.835  18.984  0.00  0.00    +0.175 C 
ATOM      2  C   LIG    1      -12.908  -8.054  18.339  0.00  0.00    +0.058 C 
ATOM      3  C   LIG    1      -12.422  -8.014  16.876  0.00  0.00    +0.090 C 
ATOM      4  C   LIG    1      -10.927  -7.703  17.085  0.00  0.00    +0.090 C 
ATOM      5  C   LIG    1      -10.133  -7.331  15.829  0.00  0.00    +0.218 C 
ATOM      6  O   LIG    1      -10.253  -7.934  14.765  0.00  0.00    -0.276 OA
ATOM      7  N   LIG    1       -9.172  -6.362  16.017  0.00  0.00    -0.301 N 
ATOM      8  H   LIG    1       -8.911  -6.117  16.966  0.00  0.00    +0.150 HD
ATOM      9  C   LIG    1       -8.208  -5.966  15.006  0.00  0.00    +0.119 C 
ATOM     10  C   LIG    1       -8.536  -5.136  13.766  0.00  0.00    +0.046 C 
ATOM     11  C   LIG    1       -9.905  -4.797  13.353  0.00  0.00    -0.025 C 
ATOM     12  C   LIG    1      -10.183  -4.041  12.276  0.00  0.00    -0.031 C 
ATOM     13  C   LIG    1      -11.500  -3.706  11.622  0.00  0.00    +0.027 C 
ATOM     14  C   LIG    1      -12.824  -4.006  12.331  0.00  0.00    +0.006 C 
ATOM     15  C   LIG    1      -13.079  -5.492  12.626  0.00  0.00    +0.019 C 
ATOM     16  C   LIG    1      -13.574  -5.681  14.062  0.00  0.00    +0.107 C 
ATOM     17  N   LIG    1      -13.169  -6.934  14.705  0.00  0.00    -0.304 N 
ATOM     18  C   LIG    1      -13.402  -8.165  13.965  0.00  0.00    +0.132 C 
ATOM     19  C   LIG    1       -7.944  -4.459  14.958  0.00  0.00    +0.046 C 
ATOM     20  C   LIG    1      -13.150  -6.904  16.092  0.00  0.00    +0.219 C 
ATOM     21  O   LIG    1      -13.610  -5.926  16.690  0.00  0.00    -0.275 OA
ATOM     22  C   LIG    1      -10.906  -6.686  18.246  0.00  0.00    +0.058 C 
ENDROOT
BRANCH   9  23
ATOM     23  C   LIG    1       -6.997  -6.868  14.876  0.00  0.00    +0.256 C 
ATOM     24  N   LIG    1       -7.155  -7.943  14.002  0.00  0.00    -0.188 N 
ATOM     25  H   LIG    1       -8.087  -8.159  13.630  0.00  0.00    +0.176 HD
ATOM     26  O   LIG    1       -5.971  -6.607  15.490  0.00  0.00    -0.272 OA
BRANCH  24  27
ATOM     27  S   LIG    1       -5.988  -9.076  13.689  0.00  0.00    +0.048 S 
ATOM     28  O   LIG    1       -6.672 -10.139  12.982  0.00  0.00    -0.155 OA
ATOM     29  O   LIG    1       -5.226  -9.341  14.874  0.00  0.00    -0.155 OA
BRANCH  27  30
ATOM     30  C   LIG    1       -4.880  -8.341  12.423  0.00  0.00    +0.151 C 
ATOM     31  C   LIG    1       -3.475  -8.035  12.862  0.00  0.00    +0.030 C 
ATOM     32  C   LIG    1       -3.749  -9.264  12.039  0.00  0.00    +0.030 C 
ENDBRANCH  27  30
ENDBRANCH  24  27
ENDBRANCH   9  23
BRANCH   1  33
ATOM     33  O   LIG    1      -12.065  -7.008  20.388  0.00  0.00    -0.488 OA
BRANCH  33  39
ATOM     34  C   LIG    1       -9.629  -5.969  24.669  0.00  0.00    +0.125 A 
ATOM     35  C   LIG    1      -10.296  -4.791  24.281  0.00  0.00    +0.017 A 
ATOM     36  C   LIG    1      -10.177  -3.559  25.149  0.00  0.00    +0.050 C 
ATOM     37  C   LIG    1      -11.073  -4.761  23.114  0.00  0.00    +0.082 A 
ATOM     38  C   LIG    1      -11.179  -5.921  22.317  0.00  0.00    +0.043 A 
ATOM     39  C   LIG    1      -11.970  -5.856  21.146  0.00  0.00    +0.132 A 
ATOM     40  C   LIG    1      -12.651  -4.676  20.846  0.00  0.00    +0.076 A 
ATOM     41  C   LIG    1      -12.473  -3.580  21.670  0.00  0.00    +0.100 A 
ATOM     42  C   LIG    1      -10.489  -7.085  22.712  0.00  0.00    +0.017 A 
ATOM     43  N   LIG    1      -11.698  -3.623  22.775  0.00  0.00    -0.244 NA
ATOM     44  C   LIG    1       -9.721  -7.108  23.875  0.00  0.00    +0.046 A 
BRANCH  41  45
ATOM     45  C   LIG    1      -13.130  -2.293  21.385  0.00  0.00    +0.127 A 
ATOM     46  S   LIG    1      -12.398  -0.821  21.912  0.00  0.00    -0.074 S 
ATOM     47  C   LIG    1      -13.682   0.063  21.220  0.00  0.00    +0.070 A 
ATOM     48  C   LIG    1      -14.591  -0.788  20.620  0.00  0.00    +0.052 A 
ATOM     49  N   LIG    1      -14.251  -2.134  20.700  0.00  0.00    -0.242 NA
BRANCH  48  50
ATOM     50  C   LIG    1      -15.867  -0.406  19.915  0.00  0.00    +0.032 C 
ATOM     51  C   LIG    1      -15.737   0.913  19.147  0.00  0.00    +0.014 C 
ATOM     52  C   LIG    1      -17.044  -0.332  20.891  0.00  0.00    +0.014 C 
ENDBRANCH  48  50
ENDBRANCH  41  45
BRANCH  34  54
ATOM     53  C   LIG    1       -8.685  -7.089  26.542  0.00  0.00    +0.277 C 
ATOM     54  O   LIG    1       -8.861  -5.887  25.802  0.00  0.00    -0.495 OA
ENDBRANCH  34  54
ENDBRANCH  33  39
ENDBRANCH   1  33
TORSDOF 8
