REMARK  Name = *****
REMARK                            x       y       z     vdW  Elec       q    Type
REMARK                         _______ _______ _______ _____ _____    ______ ____
ROOT
ATOM      1  C   LIG    1        6.890  -5.349   9.300  0.00  0.00    +0.134 C 
ATOM      2  C   LIG    1        7.651  -4.019   9.146  0.00  0.00    +0.079 C 
ATOM      3  C   LIG    1        7.417  -3.396   7.768  0.00  0.00    +0.158 C 
ATOM      4  C   LIG    1        8.012  -4.361   6.769  0.00  0.00    +0.030 A 
ATOM      5  C   LIG    1        7.814  -5.748   6.934  0.00  0.00    +0.007 A 
ATOM      6  C   LIG    1        8.130  -6.596   5.875  0.00  0.00    +0.132 A 
ATOM      7  C   LIG    1        8.732  -6.097   4.712  0.00  0.00    +0.078 A 
ATOM      8  C   LIG    1        9.005  -7.000   3.594  0.00  0.00    +0.198 C 
ATOM      9  O   LIG    1        8.597  -8.159   3.645  0.00  0.00    -0.286 OA
ATOM     10  C   LIG    1        9.742  -6.517   2.423  0.00  0.00    +0.037 A 
ATOM     11  C   LIG    1       10.156  -5.185   2.326  0.00  0.00    +0.075 A 
ATOM     12  C   LIG    1       10.857  -4.774   1.177  0.00  0.00    +0.132 A 
ATOM     13  C   LIG    1       11.138  -5.710   0.171  0.00  0.00    +0.046 A 
ATOM     14  C   LIG    1       10.716  -7.034   0.282  0.00  0.00    +0.004 A 
ATOM     15  C   LIG    1        9.809  -4.253   3.427  0.00  0.00    +0.202 C 
ATOM     16  O   LIG    1       10.092  -3.055   3.403  0.00  0.00    -0.286 OA
ATOM     17  C   LIG    1       10.017  -7.439   1.407  0.00  0.00    +0.012 A 
ATOM     18  C   LIG    1        9.082  -4.753   4.617  0.00  0.00    +0.078 A 
ATOM     19  C   LIG    1        8.714  -3.885   5.651  0.00  0.00    +0.135 A 
ATOM     20  C   LIG    1        7.410  -6.358   8.271  0.00  0.00    +0.082 C 
ENDROOT
BRANCH   1  21
ATOM     21  O   LIG    1        5.475  -5.214   9.108  0.00  0.00    -0.381 OA
ATOM     22  H   LIG    1        5.358  -4.687   8.291  0.00  0.00    +0.211 HD
ENDBRANCH   1  21
BRANCH  19  23
ATOM     23  O   LIG    1        9.026  -2.551   5.630  0.00  0.00    -0.506 OA
ATOM     24  H   LIG    1        9.552  -2.352   4.820  0.00  0.00    +0.292 HD
ENDBRANCH  19  23
BRANCH   6  25
ATOM     25  O   LIG    1        7.823  -7.922   6.037  0.00  0.00    -0.506 OA
ATOM     26  H   LIG    1        7.988  -8.388   5.186  0.00  0.00    +0.292 HD
ENDBRANCH   6  25
BRANCH  12  27
ATOM     27  O   LIG    1       11.308  -3.483   1.109  0.00  0.00    -0.494 OA
ATOM     28  C   LIG    1       11.378  -2.906  -0.191  0.00  0.00    +0.277 C 
ENDBRANCH  12  27
BRANCH   1  29
ATOM     29  C   LIG    1        7.054  -5.837  10.745  0.00  0.00    +0.202 C 
ATOM     30  O   LIG    1        7.678  -5.181  11.586  0.00  0.00    -0.291 OA
BRANCH  29  31
ATOM     31  C   LIG    1        6.359  -7.140  11.113  0.00  0.00    +0.309 C 
BRANCH  31  32
ATOM     32  O   LIG    1        6.550  -7.515  12.472  0.00  0.00    -0.457 OA
BRANCH  32  33
ATOM     33  C   LIG    1        7.829  -7.930  12.748  0.00  0.00    +0.307 C 
ATOM     34  O   LIG    1        8.764  -7.872  11.996  0.00  0.00    -0.251 OA
BRANCH  33  35
ATOM     35  C   LIG    1        7.836  -8.714  14.037  0.00  0.00    +0.120 C 
BRANCH  35  36
ATOM     36  C   LIG    1        6.823  -8.227  15.071  0.00  0.00    +0.011 C 
BRANCH  36  38
ATOM     37  C   LIG    1        6.418 -10.524  16.076  0.00  0.00    +0.004 C 
ATOM     38  C   LIG    1        6.810  -9.076  16.337  0.00  0.00    -0.003 C 
ENDBRANCH  36  38
ENDBRANCH  35  36
ENDBRANCH  33  35
ENDBRANCH  32  33
ENDBRANCH  31  32
ENDBRANCH  29  31
ENDBRANCH   1  29
BRANCH   3  39
ATOM     39  O   LIG    1        5.992  -3.269   7.540  0.00  0.00    -0.343 OA
BRANCH  39  40
ATOM     40  C   LIG    1        5.605  -2.636   6.304  0.00  0.00    +0.253 C 
ATOM     41  O   LIG    1        6.194  -1.351   6.218  0.00  0.00    -0.346 OA
ATOM     42  C   LIG    1        5.694  -0.440   5.239  0.00  0.00    +0.148 C 
ATOM     43  C   LIG    1        6.333  -0.625   3.861  0.00  0.00    +0.040 C 
ATOM     44  C   LIG    1        4.161  -0.359   5.242  0.00  0.00    +0.163 C 
ATOM     45  C   LIG    1        3.505  -1.758   5.138  0.00  0.00    +0.109 C 
ATOM     46  C   LIG    1        4.066  -2.579   6.305  0.00  0.00    +0.086 C 
BRANCH  45  47
ATOM     47  N   LIG    1        3.660  -2.437   3.844  0.00  0.00    -0.302 N 
ATOM     48  H   LIG    1        4.030  -3.383   3.815  0.00  0.00    +0.149 HD
ATOM     49  C   LIG    1        3.006  -1.997   2.686  0.00  0.00    +0.318 C 
ATOM     50  O   LIG    1        2.278  -1.002   2.689  0.00  0.00    -0.266 OA
BRANCH  49  51
ATOM     51  C   LIG    1        3.275  -2.850   1.419  0.00  0.00    +0.469 C 
ATOM     52  F   LIG    1        4.322  -2.383   0.685  0.00  0.00    -0.162 F 
ATOM     53  F   LIG    1        2.205  -2.921   0.583  0.00  0.00    -0.162 F 
ATOM     54  F   LIG    1        3.595  -4.138   1.747  0.00  0.00    -0.162 F 
ENDBRANCH  49  51
ENDBRANCH  45  47
BRANCH  44  55
ATOM     55  O   LIG    1        3.699   0.595   4.299  0.00  0.00    -0.387 OA
ATOM     56  H   LIG    1        2.723   0.573   4.296  0.00  0.00    +0.210 HD
ENDBRANCH  44  55
ENDBRANCH  39  40
ENDBRANCH   3  39
TORSDOF 16
