REMARK  Name = *****
REMARK                            x       y       z     vdW  Elec       q    Type
REMARK                         _______ _______ _______ _____ _____    ______ ____
ROOT
ATOM      1  N   LIG    1        8.069  -0.574   3.682  0.00  0.00    -0.311 N 
ENDROOT
BRANCH   1   2
ATOM      2  C   LIG    1        9.305  -0.449   4.336  0.00  0.00    +0.141 A 
ATOM      3  N   LIG    1       10.359   0.256   3.859  0.00  0.00    -0.228 NA
ATOM      4  C   LIG    1       11.543   0.310   4.614  0.00  0.00    +0.099 A 
ATOM      5  C   LIG    1       11.610  -0.312   5.928  0.00  0.00    +0.097 A 
ATOM      6  N   LIG    1       10.552  -1.050   6.337  0.00  0.00    -0.249 NA
ATOM      7  C   LIG    1        9.464  -1.079   5.560  0.00  0.00    +0.155 A 
BRANCH   4   8
ATOM      8  C   LIG    1       12.647   1.024   3.850  0.00  0.00    +0.003 A 
ATOM      9  C   LIG    1       12.493   1.817   2.705  0.00  0.00    +0.010 A 
ATOM     10  C   LIG    1       13.606   2.433   2.064  0.00  0.00    +0.001 A 
ATOM     11  C   LIG    1       14.900   2.330   2.578  0.00  0.00    +0.000 A 
ATOM     12  C   LIG    1       15.093   1.514   3.659  0.00  0.00    +0.001 A 
ATOM     13  C   LIG    1       13.986   0.815   4.140  0.00  0.00    +0.010 A 
ENDBRANCH   4   8
BRANCH   5  14
ATOM     14  C   LIG    1       12.607  -0.314   7.091  0.00  0.00    +0.002 A 
ATOM     15  C   LIG    1       12.227  -0.685   8.409  0.00  0.00    +0.010 A 
ATOM     16  C   LIG    1       13.147  -0.739   9.489  0.00  0.00    +0.001 A 
ATOM     17  C   LIG    1       14.472  -0.357   9.325  0.00  0.00    +0.000 A 
ATOM     18  C   LIG    1       14.886  -0.021   8.071  0.00  0.00    +0.001 A 
ATOM     19  C   LIG    1       13.978  -0.101   7.023  0.00  0.00    +0.010 A 
ENDBRANCH   5  14
ENDBRANCH   1   2
BRANCH   1  21
ATOM     20  C   LIG    1        8.478  -3.106   3.725  0.00  0.00    +0.027 C 
ATOM     21  C   LIG    1        7.448  -1.946   3.611  0.00  0.00    +0.069 C 
ATOM     22  C   LIG    1        6.332  -2.131   4.658  0.00  0.00    +0.027 C 
ENDBRANCH   1  21
BRANCH   1  23
ATOM     23  C   LIG    1        7.577   0.534   2.827  0.00  0.00    +0.107 C 
BRANCH  23  24
ATOM     24  C   LIG    1        7.292   1.872   3.589  0.00  0.00    +0.021 C 
BRANCH  24  25
ATOM     25  C   LIG    1        8.488   2.611   4.225  0.00  0.00    +0.030 C 
BRANCH  25  26
ATOM     26  C   LIG    1        8.139   3.888   5.015  0.00  0.00    +0.160 C 
BRANCH  26  27
ATOM     27  O   LIG    1        7.612   4.958   4.208  0.00  0.00    -0.370 OA
BRANCH  27  28
ATOM     28  C   LIG    1        7.294   6.101   5.016  0.00  0.00    +0.256 C 
BRANCH  28  29
ATOM     29  C   LIG    1        6.715   7.364   4.327  0.00  0.00    +0.257 C 
ATOM     30  N   LIG    1        7.473   8.091   3.379  0.00  0.00    -0.188 N 
ATOM     31  H   LIG    1        7.066   8.952   3.043  0.00  0.00    +0.176 HD
ATOM     32  O   LIG    1        5.612   7.816   4.628  0.00  0.00    -0.272 OA
BRANCH  30  33
ATOM     33  S   LIG    1        9.025   7.780   2.898  0.00  0.00    +0.042 S 
ATOM     34  O   LIG    1        9.727   7.129   3.939  0.00  0.00    -0.155 OA
ATOM     35  O   LIG    1        9.529   9.041   2.324  0.00  0.00    -0.155 OA
ATOM     36  C   LIG    1        8.757   6.676   1.531  0.00  0.00    +0.218 C 
ENDBRANCH  30  33
ENDBRANCH  28  29
ENDBRANCH  27  28
ENDBRANCH  26  27
ENDBRANCH  25  26
ENDBRANCH  24  25
ENDBRANCH  23  24
ENDBRANCH   1  23
TORSDOF 12
