REMARK  Name = *****
REMARK                            x       y       z     vdW  Elec       q    Type
REMARK                         _______ _______ _______ _____ _____    ______ ____
ROOT
ATOM      1  C   LIG    1        3.072  -1.822   0.280  0.00  0.00    +0.125 A 
ATOM      2  C   LIG    1        2.387  -3.007   0.009  0.00  0.00    +0.069 A 
ATOM      3 CL   LIG    1        0.805  -3.058  -0.681  0.00  0.00    -0.082 Cl
ATOM      4  C   LIG    1        2.986  -4.242   0.314  0.00  0.00    +0.047 A 
ATOM      5  C   LIG    1        4.273  -4.323   0.864  0.00  0.00    +0.057 A 
ATOM      6  N   LIG    1        4.757  -5.567   1.262  0.00  0.00    -0.324 N 
ATOM      7  H   LIG    1        4.410  -6.336   0.687  0.00  0.00    +0.148 HD
ATOM      8  C   LIG    1        6.156  -5.741   1.654  0.00  0.00    +0.192 C 
ATOM      9  N   LIG    1        6.508  -4.678   2.603  0.00  0.00    -0.167 NA
ATOM     10  H   LIG    1        7.423  -4.826   3.034  0.00  0.00    +0.150 HD
ATOM     11  S   LIG    1        6.509  -3.173   1.871  0.00  0.00    +0.062 S 
ATOM     12  O   LIG    1        7.494  -3.213   0.815  0.00  0.00    -0.153 OA
ATOM     13  O   LIG    1        6.566  -2.191   2.929  0.00  0.00    -0.153 OA
ATOM     14  C   LIG    1        4.924  -3.118   1.128  0.00  0.00    +0.128 A 
ATOM     15  C   LIG    1        4.349  -1.873   0.846  0.00  0.00    +0.060 A 
ENDROOT
BRANCH   1  16
ATOM     16  S   LIG    1        2.314  -0.269  -0.066  0.00  0.00    +0.057 S 
ATOM     17  O   LIG    1        2.232  -0.104  -1.496  0.00  0.00    -0.153 OA
ATOM     18  O   LIG    1        1.193  -0.092   0.828  0.00  0.00    -0.153 OA
BRANCH  16  19
ATOM     19  N   LIG    1        3.441   0.878   0.434  0.00  0.00    -0.203 NA
ATOM     20  H   LIG    1        3.723   1.444  -0.369  0.00  0.00    +0.144 HD
ATOM     21  H   LIG    1        3.041   1.433   1.194  0.00  0.00    +0.144 HD
ENDBRANCH  16  19
ENDBRANCH   1  16
BRANCH   8  22
ATOM     22  C   LIG    1        6.359  -7.138   2.325  0.00  0.00    +0.207 C 
ATOM     23 CL   LIG    1        8.057  -7.356   2.852  0.00  0.00    -0.101 Cl
ATOM     24 CL   LIG    1        5.924  -8.462   1.200  0.00  0.00    -0.101 Cl
ENDBRANCH   8  22
TORSDOF 3
