REMARK  Name = *****
REMARK                            x       y       z     vdW  Elec       q    Type
REMARK                         _______ _______ _______ _____ _____    ______ ____
ROOT
ATOM      1  C   LIG    1        3.118   1.053  -1.118  0.00  0.00    +0.024 C 
ATOM      2  C   LIG    1        2.705  -0.129  -0.201  0.00  0.00    +0.028 C 
ATOM      3  C   LIG    1        3.532   2.393  -0.347  0.00  0.00    -0.014 C 
ATOM      4  C   LIG    1        4.910   2.975  -0.729  0.00  0.00    +0.013 C 
ATOM      5  C   LIG    1        3.544   2.247   1.192  0.00  0.00    +0.013 C 
ATOM      6  C   LIG    1        2.378   3.383  -0.755  0.00  0.00    -0.003 C 
ATOM      7  C   LIG    1        1.156   2.466  -0.848  0.00  0.00    +0.009 C 
ATOM      8  C   LIG    1        2.487   3.832  -2.223  0.00  0.00    +0.004 C 
ATOM      9  C   LIG    1        2.143   2.555  -2.995  0.00  0.00    +0.005 C 
ATOM     10  C   LIG    1        1.820   1.542  -1.873  0.00  0.00    +0.010 C 
ENDROOT
BRANCH   1  12
ATOM     11  C   LIG    1        5.207  -0.208  -1.610  0.00  0.00    +0.101 C 
ATOM     12  N   LIG    1        4.091   0.577  -2.120  0.00  0.00    -0.313 NA
ATOM     13  H   LIG    1        3.608   0.025  -2.829  0.00  0.00    +0.122 HD
ENDBRANCH   1  12
TORSDOF 1
