REMARK  Name = *****
REMARK                            x       y       z     vdW  Elec       q    Type
REMARK                         _______ _______ _______ _____ _____    ______ ____
ROOT
ATOM      1  N   LIG    1        3.970  -0.577  -4.258  0.00  0.00    -0.196 N 
ATOM      2  H   LIG    1        4.935  -0.687  -3.942  0.00  0.00    +0.175 HD
ENDROOT
BRANCH   1   5
ATOM      3  C   LIG    1        2.451   2.761  -3.903  0.00  0.00    +0.263 A 
ATOM      4  C   LIG    1        2.629   1.505  -4.471  0.00  0.00    +0.223 A 
ATOM      5  C   LIG    1        3.606   0.747  -3.837  0.00  0.00    +0.187 A 
ATOM      6  N   LIG    1        4.350   1.151  -2.793  0.00  0.00    -0.215 NA
ATOM      7  C   LIG    1        4.077   2.381  -2.344  0.00  0.00    +0.227 A 
ATOM      8  N   LIG    1        3.159   3.215  -2.845  0.00  0.00    -0.198 NA
BRANCH   3  10
ATOM      9  C   LIG    1        1.459   4.910  -3.857  0.00  0.00    +0.279 C 
ATOM     10  O   LIG    1        1.514   3.616  -4.446  0.00  0.00    -0.477 OA
ENDBRANCH   3  10
BRANCH   4  11
ATOM     11  O   LIG    1        2.032   0.964  -5.573  0.00  0.00    -0.487 OA
ATOM     12  C   LIG    1        1.021   1.720  -6.229  0.00  0.00    +0.277 C 
ENDBRANCH   4  11
ENDBRANCH   1   5
BRANCH   1  13
ATOM     13  S   LIG    1        3.108  -1.798  -3.449  0.00  0.00    +0.074 S 
ATOM     14  O   LIG    1        1.714  -1.423  -3.323  0.00  0.00    -0.150 OA
ATOM     15  O   LIG    1        3.893  -2.171  -2.296  0.00  0.00    -0.150 OA
BRANCH  13  16
ATOM     16  C   LIG    1        3.187  -3.170  -4.595  0.00  0.00    +0.109 A 
ATOM     17  C   LIG    1        4.233  -4.095  -4.500  0.00  0.00    +0.030 A 
ATOM     18  C   LIG    1        4.262  -5.206  -5.354  0.00  0.00    +0.024 A 
ATOM     19  C   LIG    1        3.215  -5.450  -6.248  0.00  0.00    +0.025 A 
ATOM     20  C   LIG    1        2.195  -4.499  -6.358  0.00  0.00    +0.024 A 
ATOM     21  C   LIG    1        2.159  -3.377  -5.518  0.00  0.00    +0.030 A 
BRANCH  19  22
ATOM     22  N   LIG    1        3.304  -6.504  -7.166  0.00  0.00    -0.358 N 
ATOM     23  H   LIG    1        3.849  -7.293  -6.830  0.00  0.00    +0.142 HD
ATOM     24  H   LIG    1        2.405  -6.799  -7.537  0.00  0.00    +0.142 HD
ENDBRANCH  19  22
ENDBRANCH  13  16
ENDBRANCH   1  13
TORSDOF 6
