REMARK  Name = *****
REMARK                            x       y       z     vdW  Elec       q    Type
REMARK                         _______ _______ _______ _____ _____    ______ ____
ROOT
ATOM      1  C   LIG    1       -4.345   0.064  -0.860  0.00  0.00    +0.122 C 
ATOM      2  C   LIG    1       -4.675  -1.124  -1.810  0.00  0.00    +0.036 C 
ATOM      3  C   LIG    1       -5.872  -1.967  -1.301  0.00  0.00    +0.028 C 
ATOM      4  C   LIG    1       -6.148  -1.895   0.212  0.00  0.00    +0.058 C 
ATOM      5  N   LIG    1       -6.203  -0.469   0.593  0.00  0.00    -0.296 NA
ATOM      6  C   LIG    1       -5.021  -2.482   1.058  0.00  0.00    +0.020 C 
ATOM      7  C   LIG    1       -4.138  -1.284   1.394  0.00  0.00    +0.021 C 
ATOM      8  C   LIG    1       -4.756  -0.113   0.625  0.00  0.00    +0.071 C 
ENDROOT
BRANCH   2   9
ATOM      9  C   LIG    1       -3.542  -2.022  -2.311  0.00  0.00    -0.043 A 
ATOM     10  C   LIG    1       -3.527  -2.450  -3.653  0.00  0.00    +0.005 A 
ATOM     11  C   LIG    1       -2.515  -3.293  -4.134  0.00  0.00    +0.014 A 
ATOM     12  C   LIG    1       -1.506  -3.725  -3.279  0.00  0.00    +0.013 A 
ATOM     13  I   LIG    1       -0.005  -4.983  -3.963  0.00  0.00    -0.044 I 
ATOM     14  C   LIG    1       -1.500  -3.313  -1.954  0.00  0.00    +0.014 A 
ATOM     15  C   LIG    1       -2.511  -2.473  -1.485  0.00  0.00    +0.005 A 
ENDBRANCH   2   9
BRANCH   1  16
ATOM     16  C   LIG    1       -2.947   0.634  -1.028  0.00  0.00    +0.312 C 
ATOM     17  O   LIG    1       -2.043   0.516  -0.221  0.00  0.00    -0.251 OA
BRANCH  16  19
ATOM     18  C   LIG    1       -1.645   1.999  -2.486  0.00  0.00    +0.280 C 
ATOM     19  O   LIG    1       -2.877   1.330  -2.204  0.00  0.00    -0.468 OA
ENDBRANCH  16  19
ENDBRANCH   1  16
BRANCH   5  20
ATOM     20  C   LIG    1       -6.877  -0.211   1.880  0.00  0.00    +0.087 C 
BRANCH  20  21
ATOM     21  C   LIG    1       -8.349  -0.631   1.869  0.00  0.00    +0.049 C 
BRANCH  21  22
ATOM     22  C   LIG    1       -9.026  -0.324   3.189  0.00  0.00    +0.214 C 
ATOM     23  F   LIG    1      -10.322  -0.730   3.113  0.00  0.00    -0.249 F 
ENDBRANCH  21  22
ENDBRANCH  20  21
ENDBRANCH   5  20
TORSDOF 6
