REMARK  Name = *****
REMARK                            x       y       z     vdW  Elec       q    Type
REMARK                         _______ _______ _______ _____ _____    ______ ____
ROOT
ATOM      1  C   LIG    1        6.712  -2.331   0.147  0.00  0.00    +0.032 A 
ATOM      2  C   LIG    1        6.054  -3.566   0.120  0.00  0.00    +0.100 A 
ATOM      3  C   LIG    1        6.772  -4.726   0.448  0.00  0.00    +0.318 A 
ATOM      4  C   LIG    1        8.121  -4.679   0.779  0.00  0.00    +0.237 A 
ATOM      5  C   LIG    1        8.767  -3.445   0.788  0.00  0.00    +0.166 A 
ATOM      6  C   LIG    1        8.080  -2.275   0.471  0.00  0.00    +0.061 A 
ENDROOT
BRANCH   3   7
ATOM      7  N   LIG    1        6.077  -5.994   0.409  0.00  0.00    +0.084 N 
ATOM      8  O   LIG    1        5.586  -6.324  -0.679  0.00  0.00    -0.576 OA
ATOM      9  O   LIG    1        5.943  -6.604   1.478  0.00  0.00    +0.042 OA
ENDBRANCH   3   7
BRANCH   1  10
ATOM     10  C   LIG    1        6.040  -1.062  -0.241  0.00  0.00    +0.194 C 
ATOM     11  O   LIG    1        6.727  -0.173  -0.742  0.00  0.00    -0.287 OA
BRANCH  10  16
ATOM     12  C   LIG    1        0.383   0.044   0.387  0.00  0.00    +0.044 C 
ATOM     13  C   LIG    1        1.840  -0.280   0.223  0.00  0.00    -0.050 A 
ATOM     14  C   LIG    1        2.565   0.267  -0.842  0.00  0.00    +0.004 A 
ATOM     15  C   LIG    1        3.928  -0.005  -0.983  0.00  0.00    +0.012 A 
ATOM     16  C   LIG    1        4.584  -0.829  -0.060  0.00  0.00    +0.022 A 
ATOM     17  C   LIG    1        3.873  -1.347   1.027  0.00  0.00    +0.012 A 
ATOM     18  C   LIG    1        2.506  -1.077   1.162  0.00  0.00    +0.004 A 
ENDBRANCH  10  16
ENDBRANCH   1  10
BRANCH   4  19
ATOM     19  O   LIG    1        8.845  -5.801   1.060  0.00  0.00    -0.499 OA
ATOM     20  H   LIG    1        9.754  -5.490   1.252  0.00  0.00    +0.292 HD
ENDBRANCH   4  19
BRANCH   5  21
ATOM     21  O   LIG    1       10.098  -3.433   1.105  0.00  0.00    -0.503 OA
ATOM     22  H   LIG    1       10.423  -2.515   1.064  0.00  0.00    +0.292 HD
ENDBRANCH   5  21
TORSDOF 5
