REMARK  Name = *****
REMARK                            x       y       z     vdW  Elec       q    Type
REMARK                         _______ _______ _______ _____ _____    ______ ____
ROOT
ATOM      1  C   LIG    1        9.229   1.734   0.301  0.00  0.00    +0.065 C 
ATOM      2  C   LIG    1        7.691   1.698   0.332  0.00  0.00    +0.102 C 
ATOM      3  C   LIG    1        7.195   0.326   0.813  0.00  0.00    +0.065 C 
ATOM      4  C   LIG    1        8.000  -0.461   1.572  0.00  0.00    +0.016 C 
ATOM      5  C   LIG    1        7.653  -1.834   2.086  0.00  0.00    +0.061 C 
ATOM      6  N   LIG    1        9.286  -0.029   1.876  0.00  0.00    -0.321 N 
ATOM      7  H   LIG    1        9.883  -0.714   2.339  0.00  0.00    +0.152 HD
ATOM      8  C   LIG    1        9.951   0.918   1.106  0.00  0.00    +0.016 C 
ATOM      9  C   LIG    1       11.446   0.940   1.256  0.00  0.00    +0.061 C 
ENDROOT
BRANCH   2  10
ATOM     10  C   LIG    1        7.115   2.853   1.177  0.00  0.00    +0.042 A 
ATOM     11  C   LIG    1        6.040   3.681   0.786  0.00  0.00    +0.277 A 
ATOM     12  C   LIG    1        5.533   4.689   1.630  0.00  0.00    +0.084 A 
ATOM     13  C   LIG    1        6.105   4.905   2.881  0.00  0.00    +0.007 A 
ATOM     14  C   LIG    1        7.178   4.123   3.286  0.00  0.00    +0.001 A 
ATOM     15  C   LIG    1        7.666   3.109   2.455  0.00  0.00    +0.011 A 
BRANCH  11  16
ATOM     16  N   LIG    1        5.405   3.583  -0.524  0.00  0.00    +0.080 N 
ATOM     17  O   LIG    1        4.172   3.467  -0.549  0.00  0.00    -0.576 OA
ATOM     18  O   LIG    1        6.127   3.729  -1.520  0.00  0.00    +0.042 OA
ENDBRANCH  11  16
ENDBRANCH   2  10
BRANCH   1  19
ATOM     19  C   LIG    1        9.870   2.590  -0.730  0.00  0.00    +0.337 C 
ATOM     20  O   LIG    1       10.880   2.305  -1.337  0.00  0.00    -0.245 OA
BRANCH  19  22
ATOM     21  C   LIG    1        9.332   4.412  -2.131  0.00  0.00    +0.280 C 
ATOM     22  O   LIG    1        9.082   3.664  -0.938  0.00  0.00    -0.465 OA
ENDBRANCH  19  22
ENDBRANCH   1  19
BRANCH   3  23
ATOM     23  C   LIG    1        5.852  -0.062   0.308  0.00  0.00    +0.338 C 
ATOM     24  O   LIG    1        5.016   0.744  -0.060  0.00  0.00    -0.245 OA
BRANCH  23  25
ATOM     25  O   LIG    1        5.717  -1.402   0.266  0.00  0.00    -0.461 OA
BRANCH  25  26
ATOM     26  C   LIG    1        4.460  -1.961  -0.132  0.00  0.00    +0.235 C 
BRANCH  26  27
ATOM     27  C   LIG    1        3.611  -2.336   1.094  0.00  0.00    +0.021 C 
ATOM     28  C   LIG    1        3.261  -1.106   1.932  0.00  0.00    +0.010 C 
ATOM     29  C   LIG    1        4.302  -3.384   1.971  0.00  0.00    +0.010 C 
ENDBRANCH  26  27
ENDBRANCH  25  26
ENDBRANCH  23  25
ENDBRANCH   3  23
TORSDOF 8
