REMARK  Name = *****
REMARK                            x       y       z     vdW  Elec       q    Type
REMARK                         _______ _______ _______ _____ _____    ______ ____
ROOT
ATOM      1  N   LIG    1        0.459  -3.557  -3.077  0.00  0.00    -0.297 NA
ATOM      2  C   LIG    1        1.071  -4.125  -4.304  0.00  0.00    +0.100 C 
ATOM      3  C   LIG    1        0.862  -5.652  -4.483  0.00  0.00    +0.100 C 
ATOM      4  N   LIG    1       -0.548  -6.110  -4.443  0.00  0.00    -0.292 NA
ATOM      5  C   LIG    1       -1.169  -5.525  -3.220  0.00  0.00    +0.100 C 
ATOM      6  C   LIG    1       -0.953  -3.997  -3.036  0.00  0.00    +0.100 C 
ENDROOT
BRANCH   1   7
ATOM      7  C   LIG    1        1.227  -3.941  -1.865  0.00  0.00    +0.119 C 
BRANCH   7   8
ATOM      8  C   LIG    1        0.743  -3.330  -0.518  0.00  0.00    +0.166 C 
BRANCH   8   9
ATOM      9  O   LIG    1       -0.558  -3.821  -0.171  0.00  0.00    -0.387 OA
ATOM     10  H   LIG    1       -0.819  -3.320   0.621  0.00  0.00    +0.210 HD
ENDBRANCH   8   9
BRANCH   8  11
ATOM     11  C   LIG    1        1.677  -3.744   0.631  0.00  0.00    +0.261 C 
BRANCH  11  12
ATOM     12  O   LIG    1        1.208  -3.143   1.854  0.00  0.00    -0.486 OA
BRANCH  12  14
ATOM     13  C   LIG    1        1.264  -3.490   4.233  0.00  0.00    +0.162 A 
ATOM     14  C   LIG    1        1.920  -3.455   2.989  0.00  0.00    +0.162 A 
ATOM     15  C   LIG    1        3.313  -3.623   2.959  0.00  0.00    +0.049 A 
ATOM     16  C   LIG    1        4.046  -3.805   4.134  0.00  0.00    +0.004 A 
ATOM     17  C   LIG    1        3.398  -3.824   5.361  0.00  0.00    +0.004 A 
ATOM     18  C   LIG    1        2.015  -3.668   5.407  0.00  0.00    +0.049 A 
BRANCH  13  20
ATOM     19  C   LIG    1       -0.974  -3.783   3.489  0.00  0.00    +0.277 C 
ATOM     20  O   LIG    1       -0.073  -3.319   4.483  0.00  0.00    -0.491 OA
ENDBRANCH  13  20
ENDBRANCH  12  14
ENDBRANCH  11  12
ENDBRANCH   8  11
ENDBRANCH   7   8
ENDBRANCH   1   7
BRANCH   4  21
ATOM     21  C   LIG    1       -1.304  -5.699  -5.657  0.00  0.00    +0.180 C 
BRANCH  21  22
ATOM     22  C   LIG    1       -0.662  -6.240  -6.953  0.00  0.00    +0.231 C 
ATOM     23  N   LIG    1       -0.573  -7.620  -6.996  0.00  0.00    -0.284 N 
ATOM     24  H   LIG    1       -0.576  -8.040  -6.064  0.00  0.00    +0.155 HD
ATOM     25  O   LIG    1       -0.232  -5.452  -7.816  0.00  0.00    -0.274 OA
BRANCH  23  26
ATOM     26  C   LIG    1        0.096  -8.346  -8.025  0.00  0.00    +0.039 A 
ATOM     27  C   LIG    1        1.081  -9.302  -7.680  0.00  0.00    -0.029 A 
ATOM     28  C   LIG    1        1.482  -9.601  -6.261  0.00  0.00    +0.045 C 
ATOM     29  C   LIG    1        1.710 -10.056  -8.691  0.00  0.00    +0.005 A 
ATOM     30  C   LIG    1        1.381  -9.878 -10.028  0.00  0.00    +0.001 A 
ATOM     31  C   LIG    1        0.394  -8.965 -10.370  0.00  0.00    +0.005 A 
ATOM     32  C   LIG    1       -0.277  -8.212  -9.384  0.00  0.00    -0.029 A 
ATOM     33  C   LIG    1       -1.488  -7.440  -9.833  0.00  0.00    +0.045 C 
ENDBRANCH  23  26
ENDBRANCH  21  22
ENDBRANCH   4  21
TORSDOF 10
