REMARK  Name = *****
REMARK                            x       y       z     vdW  Elec       q    Type
REMARK                         _______ _______ _______ _____ _____    ______ ____
ROOT
ATOM      1  O   LIG    1        1.425   0.342   0.873  0.00  0.00    -0.252 OA
ATOM      2  C   LIG    1        2.475   0.261   0.259  0.00  0.00    +0.307 C 
ATOM      3  N   LIG    1        3.054   1.285  -0.437  0.00  0.00    -0.278 N 
ATOM      4  H   LIG    1        2.595   2.178  -0.532  0.00  0.00    +0.152 HD
ATOM      5  C   LIG    1        4.291   0.907  -1.106  0.00  0.00    +0.163 C 
ATOM      6  C   LIG    1        4.330  -0.585  -0.633  0.00  0.00    +0.253 C 
ATOM      7  O   LIG    1        5.170  -1.434  -0.910  0.00  0.00    -0.272 OA
ATOM      8  N   LIG    1        3.245  -0.838   0.147  0.00  0.00    -0.238 N 
ATOM      9  H   LIG    1        3.028  -1.729   0.560  0.00  0.00    +0.159 HD
ENDROOT
BRANCH   5  10
ATOM     10  C   LIG    1        4.104   1.087  -2.621  0.00  0.00    -0.011 A 
ATOM     11  C   LIG    1        3.990  -0.001  -3.505  0.00  0.00    +0.006 A 
ATOM     12  C   LIG    1        3.808   0.199  -4.877  0.00  0.00    +0.000 A 
ATOM     13  C   LIG    1        3.733   1.488  -5.394  0.00  0.00    +0.000 A 
ATOM     14  C   LIG    1        3.839   2.582  -4.540  0.00  0.00    +0.000 A 
ATOM     15  C   LIG    1        4.020   2.384  -3.168  0.00  0.00    +0.006 A 
ENDBRANCH   5  10
BRANCH   5  16
ATOM     16  C   LIG    1        5.510   1.664  -0.558  0.00  0.00    -0.011 A 
ATOM     17  C   LIG    1        5.393   2.766   0.310  0.00  0.00    +0.006 A 
ATOM     18  C   LIG    1        6.526   3.433   0.783  0.00  0.00    +0.000 A 
ATOM     19  C   LIG    1        7.797   3.014   0.400  0.00  0.00    +0.000 A 
ATOM     20  C   LIG    1        7.937   1.932  -0.463  0.00  0.00    +0.000 A 
ATOM     21  C   LIG    1        6.806   1.268  -0.942  0.00  0.00    +0.006 A 
ENDBRANCH   5  16
TORSDOF 2
