REMARK  Name = *****
REMARK                            x       y       z     vdW  Elec       q    Type
REMARK                         _______ _______ _______ _____ _____    ______ ____
ROOT
ATOM      1  C   LIG    1        2.924  -0.467   1.246  0.00  0.00    -0.022 A 
ATOM      2  C   LIG    1        2.743  -1.820   1.564  0.00  0.00    +0.006 A 
ATOM      3  C   LIG    1        3.219  -2.335   2.771  0.00  0.00    +0.000 A 
ATOM      4  C   LIG    1        3.889  -1.505   3.668  0.00  0.00    +0.000 A 
ATOM      5  C   LIG    1        4.090  -0.162   3.356  0.00  0.00    +0.000 A 
ATOM      6  C   LIG    1        3.614   0.354   2.149  0.00  0.00    +0.006 A 
ENDROOT
BRANCH   1   7
ATOM      7  C   LIG    1        2.419   0.086  -0.056  0.00  0.00    +0.191 C 
BRANCH   7   8
ATOM      8  O   LIG    1        3.431  -0.047  -1.041  0.00  0.00    -0.390 OA
ATOM      9  H   LIG    1        3.069   0.317  -1.865  0.00  0.00    +0.210 HD
ENDBRANCH   7   8
ENDBRANCH   1   7
TORSDOF 2
