REMARK  Name = *****
REMARK                            x       y       z     vdW  Elec       q    Type
REMARK                         _______ _______ _______ _____ _____    ______ ____
ROOT
ATOM      1  C   LIG    1       -2.005  -1.316   1.717  0.00  0.00    +0.258 C 
ATOM      2  C   LIG    1       -2.719  -2.513   0.948  0.00  0.00    +0.274 C 
ATOM      3  N   LIG    1       -3.610  -1.523   0.343  0.00  0.00    -0.230 N 
ATOM      4  C   LIG    1       -4.911  -1.878   0.045  0.00  0.00    +0.125 C 
ATOM      5  C   LIG    1       -5.394  -3.096   0.390  0.00  0.00    -0.005 C 
ATOM      6  C   LIG    1       -4.513  -4.117   1.081  0.00  0.00    +0.196 C 
ATOM      7  O   LIG    1       -3.402  -3.513   1.724  0.00  0.00    -0.349 OA
ATOM      8  C   LIG    1       -3.271  -0.524   1.204  0.00  0.00    +0.277 C 
ATOM      9  O   LIG    1       -3.812   0.528   1.521  0.00  0.00    -0.270 OA
ENDROOT
BRANCH   1  10
ATOM     10  N   LIG    1       -1.958  -1.454   3.208  0.00  0.00    -0.276 N 
ATOM     11  H   LIG    1       -2.501  -0.799   3.759  0.00  0.00    +0.152 HD
ATOM     12  C   LIG    1       -1.336  -2.522   3.827  0.00  0.00    +0.234 C 
ATOM     13  O   LIG    1       -0.764  -3.406   3.191  0.00  0.00    -0.275 OA
BRANCH  12  14
ATOM     14  C   LIG    1       -1.440  -2.537   5.355  0.00  0.00    +0.213 C 
BRANCH  14  15
ATOM     15  C   LIG    1       -0.086  -2.310   6.046  0.00  0.00    -0.025 A 
ATOM     16  C   LIG    1        0.114  -1.197   6.887  0.00  0.00    +0.008 A 
ATOM     17  C   LIG    1        1.318  -1.022   7.584  0.00  0.00    +0.045 A 
ATOM     18  C   LIG    1        2.342  -1.947   7.438  0.00  0.00    +0.117 A 
ATOM     19  C   LIG    1        2.189  -3.034   6.586  0.00  0.00    +0.045 A 
ATOM     20  C   LIG    1        0.982  -3.214   5.894  0.00  0.00    +0.008 A 
BRANCH  18  21
ATOM     21  O   LIG    1        3.486  -1.751   8.154  0.00  0.00    -0.507 OA
ATOM     22  H   LIG    1        4.080  -2.506   8.005  0.00  0.00    +0.292 HD
ENDBRANCH  18  21
ENDBRANCH  14  15
BRANCH  14  23
ATOM     23  C   LIG    1       -2.154  -3.801   5.817  0.00  0.00    +0.321 C 
ATOM     24  O   LIG    1       -2.001  -4.402   6.870  0.00  0.00    -0.250 OA
BRANCH  23  25
ATOM     25  O   LIG    1       -3.129  -4.205   4.970  0.00  0.00    -0.480 OA
ATOM     26  H   LIG    1       -3.459  -5.051   5.338  0.00  0.00    +0.295 HD
ENDBRANCH  23  25
ENDBRANCH  14  23
ENDBRANCH  12  14
ENDBRANCH   1  10
BRANCH   1  28
ATOM     27  C   LIG    1       -0.413   0.513   1.441  0.00  0.00    +0.197 C 
ATOM     28  O   LIG    1       -0.753  -0.837   1.149  0.00  0.00    -0.348 OA
ENDBRANCH   1  28
BRANCH   4  29
ATOM     29  C   LIG    1       -5.738  -0.875  -0.709  0.00  0.00    +0.351 C 
ATOM     30  O   LIG    1       -6.914  -0.973  -1.020  0.00  0.00    -0.244 OA
BRANCH  29  31
ATOM     31  O   LIG    1       -5.021   0.172  -1.149  0.00  0.00    -0.476 OA
ATOM     32  H   LIG    1       -5.699   0.778  -1.510  0.00  0.00    +0.295 HD
ENDBRANCH  29  31
ENDBRANCH   4  29
BRANCH   5  33
ATOM     33  C   LIG    1       -6.796  -3.596   0.121  0.00  0.00    +0.112 C 
BRANCH  33  34
ATOM     34  S   LIG    1       -7.959  -3.267   1.490  0.00  0.00    -0.080 S 
BRANCH  34  35
ATOM     35  C   LIG    1       -7.944  -1.544   1.609  0.00  0.00    +0.209 A 
ATOM     36  N   LIG    1       -8.821  -0.693   0.998  0.00  0.00    -0.223 N 
ATOM     37  C   LIG    1       -9.970  -0.957   0.180  0.00  0.00    +0.177 C 
ATOM     38  N   LIG    1       -8.457   0.581   1.250  0.00  0.00    -0.043 NA
ATOM     39  N   LIG    1       -7.384   0.488   2.024  0.00  0.00    -0.022 NA
ATOM     40  N   LIG    1       -7.064  -0.828   2.272  0.00  0.00    -0.102 NA
ENDBRANCH  34  35
ENDBRANCH  33  34
ENDBRANCH   5  33
TORSDOF 12
