REMARK  Name = *****
REMARK                            x       y       z     vdW  Elec       q    Type
REMARK                         _______ _______ _______ _____ _____    ______ ____
ROOT
ATOM      1  C   LIG    1        1.902  -5.005   6.309  0.00  0.00    -0.027 C 
ATOM      2  C   LIG    1        0.723  -5.041   6.755  0.00  0.00    -0.027 C 
ENDROOT
BRANCH   1   3
ATOM      3  C   LIG    1        2.508  -4.047   5.417  0.00  0.00    +0.054 C 
BRANCH   3   5
ATOM      4  C   LIG    1        3.644  -5.640   3.835  0.00  0.00    -0.027 C 
ATOM      5  C   LIG    1        2.633  -4.819   4.165  0.00  0.00    -0.027 C 
BRANCH   4   6
ATOM      6  C   LIG    1        4.979  -5.749   4.524  0.00  0.00    +0.054 C 
BRANCH   6   8
ATOM      7  C   LIG    1        5.104  -7.030   6.780  0.00  0.00    -0.027 C 
ATOM      8  C   LIG    1        5.160  -6.945   5.430  0.00  0.00    -0.027 C 
BRANCH   7   9
ATOM      9  C   LIG    1        4.788  -5.976   7.837  0.00  0.00    +0.054 C 
BRANCH   9  11
ATOM     10  C   LIG    1        2.509  -5.572   9.003  0.00  0.00    -0.031 C 
ATOM     11  C   LIG    1        3.583  -6.354   8.725  0.00  0.00    -0.027 C 
BRANCH  10  13
ATOM     12  C   LIG    1       -0.249  -6.290   9.040  0.00  0.00    +0.008 C 
ATOM     13  C   LIG    1        1.172  -6.000   9.695  0.00  0.00    +0.023 C 
ENDBRANCH  10  13
ENDBRANCH   9  11
ENDBRANCH   7   9
ENDBRANCH   6   8
ENDBRANCH   4   6
ENDBRANCH   3   5
ENDBRANCH   1   3
BRANCH   2  14
ATOM     14  C   LIG    1       -0.604  -4.368   6.618  0.00  0.00    +0.054 C 
BRANCH  14  15
ATOM     15  C   LIG    1       -0.753  -4.148   5.186  0.00  0.00    -0.027 C 
ATOM     16  C   LIG    1       -0.760  -2.918   4.681  0.00  0.00    -0.031 C 
BRANCH  16  17
ATOM     17  C   LIG    1       -0.745  -2.715   3.219  0.00  0.00    +0.027 C 
BRANCH  17  18
ATOM     18  C   LIG    1       -1.536  -1.462   2.954  0.00  0.00    +0.015 C 
BRANCH  18  19
ATOM     19  C   LIG    1       -1.707  -1.159   1.474  0.00  0.00    +0.121 C 
BRANCH  19  20
ATOM     20  C   LIG    1       -2.499   0.111   1.244  0.00  0.00    +0.307 C 
ATOM     21  O   LIG    1       -2.675   0.615   0.143  0.00  0.00    -0.251 OA
BRANCH  20  22
ATOM     22  O   LIG    1       -2.956   0.629   2.413  0.00  0.00    -0.465 OA
BRANCH  22  23
ATOM     23  C   LIG    1       -2.593   1.984   2.705  0.00  0.00    +0.228 C 
ATOM     24  C   LIG    1       -1.196   2.020   3.311  0.00  0.00    +0.048 C 
ENDBRANCH  22  23
ENDBRANCH  20  22
ENDBRANCH  19  20
ENDBRANCH  18  19
ENDBRANCH  17  18
ENDBRANCH  16  17
ENDBRANCH  14  15
ENDBRANCH   2  14
TORSDOF 15
