REMARK  Name = *****
REMARK                            x       y       z     vdW  Elec       q    Type
REMARK                         _______ _______ _______ _____ _____    ______ ____
ROOT
ATOM      1  C   LIG    1        6.589  -5.130  -1.591  0.00  0.00    +0.130 C 
ATOM      2  C   LIG    1        5.068  -5.173  -1.827  0.00  0.00    +0.079 C 
ATOM      3  C   LIG    1        4.383  -3.860  -1.435  0.00  0.00    +0.158 C 
ATOM      4  C   LIG    1        4.607  -3.651   0.058  0.00  0.00    +0.030 A 
ATOM      5  C   LIG    1        5.860  -3.980   0.629  0.00  0.00    +0.007 A 
ATOM      6  C   LIG    1        6.109  -3.654   1.971  0.00  0.00    +0.132 A 
ATOM      7  C   LIG    1        5.104  -3.128   2.796  0.00  0.00    +0.078 A 
ATOM      8  C   LIG    1        5.383  -2.834   4.211  0.00  0.00    +0.198 C 
ATOM      9  O   LIG    1        6.541  -2.843   4.620  0.00  0.00    -0.286 OA
ATOM     10  C   LIG    1        4.263  -2.565   5.130  0.00  0.00    +0.033 A 
ATOM     11  C   LIG    1        2.970  -2.473   4.638  0.00  0.00    +0.033 A 
ATOM     12  C   LIG    1        1.901  -2.296   5.544  0.00  0.00    +0.012 A 
ATOM     13  C   LIG    1        2.147  -2.183   6.912  0.00  0.00    +0.001 A 
ATOM     14  C   LIG    1        3.455  -2.244   7.396  0.00  0.00    +0.001 A 
ATOM     15  C   LIG    1        2.716  -2.587   3.189  0.00  0.00    +0.198 C 
ATOM     16  O   LIG    1        1.583  -2.424   2.737  0.00  0.00    -0.286 OA
ATOM     17  C   LIG    1        4.513  -2.433   6.511  0.00  0.00    +0.012 A 
ATOM     18  C   LIG    1        3.814  -2.947   2.278  0.00  0.00    +0.078 A 
ATOM     19  C   LIG    1        3.591  -3.168   0.901  0.00  0.00    +0.135 A 
ATOM     20  C   LIG    1        6.893  -4.814  -0.118  0.00  0.00    +0.082 C 
ENDROOT
BRANCH   1  22
ATOM     21  C   LIG    1        8.694  -6.660  -1.855  0.00  0.00    +0.089 C 
ATOM     22  C   LIG    1        7.200  -6.490  -1.993  0.00  0.00    +0.162 C 
ATOM     23  O   LIG    1        6.517  -7.414  -2.446  0.00  0.00    -0.295 OA
ENDBRANCH   1  22
BRANCH   1  24
ATOM     24  O   LIG    1        7.242  -4.160  -2.418  0.00  0.00    -0.381 OA
ATOM     25  H   LIG    1        6.690  -4.045  -3.218  0.00  0.00    +0.211 HD
ENDBRANCH   1  24
BRANCH   6  26
ATOM     26  O   LIG    1        7.366  -3.920   2.457  0.00  0.00    -0.506 OA
ATOM     27  H   LIG    1        7.447  -3.524   3.354  0.00  0.00    +0.292 HD
ENDBRANCH   6  26
BRANCH  19  28
ATOM     28  O   LIG    1        2.344  -2.984   0.351  0.00  0.00    -0.506 OA
ATOM     29  H   LIG    1        1.721  -2.710   1.062  0.00  0.00    +0.292 HD
ENDBRANCH  19  28
BRANCH   3  30
ATOM     30  O   LIG    1        4.903  -2.710  -2.127  0.00  0.00    -0.343 OA
BRANCH  30  31
ATOM     31  C   LIG    1        4.543  -2.624  -3.512  0.00  0.00    +0.253 C 
ATOM     32  O   LIG    1        5.173  -3.687  -4.230  0.00  0.00    -0.346 OA
ATOM     33  C   LIG    1        4.889  -3.738  -5.628  0.00  0.00    +0.148 C 
ATOM     34  C   LIG    1        3.458  -4.203  -5.897  0.00  0.00    +0.040 C 
ATOM     35  C   LIG    1        5.336  -2.436  -6.312  0.00  0.00    +0.160 C 
ATOM     36  C   LIG    1        4.849  -1.162  -5.583  0.00  0.00    +0.087 C 
ATOM     37  C   LIG    1        5.061  -1.295  -4.068  0.00  0.00    +0.082 C 
BRANCH  36  38
ATOM     38  N   LIG    1        3.464  -0.784  -5.905  0.00  0.00    -0.325 NA
ATOM     39  H   LIG    1        3.397  -0.536  -6.892  0.00  0.00    +0.119 HD
ATOM     40  H   LIG    1        2.799  -1.529  -5.723  0.00  0.00    +0.119 HD
ENDBRANCH  36  38
BRANCH  35  41
ATOM     41  O   LIG    1        5.000  -2.408  -7.699  0.00  0.00    -0.388 OA
ATOM     42  H   LIG    1        4.035  -2.330  -7.772  0.00  0.00    +0.210 HD
ENDBRANCH  35  41
ENDBRANCH  30  31
ENDBRANCH   3  30
TORSDOF 8
