REMARK  Name = *****
REMARK                            x       y       z     vdW  Elec       q    Type
REMARK                         _______ _______ _______ _____ _____    ______ ____
ROOT
ATOM      1  C   LIG    1        1.482  -0.187   0.408  0.00  0.00    +0.061 C 
ATOM      2  C   LIG    1        2.897   0.091  -0.020  0.00  0.00    +0.016 C 
ATOM      3  N   LIG    1        3.579  -0.966  -0.614  0.00  0.00    -0.321 N 
ATOM      4  H   LIG    1        3.097  -1.863  -0.636  0.00  0.00    +0.152 HD
ATOM      5  C   LIG    1        4.966  -1.003  -0.713  0.00  0.00    +0.017 C 
ATOM      6  C   LIG    1        5.569  -2.358  -0.952  0.00  0.00    +0.061 C 
ATOM      7  C   LIG    1        5.677   0.144  -0.579  0.00  0.00    +0.070 C 
ATOM      8  C   LIG    1        4.918   1.467  -0.496  0.00  0.00    +0.097 C 
ATOM      9  C   LIG    1        3.542   1.275   0.129  0.00  0.00    +0.065 C 
ENDROOT
BRANCH   7  10
ATOM     10  P   LIG    1        7.419   0.304  -0.504  0.00  0.00    +0.362 P 
ATOM     11  O   LIG    1        7.739   1.470   0.580  0.00  0.00    -0.304 OA
ATOM     12  C   LIG    1        7.389   1.271   1.939  0.00  0.00    +0.179 C 
ATOM     13  C   LIG    1        8.088   0.041   2.520  0.00  0.00    +0.013 C 
ATOM     14  C   LIG    1        9.612   0.256   2.514  0.00  0.00    +0.015 C 
ATOM     15  C   LIG    1        7.617  -0.182   3.965  0.00  0.00    +0.015 C 
ATOM     16  C   LIG    1        7.714  -1.175   1.662  0.00  0.00    +0.179 C 
ATOM     17  O   LIG    1        8.019  -0.976   0.295  0.00  0.00    -0.304 OA
ATOM     18  O   LIG    1        8.217   0.536  -1.758  0.00  0.00    -0.253 OA
ENDBRANCH   7  10
BRANCH   8  19
ATOM     19  C   LIG    1        4.839   2.168  -1.861  0.00  0.00    -0.029 A 
ATOM     20  C   LIG    1        5.498   3.391  -2.079  0.00  0.00    +0.088 A 
ATOM     21  C   LIG    1        5.411   4.024  -3.332  0.00  0.00    +0.273 A 
ATOM     22  C   LIG    1        4.685   3.447  -4.381  0.00  0.00    +0.084 A 
ATOM     23  C   LIG    1        4.032   2.236  -4.171  0.00  0.00    +0.007 A 
ATOM     24  C   LIG    1        4.106   1.609  -2.926  0.00  0.00    +0.005 A 
BRANCH  21  25
ATOM     25  N   LIG    1        6.074   5.317  -3.548  0.00  0.00    +0.080 N 
ATOM     26  O   LIG    1        6.703   5.812  -2.600  0.00  0.00    -0.576 OA
ATOM     27  O   LIG    1        5.958   5.847  -4.663  0.00  0.00    +0.041 OA
ENDBRANCH  21  25
ENDBRANCH   8  19
BRANCH   9  28
ATOM     28  C   LIG    1        3.099   2.398   0.965  0.00  0.00    +0.338 C 
ATOM     29  O   LIG    1        3.415   3.553   0.729  0.00  0.00    -0.245 OA
BRANCH  28  30
ATOM     30  O   LIG    1        2.533   1.960   2.097  0.00  0.00    -0.460 OA
BRANCH  30  31
ATOM     31  C   LIG    1        2.276   2.951   3.100  0.00  0.00    +0.251 C 
BRANCH  31  32
ATOM     32  C   LIG    1        3.523   3.185   3.967  0.00  0.00    +0.146 C 
BRANCH  32  33
ATOM     33  N   LIG    1        3.277   4.209   5.008  0.00  0.00    -0.322 N 
BRANCH  33  34
ATOM     34  C   LIG    1        3.949   5.436   4.884  0.00  0.00    +0.030 A 
ATOM     35  C   LIG    1        4.289   5.973   3.625  0.00  0.00    +0.023 A 
ATOM     36  C   LIG    1        5.005   7.173   3.484  0.00  0.00    +0.002 A 
ATOM     37  C   LIG    1        5.375   7.902   4.605  0.00  0.00    +0.000 A 
ATOM     38  C   LIG    1        5.003   7.441   5.859  0.00  0.00    +0.002 A 
ATOM     39  C   LIG    1        4.303   6.232   5.989  0.00  0.00    +0.023 A 
ENDBRANCH  33  34
BRANCH  33  40
ATOM     40  C   LIG    1        2.867   3.702   6.335  0.00  0.00    +0.140 C 
BRANCH  40  41
ATOM     41  C   LIG    1        1.539   2.970   6.292  0.00  0.00    -0.030 A 
ATOM     42  C   LIG    1        0.331   3.680   6.397  0.00  0.00    +0.005 A 
ATOM     43  C   LIG    1       -0.893   3.018   6.287  0.00  0.00    +0.000 A 
ATOM     44  C   LIG    1       -0.925   1.647   6.038  0.00  0.00    +0.000 A 
ATOM     45  C   LIG    1        0.265   0.929   5.941  0.00  0.00    +0.000 A 
ATOM     46  C   LIG    1        1.489   1.581   6.097  0.00  0.00    +0.005 A 
ENDBRANCH  40  41
ENDBRANCH  33  40
ENDBRANCH  32  33
ENDBRANCH  31  32
ENDBRANCH  30  31
ENDBRANCH  28  30
ENDBRANCH   9  28
TORSDOF 11
