REMARK  Name = *****
REMARK                            x       y       z     vdW  Elec       q    Type
REMARK                         _______ _______ _______ _____ _____    ______ ____
ROOT
ATOM      1  C   LIG    1        5.441   6.964   2.577  0.00  0.00    +0.210 C 
ATOM      2  C   LIG    1        5.044   8.473   2.284  0.00  0.00    +0.126 C 
ATOM      3  C   LIG    1        4.321   9.136   3.468  0.00  0.00    +0.048 C 
ATOM      4  C   LIG    1        4.231   8.557   0.946  0.00  0.00    +0.159 C 
ATOM      5  C   LIG    1        3.364   9.817   0.713  0.00  0.00    +0.084 C 
ATOM      6  C   LIG    1        4.176  11.085   0.484  0.00  0.00    +0.018 C 
ATOM      7  C   LIG    1        2.449   9.520  -0.490  0.00  0.00    +0.142 C 
ATOM      8  O   LIG    1        2.947   9.178  -1.568  0.00  0.00    -0.297 OA
ATOM      9  C   LIG    1        0.915   9.616  -0.327  0.00  0.00    +0.055 C 
ATOM     10  C   LIG    1        0.582  11.072  -0.027  0.00  0.00    +0.015 C 
ATOM     11  C   LIG    1        0.404   8.510   0.651  0.00  0.00    +0.048 C 
ATOM     12  C   LIG    1       -1.053   8.545   1.270  0.00  0.00    +0.093 C 
ATOM     13  C   LIG    1       -1.205   9.806   2.163  0.00  0.00    +0.044 C 
ATOM     14  C   LIG    1       -1.411   7.210   2.209  0.00  0.00    +0.158 C 
ATOM     15  C   LIG    1       -0.301   7.012   3.308  0.00  0.00    +0.047 C 
ATOM     16  C   LIG    1       -0.639   7.391   4.757  0.00  0.00    +0.013 C 
ATOM     17  C   LIG    1        0.724   5.786   3.087  0.00  0.00    +0.140 C 
ATOM     18  C   LIG    1        2.084   6.306   3.609  0.00  0.00    +0.124 C 
ATOM     19  C   LIG    1        2.387   6.122   5.094  0.00  0.00    +0.022 C 
ATOM     20  C   LIG    1        3.244   5.947   2.696  0.00  0.00    +0.313 C 
ATOM     21  O   LIG    1        3.164   5.635   1.536  0.00  0.00    -0.250 OA
ATOM     22  O   LIG    1        4.378   6.342   3.326  0.00  0.00    -0.458 OA
ENDROOT
BRANCH   1  24
ATOM     23  C   LIG    1        8.006   7.225   2.935  0.00  0.00    +0.007 C 
ATOM     24  C   LIG    1        6.675   6.741   3.478  0.00  0.00    +0.044 C 
ENDBRANCH   1  24
BRANCH   2  25
ATOM     25  O   LIG    1        6.224   9.259   2.065  0.00  0.00    -0.383 OA
ATOM     26  H   LIG    1        6.511   9.024   1.156  0.00  0.00    +0.210 HD
ENDBRANCH   2  25
BRANCH   4  27
ATOM     27  O   LIG    1        5.200   8.400  -0.114  0.00  0.00    -0.388 OA
ATOM     28  H   LIG    1        4.702   8.445  -0.961  0.00  0.00    +0.210 HD
ENDBRANCH   4  27
BRANCH  12  29
ATOM     29  O   LIG    1       -2.010   8.773   0.215  0.00  0.00    -0.374 OA
ATOM     30  C   LIG    1       -2.191   7.748  -0.745  0.00  0.00    +0.195 C 
ENDBRANCH  12  29
BRANCH  14  31
ATOM     31  O   LIG    1       -2.721   7.447   2.771  0.00  0.00    -0.342 OA
BRANCH  31  32
ATOM     32  C   LIG    1       -3.314   6.443   3.607  0.00  0.00    +0.281 C 
ATOM     33  C   LIG    1       -4.643   7.005   4.214  0.00  0.00    +0.187 C 
ATOM     34  C   LIG    1       -5.917   6.283   3.692  0.00  0.00    +0.092 C 
ATOM     35  C   LIG    1       -5.729   4.750   3.739  0.00  0.00    +0.053 C 
ATOM     36  C   LIG    1       -4.263   4.311   3.744  0.00  0.00    +0.120 C 
ATOM     37  C   LIG    1       -4.117   2.901   3.194  0.00  0.00    +0.038 C 
ATOM     38  O   LIG    1       -3.492   5.199   2.932  0.00  0.00    -0.346 OA
BRANCH  34  39
ATOM     39  N   LIG    1       -6.448   6.842   2.423  0.00  0.00    -0.303 NA
ATOM     40  C   LIG    1       -5.551   6.698   1.278  0.00  0.00    +0.105 C 
ATOM     41  C   LIG    1       -7.770   6.321   2.076  0.00  0.00    +0.105 C 
ENDBRANCH  34  39
BRANCH  33  42
ATOM     42  O   LIG    1       -4.606   6.828   5.658  0.00  0.00    -0.385 OA
ATOM     43  H   LIG    1       -5.385   7.292   6.015  0.00  0.00    +0.210 HD
ENDBRANCH  33  42
ENDBRANCH  31  32
ENDBRANCH  14  31
BRANCH  17  44
ATOM     44  O   LIG    1        0.348   4.519   3.685  0.00  0.00    -0.347 OA
BRANCH  44  45
ATOM     45  C   LIG    1        1.250   3.387   3.414  0.00  0.00    +0.254 C 
ATOM     46  O   LIG    1        1.346   3.089   2.021  0.00  0.00    -0.346 OA
ATOM     47  C   LIG    1        2.210   1.985   1.668  0.00  0.00    +0.150 C 
ATOM     48  C   LIG    1        3.692   2.331   1.775  0.00  0.00    +0.040 C 
ATOM     49  C   LIG    1        1.820   0.677   2.389  0.00  0.00    +0.175 C 
ATOM     50  C   LIG    1        1.609   0.856   3.916  0.00  0.00    +0.099 C 
ATOM     51  C   LIG    1        2.926   0.957   4.711  0.00  0.00    +0.044 C 
ATOM     52  C   LIG    1        0.751   2.130   4.159  0.00  0.00    +0.098 C 
BRANCH  49  53
ATOM     53  O   LIG    1        0.598   0.209   1.779  0.00  0.00    -0.386 OA
ATOM     54  H   LIG    1       -0.030   0.954   1.782  0.00  0.00    +0.210 HD
ENDBRANCH  49  53
BRANCH  50  55
ATOM     55  O   LIG    1        0.853  -0.246   4.489  0.00  0.00    -0.374 OA
ATOM     56  C   LIG    1        1.404  -1.554   4.351  0.00  0.00    +0.195 C 
ENDBRANCH  50  55
ENDBRANCH  44  45
ENDBRANCH  17  44
TORSDOF 12
