REMARK  Name = *****
REMARK                            x       y       z     vdW  Elec       q    Type
REMARK                         _______ _______ _______ _____ _____    ______ ____
ROOT
ATOM      1  C   LIG    1        2.883  -3.800  -8.596  0.00  0.00    +0.104 C 
ATOM      2  N   LIG    1        3.732  -3.105  -9.599  0.00  0.00    -0.316 N 
ATOM      3  C   LIG    1        3.027  -3.308 -10.908  0.00  0.00    +0.104 C 
ATOM      4  C   LIG    1        2.351  -4.693 -10.750  0.00  0.00    +0.029 C 
ATOM      5  C   LIG    1        2.575  -5.116  -9.304  0.00  0.00    +0.029 C 
ENDROOT
BRANCH   1   9
ATOM      6  C   LIG    1        3.848  -3.844  -4.350  0.00  0.00    +0.034 A 
ATOM      7  C   LIG    1        3.694  -5.049  -5.046  0.00  0.00    +0.023 A 
ATOM      8  C   LIG    1        3.423  -5.054  -6.424  0.00  0.00    +0.007 A 
ATOM      9  C   LIG    1        3.300  -3.854  -7.144  0.00  0.00    -0.027 A 
ATOM     10  C   LIG    1        3.520  -2.658  -6.450  0.00  0.00    +0.007 A 
ATOM     11  C   LIG    1        3.817  -2.657  -5.082  0.00  0.00    +0.023 A 
BRANCH   6  13
ATOM     12  C   LIG    1        4.191  -2.807  -2.089  0.00  0.00    +0.238 C 
ATOM     13  N   LIG    1        3.986  -3.891  -2.939  0.00  0.00    -0.284 N 
ATOM     14  H   LIG    1        3.933  -4.811  -2.520  0.00  0.00    +0.155 HD
ATOM     15  O   LIG    1        4.284  -1.630  -2.437  0.00  0.00    -0.273 OA
BRANCH  12  18
ATOM     16  C   LIG    1        6.596  -2.750  -0.022  0.00  0.00    +0.237 C 
ATOM     17  N   LIG    1        5.265  -2.415   0.126  0.00  0.00    -0.288 N 
ATOM     18  C   LIG    1        4.229  -3.174  -0.586  0.00  0.00    +0.162 C 
ATOM     19  C   LIG    1        2.915  -2.742   0.095  0.00  0.00    +0.033 C 
ATOM     20  C   LIG    1        3.356  -2.127   1.420  0.00  0.00    +0.021 C 
ATOM     21  C   LIG    1        4.667  -1.470   1.055  0.00  0.00    +0.109 C 
ATOM     22  O   LIG    1        6.944  -3.577  -0.874  0.00  0.00    -0.274 OA
BRANCH  16  23
ATOM     23  C   LIG    1        7.640  -2.071   0.911  0.00  0.00    +0.165 C 
BRANCH  23  25
ATOM     24  C   LIG    1        8.583  -3.988   2.153  0.00  0.00    +0.401 C 
ATOM     25  N   LIG    1        8.699  -3.054   1.161  0.00  0.00    -0.270 N 
ATOM     26  H   LIG    1        9.303  -3.317   0.392  0.00  0.00    +0.153 HD
ATOM     27  O   LIG    1        7.802  -3.932   3.080  0.00  0.00    -0.227 OA
BRANCH  24  29
ATOM     28  C   LIG    1        9.458  -6.020   2.925  0.00  0.00    +0.282 C 
ATOM     29  O   LIG    1        9.472  -4.993   1.929  0.00  0.00    -0.454 OA
ENDBRANCH  24  29
ENDBRANCH  23  25
BRANCH  23  30
ATOM     30  C   LIG    1        8.216  -0.771   0.305  0.00  0.00    +0.012 C 
ATOM     31  C   LIG    1        9.272  -0.160   1.236  0.00  0.00    +0.009 C 
ATOM     32  C   LIG    1        7.139   0.285   0.043  0.00  0.00    +0.009 C 
ENDBRANCH  23  30
ENDBRANCH  16  23
ENDBRANCH  12  18
ENDBRANCH   6  13
ENDBRANCH   1   9
BRANCH   2  33
ATOM     33  C   LIG    1        5.127  -3.129  -9.668  0.00  0.00    +0.031 A 
ATOM     34  C   LIG    1        5.788  -2.634 -10.804  0.00  0.00    +0.023 A 
ATOM     35  C   LIG    1        7.176  -2.656 -10.957  0.00  0.00    +0.006 A 
ATOM     36  C   LIG    1        8.014  -3.082  -9.927  0.00  0.00    -0.042 A 
ATOM     37  C   LIG    1        7.382  -3.538  -8.767  0.00  0.00    +0.006 A 
ATOM     38  C   LIG    1        5.979  -3.560  -8.649  0.00  0.00    +0.023 A 
BRANCH  36  39
ATOM     39  C   LIG    1        9.537  -3.049 -10.077  0.00  0.00    -0.013 C 
ATOM     40  C   LIG    1       10.010  -4.396 -10.652  0.00  0.00    +0.015 C 
ATOM     41  C   LIG    1       10.263  -2.815  -8.734  0.00  0.00    +0.015 C 
ATOM     42  C   LIG    1        9.983  -1.909 -11.024  0.00  0.00    +0.015 C 
ENDBRANCH  36  39
ENDBRANCH   2  33
BRANCH   3  43
ATOM     43  C   LIG    1        2.093  -2.136 -11.211  0.00  0.00    -0.027 A 
ATOM     44  C   LIG    1        0.944  -2.288 -11.999  0.00  0.00    +0.007 A 
ATOM     45  C   LIG    1        0.070  -1.211 -12.228  0.00  0.00    +0.023 A 
ATOM     46  C   LIG    1        0.353   0.065 -11.725  0.00  0.00    +0.034 A 
ATOM     47  C   LIG    1        1.548   0.243 -11.033  0.00  0.00    +0.023 A 
ATOM     48  C   LIG    1        2.401  -0.838 -10.777  0.00  0.00    +0.007 A 
BRANCH  46  49
ATOM     49  N   LIG    1       -0.585   1.105 -11.944  0.00  0.00    -0.284 N 
ATOM     50  H   LIG    1       -1.449   0.826 -12.393  0.00  0.00    +0.155 HD
ATOM     51  C   LIG    1       -0.449   2.454 -11.578  0.00  0.00    +0.238 C 
ATOM     52  O   LIG    1        0.511   2.938 -10.986  0.00  0.00    -0.273 OA
BRANCH  51  53
ATOM     53  C   LIG    1       -1.645   3.329 -12.048  0.00  0.00    +0.162 C 
ATOM     54  N   LIG    1       -1.671   4.748 -11.671  0.00  0.00    -0.288 N 
ATOM     55  C   LIG    1       -1.946   5.114 -10.357  0.00  0.00    +0.237 C 
ATOM     56  O   LIG    1       -1.804   4.306  -9.436  0.00  0.00    -0.274 OA
ATOM     57  C   LIG    1       -1.880   5.600 -12.823  0.00  0.00    +0.109 C 
ATOM     58  C   LIG    1       -1.497   4.774 -14.025  0.00  0.00    +0.021 C 
ATOM     59  C   LIG    1       -1.739   3.335 -13.585  0.00  0.00    +0.033 C 
BRANCH  55  60
ATOM     60  C   LIG    1       -2.564   6.534 -10.109  0.00  0.00    +0.165 C 
BRANCH  60  61
ATOM     61  N   LIG    1       -3.927   6.526 -10.662  0.00  0.00    -0.270 N 
ATOM     62  H   LIG    1       -4.610   5.846 -10.340  0.00  0.00    +0.153 HD
ATOM     63  C   LIG    1       -4.353   7.411 -11.596  0.00  0.00    +0.401 C 
ATOM     64  O   LIG    1       -3.606   8.159 -12.255  0.00  0.00    -0.227 OA
BRANCH  63  65
ATOM     65  O   LIG    1       -5.697   7.426 -11.664  0.00  0.00    -0.454 OA
ATOM     66  C   LIG    1       -6.217   8.680 -12.113  0.00  0.00    +0.282 C 
ENDBRANCH  63  65
ENDBRANCH  60  61
BRANCH  60  67
ATOM     67  C   LIG    1       -2.557   6.933  -8.595  0.00  0.00    +0.012 C 
ATOM     68  C   LIG    1       -3.365   8.193  -8.225  0.00  0.00    +0.009 C 
ATOM     69  C   LIG    1       -1.114   7.154  -8.113  0.00  0.00    +0.009 C 
ENDBRANCH  60  67
ENDBRANCH  55  60
ENDBRANCH  51  53
ENDBRANCH  46  49
ENDBRANCH   3  43
TORSDOF 16
