REMARK  Name = *****
REMARK                            x       y       z     vdW  Elec       q    Type
REMARK                         _______ _______ _______ _____ _____    ______ ____
ROOT
ATOM      1  C   LIG    1        1.323   0.521   2.816  0.00  0.00    +0.129 C 
ATOM      2  C   LIG    1        1.052   0.719   4.343  0.00  0.00    +0.009 C 
ATOM      3  C   LIG    1        1.712   2.096   4.638  0.00  0.00    +0.005 C 
ATOM      4  C   LIG    1        3.253   2.062   4.837  0.00  0.00    +0.034 C 
ATOM      5  C   LIG    1        3.711   0.979   5.850  0.00  0.00    +0.153 C 
ATOM      6  C   LIG    1        3.122  -0.402   5.486  0.00  0.00    +0.154 C 
ATOM      7  F   LIG    1        3.098   1.308   7.050  0.00  0.00    -0.238 F 
ATOM      8  C   LIG    1        5.298   1.022   6.095  0.00  0.00    +0.044 C 
ATOM      9  C   LIG    1        5.938   2.158   5.253  0.00  0.00    -0.050 C 
ATOM     10  C   LIG    1        6.949   1.937   4.389  0.00  0.00    +0.051 C 
ATOM     11  C   LIG    1        7.548   0.604   4.173  0.00  0.00    +0.179 C 
ATOM     12  C   LIG    1        7.011  -0.507   4.970  0.00  0.00    +0.047 C 
ATOM     13  O   LIG    1        8.452   0.435   3.366  0.00  0.00    -0.288 OA
ATOM     14  C   LIG    1        5.294   3.533   5.422  0.00  0.00    +0.013 C 
ATOM     15  C   LIG    1        5.784   4.625   4.456  0.00  0.00    +0.012 C 
ATOM     16  C   LIG    1        5.583   1.317   7.591  0.00  0.00    +0.023 C 
ATOM     17  C   LIG    1        6.006  -0.307   5.830  0.00  0.00    -0.009 C 
ATOM     18  C   LIG    1        3.756   3.437   5.339  0.00  0.00    +0.014 C 
ATOM     19  C   LIG    1        1.317   2.927   3.408  0.00  0.00    +0.008 C 
ATOM     20  C   LIG    1       -0.476   0.819   4.614  0.00  0.00    +0.015 C 
ATOM     21  C   LIG    1        1.606  -0.363   5.284  0.00  0.00    +0.044 C 
ATOM     22  C   LIG    1        1.255   1.952   2.228  0.00  0.00    +0.043 C 
ENDROOT
BRANCH   1  24
ATOM     23  C   LIG    1        0.458  -1.920   2.397  0.00  0.00    +0.089 C 
ATOM     24  C   LIG    1        0.338  -0.445   2.105  0.00  0.00    +0.162 C 
ATOM     25  O   LIG    1       -0.548  -0.043   1.347  0.00  0.00    -0.295 OA
ENDBRANCH   1  24
BRANCH   6  26
ATOM     26  O   LIG    1        3.341  -1.338   6.558  0.00  0.00    -0.389 OA
ATOM     27  H   LIG    1        3.021  -0.904   7.373  0.00  0.00    +0.210 HD
ENDBRANCH   6  26
BRANCH   1  28
ATOM     28  O   LIG    1        2.652   0.041   2.603  0.00  0.00    -0.381 OA
ATOM     29  H   LIG    1        2.836   0.086   1.646  0.00  0.00    +0.211 HD
ENDBRANCH   1  28
TORSDOF 3
