REMARK  Name = *****
REMARK                            x       y       z     vdW  Elec       q    Type
REMARK                         _______ _______ _______ _____ _____    ______ ____
ROOT
ATOM      1  C   LIG    1        4.553  -1.361  -0.451  0.00  0.00    +0.126 C 
ATOM      2  C   LIG    1        5.050  -2.037  -1.732  0.00  0.00    +0.236 C 
ATOM      3  O   LIG    1        5.276  -3.240  -1.835  0.00  0.00    -0.274 OA
ATOM      4  N   LIG    1        5.175  -1.223  -2.824  0.00  0.00    -0.239 N 
ATOM      5  H   LIG    1        5.485  -1.680  -3.671  0.00  0.00    +0.159 HD
ATOM      6  C   LIG    1        5.488   0.097  -2.748  0.00  0.00    +0.312 C 
ATOM      7  O   LIG    1        6.015   0.685  -3.687  0.00  0.00    -0.252 OA
ATOM      8  N   LIG    1        5.293   0.708  -1.550  0.00  0.00    -0.239 N 
ATOM      9  H   LIG    1        5.687   1.638  -1.481  0.00  0.00    +0.159 HD
ATOM     10  C   LIG    1        5.175   0.035  -0.365  0.00  0.00    +0.236 C 
ATOM     11  O   LIG    1        5.505   0.580   0.685  0.00  0.00    -0.274 OA
ENDROOT
BRANCH   1  12
ATOM     12  C   LIG    1        2.981  -1.177  -0.585  0.00  0.00    +0.010 C 
ATOM     13  C   LIG    1        2.371  -0.395   0.594  0.00  0.00    +0.009 C 
BRANCH  12  15
ATOM     14  C   LIG    1        0.755  -2.357  -1.130  0.00  0.00    +0.004 C 
ATOM     15  C   LIG    1        2.228  -2.521  -0.768  0.00  0.00    +0.001 C 
ENDBRANCH  12  15
ENDBRANCH   1  12
BRANCH   1  16
ATOM     16  C   LIG    1        4.934  -2.207   0.793  0.00  0.00    +0.022 C 
ATOM     17  C   LIG    1        6.435  -2.423   0.996  0.00  0.00    +0.005 C 
ENDBRANCH   1  16
TORSDOF 3
