REMARK  Name = *****
REMARK                            x       y       z     vdW  Elec       q    Type
REMARK                         _______ _______ _______ _____ _____    ______ ____
ROOT
ATOM      1  C   LIG    1        3.058   1.139   0.595  0.00  0.00    +0.033 C 
ATOM      2  C   LIG    1        2.599  -0.100  -0.173  0.00  0.00    +0.106 C 
ENDROOT
BRANCH   2   3
ATOM      3  N   LIG    1        3.232  -1.272   0.471  0.00  0.00    -0.288 NA
ATOM      4  C   LIG    1        2.531  -2.358   0.433  0.00  0.00    +0.132 C 
BRANCH   4   5
ATOM      5  C   LIG    1        2.994  -3.694   0.988  0.00  0.00    +0.225 C 
ATOM      6 CL   LIG    1        2.456  -3.781   2.678  0.00  0.00    -0.077 Cl
ATOM      7 CL   LIG    1        4.757  -3.860   0.870  0.00  0.00    -0.077 Cl
ATOM      8 CL   LIG    1        2.214  -4.990   0.042  0.00  0.00    -0.077 Cl
ENDBRANCH   4   5
ENDBRANCH   2   3
BRANCH   2   9
ATOM      9  C   LIG    1        3.047   0.005  -1.647  0.00  0.00    +0.061 C 
BRANCH   9  10
ATOM     10  C   LIG    1        2.558  -1.139  -2.508  0.00  0.00    -0.045 A 
ATOM     11  C   LIG    1        3.344  -2.292  -2.659  0.00  0.00    +0.003 A 
ATOM     12  C   LIG    1        2.872  -3.381  -3.391  0.00  0.00    +0.000 A 
ATOM     13  C   LIG    1        1.620  -3.320  -3.998  0.00  0.00    +0.000 A 
ATOM     14  C   LIG    1        0.839  -2.172  -3.871  0.00  0.00    +0.000 A 
ATOM     15  C   LIG    1        1.302  -1.087  -3.123  0.00  0.00    +0.003 A 
ENDBRANCH   9  10
ENDBRANCH   2   9
TORSDOF 4
