REMARK  Name = *****
REMARK                            x       y       z     vdW  Elec       q    Type
REMARK                         _______ _______ _______ _____ _____    ______ ____
ROOT
ATOM      1  C   LIG    1        5.026   0.083  -2.344  0.00  0.00    +0.346 C 
ENDROOT
BRANCH   1   2
ATOM      2  C   LIG    1        4.175  -0.290  -1.113  0.00  0.00    +0.376 C 
BRANCH   2   3
ATOM      3  O   LIG    1        4.960  -1.032  -0.178  0.00  0.00    -0.212 OA
BRANCH   3   5
ATOM      4  O   LIG    1        5.266  -1.391   1.981  0.00  0.00    +0.093 OA
ATOM      5  N   LIG    1        4.484  -0.929   1.156  0.00  0.00    +0.284 N 
ATOM      6  O   LIG    1        3.379  -0.408   1.316  0.00  0.00    -0.534 OA
ENDBRANCH   3   5
ENDBRANCH   2   3
ENDBRANCH   1   2
BRANCH   1   7
ATOM      7  O   LIG    1        6.101   0.951  -1.942  0.00  0.00    -0.206 OA
BRANCH   7   8
ATOM      8  N   LIG    1        7.304   0.263  -1.613  0.00  0.00    +0.285 N 
ATOM      9  O   LIG    1        8.200   1.031  -1.246  0.00  0.00    -0.534 OA
ATOM     10  O   LIG    1        7.316  -0.956  -1.735  0.00  0.00    +0.093 OA
ENDBRANCH   7   8
ENDBRANCH   1   7
BRANCH   1  11
ATOM     11  C   LIG    1        4.184   0.825  -3.407  0.00  0.00    +0.376 C 
BRANCH  11  12
ATOM     12  O   LIG    1        3.580   2.008  -2.883  0.00  0.00    -0.212 OA
BRANCH  12  13
ATOM     13  N   LIG    1        2.861   2.726  -3.882  0.00  0.00    +0.284 N 
ATOM     14  O   LIG    1        2.093   3.562  -3.413  0.00  0.00    -0.534 OA
ATOM     15  O   LIG    1        3.083   2.424  -5.055  0.00  0.00    +0.093 OA
ENDBRANCH  12  13
ENDBRANCH  11  12
ENDBRANCH   1  11
TORSDOF 8
