REMARK  Name = *****
REMARK                            x       y       z     vdW  Elec       q    Type
REMARK                         _______ _______ _______ _____ _____    ______ ____
ROOT
ATOM      1  C   LIG    1        0.628   4.155  -6.427  0.00  0.00    +0.019 C 
ATOM      2  C   LIG    1        1.521   5.250  -5.826  0.00  0.00    +0.029 C 
ATOM      3  C   LIG    1        2.590   5.669  -6.809  0.00  0.00    +0.140 C 
ATOM      4  O   LIG    1        2.514   6.637  -7.555  0.00  0.00    -0.297 OA
ATOM      5  C   LIG    1        3.795   4.784  -6.699  0.00  0.00    +0.075 C 
ATOM      6  C   LIG    1        3.448   3.895  -5.458  0.00  0.00    +0.012 C 
ATOM      7  C   LIG    1        2.402   4.736  -4.673  0.00  0.00    +0.006 C 
ATOM      8  C   LIG    1        1.588   4.388  -3.345  0.00  0.00    -0.003 C 
ATOM      9  C   LIG    1        0.814   3.055  -3.147  0.00  0.00    +0.008 C 
ATOM     10  C   LIG    1       -0.697   3.070  -2.699  0.00  0.00    +0.035 C 
ATOM     11  C   LIG    1       -1.281   4.322  -2.069  0.00  0.00    -0.018 C 
ATOM     12  C   LIG    1       -0.309   5.449  -1.789  0.00  0.00    -0.004 C 
ATOM     13  C   LIG    1        0.398   5.067  -0.459  0.00  0.00    +0.016 C 
ATOM     14  C   LIG    1       -1.101   6.788  -1.547  0.00  0.00    +0.019 C 
ATOM     15  C   LIG    1       -2.364   6.918  -2.414  0.00  0.00    +0.083 C 
ATOM     16  C   LIG    1       -3.262   5.819  -1.956  0.00  0.00    +0.197 C 
ATOM     17  O   LIG    1       -4.437   5.959  -1.743  0.00  0.00    -0.289 OA
ATOM     18  C   LIG    1       -2.591   4.468  -1.773  0.00  0.00    +0.159 C 
ATOM     19  C   LIG    1        0.712   5.634  -2.963  0.00  0.00    +0.002 C 
ATOM     20  C   LIG    1       -0.042   6.192  -4.180  0.00  0.00    +0.005 C 
ATOM     21  C   LIG    1        0.773   6.479  -5.398  0.00  0.00    +0.015 C 
ENDROOT
BRANCH  18  22
ATOM     22  O   LIG    1       -3.159   3.726  -0.747  0.00  0.00    -0.503 OA
ATOM     23  H   LIG    1       -3.815   4.339  -0.334  0.00  0.00    +0.292 HD
ENDBRANCH  18  22
TORSDOF 1
