REMARK  Name = *****
REMARK                            x       y       z     vdW  Elec       q    Type
REMARK                         _______ _______ _______ _____ _____    ______ ____
ROOT
ATOM      1  C   LIG    1      -10.401  18.610  -1.306  0.00  0.00    +0.164 A 
ATOM      2  C   LIG    1      -11.256  17.524  -1.513  0.00  0.00    +0.162 A 
ATOM      3  C   LIG    1      -10.708  16.320  -1.977  0.00  0.00    +0.062 A 
ATOM      4  C   LIG    1       -9.307  16.166  -2.160  0.00  0.00    +0.044 A 
ATOM      5  C   LIG    1       -8.460  17.245  -1.950  0.00  0.00    +0.082 A 
ATOM      6  N   LIG    1       -7.129  17.140  -2.075  0.00  0.00    -0.214 NA
ATOM      7  C   LIG    1       -6.580  15.953  -2.393  0.00  0.00    +0.220 A 
ATOM      8  N   LIG    1       -7.325  14.873  -2.652  0.00  0.00    -0.199 NA
ATOM      9  C   LIG    1       -8.655  14.985  -2.531  0.00  0.00    +0.129 A 
ATOM     10  C   LIG    1       -9.027  18.455  -1.559  0.00  0.00    +0.078 A 
ENDROOT
BRANCH   9  11
ATOM     11  N   LIG    1       -9.362  13.796  -2.763  0.00  0.00    -0.343 N 
ATOM     12  H   LIG    1       -9.875  13.521  -1.933  0.00  0.00    +0.144 HD
ATOM     13  H   LIG    1       -8.658  13.097  -2.995  0.00  0.00    +0.144 HD
ENDBRANCH   9  11
BRANCH   1  15
ATOM     14  C   LIG    1      -11.837  20.020  -0.007  0.00  0.00    +0.277 C 
ATOM     15  O   LIG    1      -10.741  19.877  -0.905  0.00  0.00    -0.491 OA
ENDBRANCH   1  15
BRANCH   2  16
ATOM     16  O   LIG    1      -12.601  17.689  -1.318  0.00  0.00    -0.491 OA
ATOM     17  C   LIG    1      -13.314  16.526  -0.907  0.00  0.00    +0.277 C 
ENDBRANCH   2  16
BRANCH   7  18
ATOM     18  N   LIG    1       -5.184  15.851  -2.421  0.00  0.00    -0.303 N 
ATOM     19  C   LIG    1       -4.526  16.825  -1.557  0.00  0.00    +0.132 C 
BRANCH  18  20
ATOM     20  C   LIG    1       -4.595  14.507  -2.465  0.00  0.00    +0.109 C 
BRANCH  20  21
ATOM     21  C   LIG    1       -4.386  14.002  -3.897  0.00  0.00    +0.037 C 
BRANCH  21  22
ATOM     22  C   LIG    1       -3.441  14.873  -4.721  0.00  0.00    +0.105 C 
BRANCH  22  23
ATOM     23  N   LIG    1       -2.068  14.803  -4.259  0.00  0.00    -0.313 N 
ATOM     24  H   LIG    1       -1.717  15.516  -3.622  0.00  0.00    +0.149 HD
ATOM     25  C   LIG    1       -1.150  13.917  -4.764  0.00  0.00    +0.242 C 
ATOM     26  O   LIG    1       -1.445  13.029  -5.571  0.00  0.00    -0.273 OA
BRANCH  25  27
ATOM     27  C   LIG    1        0.265  14.087  -4.185  0.00  0.00    +0.204 C 
ATOM     28  O   LIG    1        0.545  15.467  -3.876  0.00  0.00    -0.367 OA
ATOM     29  C   LIG    1        1.553  15.938  -4.784  0.00  0.00    +0.161 C 
ATOM     30  C   LIG    1        1.671  14.909  -5.885  0.00  0.00    +0.031 C 
ATOM     31  C   LIG    1        1.335  13.629  -5.162  0.00  0.00    +0.043 C 
ENDBRANCH  25  27
ENDBRANCH  22  23
ENDBRANCH  21  22
ENDBRANCH  20  21
ENDBRANCH  18  20
ENDBRANCH   7  18
TORSDOF 9
