REMARK  Name = *****
REMARK                            x       y       z     vdW  Elec       q    Type
REMARK                         _______ _______ _______ _____ _____    ______ ____
ROOT
ATOM      1  C   LIG    1        7.118  -0.846   3.602  0.00  0.00    -0.017 A 
ATOM      2  C   LIG    1        8.188   0.041   3.824  0.00  0.00    +0.015 A 
ATOM      3  C   LIG    1        9.395  -0.397   4.402  0.00  0.00    +0.019 A 
ATOM      4  C   LIG    1        9.514  -1.743   4.753  0.00  0.00    +0.122 A 
ATOM      5  C   LIG    1        8.476  -2.645   4.525  0.00  0.00    +0.046 A 
ATOM      6  C   LIG    1        7.288  -2.194   3.943  0.00  0.00    +0.010 A 
ENDROOT
BRANCH   4   7
ATOM      7  O   LIG    1       10.682  -2.178   5.318  0.00  0.00    -0.506 OA
ATOM      8  H   LIG    1       10.569  -3.110   5.588  0.00  0.00    +0.292 HD
ENDBRANCH   4   7
BRANCH   1   9
ATOM      9  C   LIG    1        5.808  -0.331   3.032  0.00  0.00    +0.158 C 
BRANCH   9  10
ATOM     10  O   LIG    1        4.730  -1.096   3.589  0.00  0.00    -0.386 OA
ATOM     11  H   LIG    1        3.995  -0.469   3.703  0.00  0.00    +0.210 HD
ENDBRANCH   9  10
BRANCH   9  12
ATOM     12  C   LIG    1        5.747  -0.403   1.484  0.00  0.00    +0.117 C 
BRANCH  12  13
ATOM     13  N   LIG    1        4.460   0.120   0.970  0.00  0.00    -0.309 NA
ATOM     14  H   LIG    1        3.713  -0.441   1.385  0.00  0.00    +0.122 HD
BRANCH  13  16
ATOM     15  C   LIG    1        2.912   0.691  -0.818  0.00  0.00    +0.027 C 
ATOM     16  C   LIG    1        4.303   0.101  -0.502  0.00  0.00    +0.011 C 
ATOM     17  C   LIG    1        5.357   0.978  -1.198  0.00  0.00    +0.027 C 
ATOM     18  C   LIG    1        4.349  -1.331  -1.065  0.00  0.00    +0.027 C 
ENDBRANCH  13  16
ENDBRANCH  12  13
ENDBRANCH   9  12
ENDBRANCH   1   9
BRANCH   3  19
ATOM     19  C   LIG    1       10.505   0.593   4.657  0.00  0.00    +0.194 C 
BRANCH  19  20
ATOM     20  O   LIG    1       11.691   0.240   3.955  0.00  0.00    -0.390 OA
ATOM     21  H   LIG    1       11.732  -0.734   3.974  0.00  0.00    +0.210 HD
ENDBRANCH  19  20
ENDBRANCH   3  19
TORSDOF 8
