REMARK  Name = *****
REMARK                            x       y       z     vdW  Elec       q    Type
REMARK                         _______ _______ _______ _____ _____    ______ ____
ROOT
ATOM      1  C   LIG    1        4.729  -3.441   0.379  0.00  0.00    -0.034 A 
ATOM      2  C   LIG    1        3.458  -4.010   0.546  0.00  0.00    +0.005 A 
ATOM      3  C   LIG    1        2.701  -4.403  -0.562  0.00  0.00    +0.004 A 
ATOM      4  C   LIG    1        3.189  -4.223  -1.864  0.00  0.00    -0.047 A 
ATOM      5  C   LIG    1        4.453  -3.645  -2.030  0.00  0.00    +0.004 A 
ATOM      6  C   LIG    1        5.218  -3.268  -0.923  0.00  0.00    +0.005 A 
ENDROOT
BRANCH   1   8
ATOM      7  C   LIG    1        5.996  -4.283   2.360  0.00  0.00    +0.024 C 
ATOM      8  C   LIG    1        5.584  -3.036   1.571  0.00  0.00    +0.124 C 
BRANCH   8   9
ATOM      9  C   LIG    1        4.949  -1.993   2.489  0.00  0.00    +0.312 C 
ATOM     10  O   LIG    1        5.164  -1.922   3.695  0.00  0.00    -0.250 OA
BRANCH   9  11
ATOM     11  O   LIG    1        4.180  -1.070   1.866  0.00  0.00    -0.480 OA
ATOM     12  H   LIG    1        4.076  -1.217   0.904  0.00  0.00    +0.295 HD
ENDBRANCH   9  11
ENDBRANCH   8   9
ENDBRANCH   1   8
BRANCH   4  13
ATOM     13  C   LIG    1        2.358  -4.623  -3.064  0.00  0.00    +0.046 C 
BRANCH  13  14
ATOM     14  C   LIG    1        3.027  -5.657  -3.979  0.00  0.00    +0.059 C 
ATOM     15  C   LIG    1        2.079  -6.044  -5.097  0.00  0.00    +0.137 C 
ATOM     16  O   LIG    1        1.823  -5.324  -6.055  0.00  0.00    -0.297 OA
ATOM     17  C   LIG    1        1.489  -7.420  -4.906  0.00  0.00    +0.075 C 
ATOM     18  C   LIG    1        1.955  -7.778  -3.502  0.00  0.00    +0.008 C 
ATOM     19  C   LIG    1        3.266  -7.023  -3.330  0.00  0.00    +0.012 C 
ENDBRANCH  13  14
ENDBRANCH   4  13
TORSDOF 5
