REMARK  Name = *****
REMARK                            x       y       z     vdW  Elec       q    Type
REMARK                         _______ _______ _______ _____ _____    ______ ____
ROOT
ATOM      1  N   LIG    1       -5.595   5.659  -6.000  0.00  0.00    -0.313 NA
ATOM      2  H   LIG    1       -6.435   5.322  -5.529  0.00  0.00    +0.122 HD
ENDROOT
BRANCH   1   3
ATOM      3  C   LIG    1       -4.541   4.646  -5.876  0.00  0.00    +0.081 C 
BRANCH   3   4
ATOM      4  C   LIG    1       -3.913   4.521  -4.467  0.00  0.00    +0.015 C 
BRANCH   4   5
ATOM      5  C   LIG    1       -3.133   5.763  -3.993  0.00  0.00    +0.001 C 
BRANCH   5   6
ATOM      6  C   LIG    1       -2.413   5.553  -2.643  0.00  0.00    +0.002 C 
BRANCH   6   7
ATOM      7  C   LIG    1       -1.528   6.732  -2.187  0.00  0.00    +0.028 C 
BRANCH   7   8
ATOM      8  C   LIG    1       -2.268   8.060  -2.032  0.00  0.00    +0.160 C 
BRANCH   8   9
ATOM      9  O   LIG    1       -1.352   9.079  -1.605  0.00  0.00    -0.380 OA
BRANCH   9  10
ATOM     10  C   LIG    1       -2.015  10.338  -1.468  0.00  0.00    +0.160 C 
BRANCH  10  11
ATOM     11  C   LIG    1       -1.044  11.424  -0.997  0.00  0.00    +0.028 C 
BRANCH  11  12
ATOM     12  C   LIG    1       -0.435  11.092   0.376  0.00  0.00    +0.007 C 
BRANCH  12  13
ATOM     13  C   LIG    1        0.418  12.220   0.989  0.00  0.00    +0.035 C 
BRANCH  13  14
ATOM     14  C   LIG    1       -0.305  13.523   1.254  0.00  0.00    -0.047 A 
ATOM     15  C   LIG    1       -1.691  13.568   1.462  0.00  0.00    +0.003 A 
ATOM     16  C   LIG    1       -2.368  14.791   1.514  0.00  0.00    +0.000 A 
ATOM     17  C   LIG    1       -1.655  15.975   1.423  0.00  0.00    +0.000 A 
ATOM     18  C   LIG    1       -0.264  15.950   1.336  0.00  0.00    +0.000 A 
ATOM     19  C   LIG    1        0.409  14.728   1.260  0.00  0.00    +0.003 A 
ENDBRANCH  13  14
ENDBRANCH  12  13
ENDBRANCH  11  12
ENDBRANCH  10  11
ENDBRANCH   9  10
ENDBRANCH   8   9
ENDBRANCH   7   8
ENDBRANCH   6   7
ENDBRANCH   5   6
ENDBRANCH   4   5
ENDBRANCH   3   4
ENDBRANCH   1   3
BRANCH   1  20
ATOM     20  C   LIG    1       -5.922   5.988  -7.419  0.00  0.00    +0.117 C 
BRANCH  20  21
ATOM     21  C   LIG    1       -6.586   4.890  -8.333  0.00  0.00    +0.158 C 
BRANCH  21  26
ATOM     22  C   LIG    1       -8.093   6.970 -11.234  0.00  0.00    +0.019 A 
ATOM     23  C   LIG    1       -7.643   6.277 -12.343  0.00  0.00    +0.122 A 
ATOM     24  C   LIG    1       -6.863   5.125 -12.203  0.00  0.00    +0.046 A 
ATOM     25  C   LIG    1       -6.521   4.680 -10.916  0.00  0.00    +0.010 A 
ATOM     26  C   LIG    1       -6.939   5.356  -9.759  0.00  0.00    -0.017 A 
ATOM     27  C   LIG    1       -7.766   6.488  -9.940  0.00  0.00    +0.015 A 
BRANCH  23  28
ATOM     28  O   LIG    1       -7.988   6.704 -13.601  0.00  0.00    -0.506 OA
ATOM     29  H   LIG    1       -7.659   6.079 -14.249  0.00  0.00    +0.292 HD
ENDBRANCH  23  28
BRANCH  22  30
ATOM     30  C   LIG    1       -8.889   8.251 -11.363  0.00  0.00    +0.194 C 
BRANCH  30  31
ATOM     31  O   LIG    1       -8.018   9.364 -11.179  0.00  0.00    -0.390 OA
ATOM     32  H   LIG    1       -8.580  10.158 -11.189  0.00  0.00    +0.210 HD
ENDBRANCH  30  31
ENDBRANCH  22  30
ENDBRANCH  21  26
BRANCH  21  33
ATOM     33  O   LIG    1       -5.729   3.742  -8.409  0.00  0.00    -0.386 OA
ATOM     34  H   LIG    1       -4.995   3.971  -9.001  0.00  0.00    +0.210 HD
ENDBRANCH  21  33
ENDBRANCH  20  21
ENDBRANCH   1  20
TORSDOF 19
