REMARK  Name = *****
REMARK                            x       y       z     vdW  Elec       q    Type
REMARK                         _______ _______ _______ _____ _____    ______ ____
ROOT
ATOM      1  C   LIG    1        2.789   2.313   0.703  0.00  0.00    +0.000 C 
ATOM      2  C   LIG    1        2.643   3.433   1.436  0.00  0.00    +0.000 C 
ENDROOT
BRANCH   1   5
ATOM      3  C   LIG    1        3.291  -0.127  -1.012  0.00  0.00    +0.044 C 
ATOM      4  C   LIG    1        4.200   0.367   0.086  0.00  0.00    -0.050 C 
ATOM      5  C   LIG    1        3.954   1.475   0.818  0.00  0.00    +0.003 C 
BRANCH   4   6
ATOM      6  C   LIG    1        5.437  -0.352   0.329  0.00  0.00    +0.003 C 
ATOM      7  C   LIG    1        5.632  -1.658   0.085  0.00  0.00    +0.001 C 
BRANCH   7   8
ATOM      8  C   LIG    1        6.899  -2.314   0.274  0.00  0.00    +0.003 C 
ATOM      9  C   LIG    1        8.062  -2.020  -0.351  0.00  0.00    -0.050 C 
ATOM     10  C   LIG    1        9.275  -2.848  -0.026  0.00  0.00    +0.044 C 
BRANCH   9  11
ATOM     11  C   LIG    1        8.206  -0.954  -1.350  0.00  0.00    +0.003 C 
ATOM     12  C   LIG    1        9.346  -0.621  -1.988  0.00  0.00    +0.004 C 
BRANCH  12  13
ATOM     13  C   LIG    1        9.495   0.444  -2.982  0.00  0.00    -0.043 C 
ATOM     14  C   LIG    1       10.560   1.545  -2.685  0.00  0.00    -0.008 C 
ATOM     15  C   LIG    1        9.885   2.599  -1.771  0.00  0.00    +0.016 C 
ATOM     16  C   LIG    1       11.822   1.029  -1.950  0.00  0.00    +0.016 C 
ATOM     17  C   LIG    1       11.086   2.293  -3.956  0.00  0.00    +0.042 C 
ATOM     18  C   LIG    1       10.456   1.870  -5.273  0.00  0.00    +0.119 C 
ATOM     19  C   LIG    1        8.970   1.600  -5.114  0.00  0.00    +0.062 C 
ATOM     20  C   LIG    1        8.749   0.492  -4.115  0.00  0.00    -0.067 C 
ATOM     21  C   LIG    1        7.696  -0.494  -4.553  0.00  0.00    +0.039 C 
BRANCH  18  22
ATOM     22  O   LIG    1       10.678   2.881  -6.255  0.00  0.00    -0.391 OA
ATOM     23  H   LIG    1       10.243   3.695  -5.949  0.00  0.00    +0.210 HD
ENDBRANCH  18  22
ENDBRANCH  12  13
ENDBRANCH   9  11
ENDBRANCH   7   8
ENDBRANCH   4   6
ENDBRANCH   1   5
BRANCH   2  24
ATOM     24  C   LIG    1        1.494   4.281   1.308  0.00  0.00    +0.003 C 
ATOM     25  C   LIG    1        1.441   5.598   1.603  0.00  0.00    -0.050 C 
ATOM     26  C   LIG    1        2.609   6.465   1.988  0.00  0.00    +0.044 C 
BRANCH  25  27
ATOM     27  C   LIG    1        0.188   6.318   1.482  0.00  0.00    +0.003 C 
ATOM     28  C   LIG    1       -1.014   5.766   1.730  0.00  0.00    +0.001 C 
BRANCH  28  29
ATOM     29  C   LIG    1       -2.228   6.514   1.604  0.00  0.00    +0.003 C 
ATOM     30  C   LIG    1       -3.481   6.050   1.796  0.00  0.00    -0.051 C 
ATOM     31  C   LIG    1       -3.846   4.625   2.141  0.00  0.00    +0.044 C 
BRANCH  30  32
ATOM     32  C   LIG    1       -4.557   7.015   1.663  0.00  0.00    -0.001 C 
ATOM     33  C   LIG    1       -5.860   6.745   1.820  0.00  0.00    -0.018 C 
BRANCH  33  34
ATOM     34  C   LIG    1       -6.938   7.787   1.679  0.00  0.00    +0.043 C 
ATOM     35  C   LIG    1       -7.705   8.041   3.022  0.00  0.00    -0.022 C 
ATOM     36  C   LIG    1       -6.742   8.185   4.227  0.00  0.00    +0.012 C 
ATOM     37  C   LIG    1       -8.467   9.380   2.910  0.00  0.00    +0.012 C 
ATOM     38  C   LIG    1       -8.677   6.869   3.320  0.00  0.00    +0.043 C 
ATOM     39  C   LIG    1       -9.588   6.471   2.150  0.00  0.00    +0.138 C 
ATOM     40  C   LIG    1       -9.046   6.765   0.786  0.00  0.00    +0.003 C 
ATOM     41  C   LIG    1       -7.862   7.358   0.547  0.00  0.00    -0.067 C 
ATOM     42  C   LIG    1       -7.372   7.606  -0.854  0.00  0.00    +0.039 C 
BRANCH  39  43
ATOM     43  O   LIG    1      -10.841   7.133   2.274  0.00  0.00    -0.388 OA
ATOM     44  H   LIG    1      -10.726   8.039   1.946  0.00  0.00    +0.210 HD
ENDBRANCH  39  43
ENDBRANCH  33  34
ENDBRANCH  30  32
ENDBRANCH  28  29
ENDBRANCH  25  27
ENDBRANCH   2  24
TORSDOF 12
