REMARK  Name = *****
REMARK                            x       y       z     vdW  Elec       q    Type
REMARK                         _______ _______ _______ _____ _____    ______ ____
ROOT
ATOM      1  C   LIG    1        1.851  -1.551   2.756  0.00  0.00    -0.006 A 
ATOM      2  C   LIG    1        0.702  -2.355   3.004  0.00  0.00    +0.007 A 
ATOM      3  C   LIG    1       -0.621  -1.852   2.998  0.00  0.00    +0.010 A 
ATOM      4  C   LIG    1       -1.714  -2.679   3.242  0.00  0.00    +0.001 A 
ATOM      5  C   LIG    1       -1.504  -4.023   3.500  0.00  0.00    +0.014 A 
ATOM      6  C   LIG    1       -0.201  -4.557   3.511  0.00  0.00    +0.081 A 
ATOM      7  C   LIG    1        0.900  -3.738   3.263  0.00  0.00    +0.084 A 
ATOM      8  N   LIG    1        2.125  -4.280   3.272  0.00  0.00    -0.242 NA
ATOM      9  C   LIG    1        3.224  -3.521   3.028  0.00  0.00    +0.145 A 
ATOM     10  C   LIG    1        3.114  -2.163   2.774  0.00  0.00    +0.039 A 
ENDROOT
BRANCH   6  11
ATOM     11  C   LIG    1       -0.060  -6.032   3.800  0.00  0.00    +0.419 C 
ATOM     12  F   LIG    1       -0.765  -6.787   2.904  0.00  0.00    -0.166 F 
ATOM     13  F   LIG    1       -0.590  -6.352   5.020  0.00  0.00    -0.166 F 
ATOM     14  F   LIG    1        1.192  -6.560   3.806  0.00  0.00    -0.166 F 
ENDBRANCH   6  11
BRANCH   9  15
ATOM     15  C   LIG    1        4.589  -4.194   3.035  0.00  0.00    +0.434 C 
ATOM     16  F   LIG    1        4.720  -5.152   2.074  0.00  0.00    -0.164 F 
ATOM     17  F   LIG    1        4.878  -4.804   4.221  0.00  0.00    -0.164 F 
ATOM     18  F   LIG    1        5.623  -3.325   2.821  0.00  0.00    -0.164 F 
ENDBRANCH   9  15
BRANCH   1  19
ATOM     19  C   LIG    1        1.772  -0.054   2.472  0.00  0.00    +0.162 C 
BRANCH  19  20
ATOM     20  C   LIG    1        1.701   0.856   3.744  0.00  0.00    +0.087 C 
ATOM     21  N   LIG    1        1.647   2.282   3.317  0.00  0.00    -0.311 NA
ATOM     22  H   LIG    1        2.543   2.509   2.879  0.00  0.00    +0.122 HD
ATOM     23  C   LIG    1        1.498   3.175   4.471  0.00  0.00    +0.081 C 
ATOM     24  C   LIG    1        2.687   3.051   5.419  0.00  0.00    +0.015 C 
ATOM     25  C   LIG    1        2.855   1.611   5.886  0.00  0.00    +0.003 C 
ATOM     26  C   LIG    1        2.897   0.650   4.698  0.00  0.00    +0.021 C 
ENDBRANCH  19  20
BRANCH  19  27
ATOM     27  O   LIG    1        2.895   0.341   1.665  0.00  0.00    -0.386 OA
ATOM     28  H   LIG    1        2.644   1.202   1.286  0.00  0.00    +0.210 HD
ENDBRANCH  19  27
ENDBRANCH   1  19
TORSDOF 5
