REMARK  Name = *****
REMARK                            x       y       z     vdW  Elec       q    Type
REMARK                         _______ _______ _______ _____ _____    ______ ____
ROOT
ATOM      1  C   LIG    1        2.859  -0.581  -0.809  0.00  0.00    +0.004 A 
ATOM      2  S   LIG    1        2.530  -2.265  -0.904  0.00  0.00    -0.089 S 
ATOM      3  C   LIG    1        3.547  -2.478  -2.267  0.00  0.00    +0.060 A 
ATOM      4  C   LIG    1        4.102  -1.274  -2.659  0.00  0.00    +0.020 A 
ATOM      5  C   LIG    1        3.696  -0.184  -1.833  0.00  0.00    +0.013 A 
ENDROOT
BRANCH   1   7
ATOM      6  C   LIG    1        1.932   1.649  -0.063  0.00  0.00    +0.025 C 
ATOM      7  C   LIG    1        2.300   0.220   0.351  0.00  0.00    +0.131 C 
BRANCH   7   8
ATOM      8  C   LIG    1        3.288   0.242   1.523  0.00  0.00    +0.312 C 
ATOM      9  O   LIG    1        3.377   1.168   2.316  0.00  0.00    -0.250 OA
BRANCH   8  10
ATOM     10  O   LIG    1        4.027  -0.881   1.690  0.00  0.00    -0.480 OA
ATOM     11  H   LIG    1        3.867  -1.580   1.025  0.00  0.00    +0.295 HD
ENDBRANCH   8  10
ENDBRANCH   7   8
ENDBRANCH   1   7
BRANCH   3  12
ATOM     12  C   LIG    1        3.729  -3.823  -2.806  0.00  0.00    +0.200 C 
ATOM     13  O   LIG    1        3.642  -4.840  -2.119  0.00  0.00    -0.286 OA
BRANCH  12  14
ATOM     14  C   LIG    1        4.059  -4.006  -4.252  0.00  0.00    +0.023 A 
ATOM     15  C   LIG    1        4.834  -5.110  -4.634  0.00  0.00    +0.012 A 
ATOM     16  C   LIG    1        5.150  -5.317  -5.978  0.00  0.00    +0.001 A 
ATOM     17  C   LIG    1        4.692  -4.425  -6.947  0.00  0.00    +0.000 A 
ATOM     18  C   LIG    1        3.902  -3.338  -6.578  0.00  0.00    +0.001 A 
ATOM     19  C   LIG    1        3.573  -3.135  -5.236  0.00  0.00    +0.012 A 
ENDBRANCH  12  14
ENDBRANCH   3  12
TORSDOF 5
