REMARK  Name = *****
REMARK                            x       y       z     vdW  Elec       q    Type
REMARK                         _______ _______ _______ _____ _____    ______ ____
ROOT
ATOM      1  N   LIG    1        6.342   1.053   1.059  0.00  0.00    -0.298 N 
ATOM      2  C   LIG    1        7.133  -0.131   1.083  0.00  0.00    +0.049 A 
ATOM      3  C   LIG    1        8.380  -0.196   0.422  0.00  0.00    +0.034 A 
ATOM      4  C   LIG    1        9.156  -1.369   0.442  0.00  0.00    +0.018 A 
ATOM      5  C   LIG    1        8.725  -2.494   1.136  0.00  0.00    +0.020 A 
ATOM      6  C   LIG    1        7.522  -2.445   1.831  0.00  0.00    +0.054 A 
ATOM      7  S   LIG    1        9.046   1.166  -0.507  0.00  0.00    -0.086 S 
ATOM      8  C   LIG    1        8.141   2.523   0.206  0.00  0.00    +0.034 A 
ATOM      9  C   LIG    1        8.731   3.795   0.076  0.00  0.00    +0.017 A 
ATOM     10  C   LIG    1        8.088   4.928   0.557  0.00  0.00    +0.001 A 
ATOM     11  C   LIG    1        6.852   4.792   1.171  0.00  0.00    +0.002 A 
ATOM     12  C   LIG    1        6.266   3.524   1.311  0.00  0.00    +0.024 A 
ATOM     13  C   LIG    1        6.749  -1.274   1.814  0.00  0.00    +0.043 A 
ATOM     14  C   LIG    1        6.886   2.351   0.835  0.00  0.00    +0.048 A 
ENDROOT
BRANCH   6  15
ATOM     15  C   LIG    1        7.074  -3.591   2.568  0.00  0.00    +0.099 C 
ATOM     16  N   LIG    1        6.708  -4.519   3.154  0.00  0.00    -0.191 NA
ENDBRANCH   6  15
BRANCH   1  17
ATOM     17  C   LIG    1        4.860   0.909   1.180  0.00  0.00    +0.115 C 
BRANCH  17  19
ATOM     18  C   LIG    1        4.565  -0.394  -1.019  0.00  0.00    +0.010 C 
ATOM     19  C   LIG    1        4.118   0.812  -0.176  0.00  0.00    +0.018 C 
BRANCH  19  20
ATOM     20  C   LIG    1        2.584   0.676   0.045  0.00  0.00    +0.088 C 
BRANCH  20  21
ATOM     21  N   LIG    1        1.942   1.718   0.868  0.00  0.00    -0.308 NA
ATOM     22  C   LIG    1        0.514   1.416   1.030  0.00  0.00    +0.104 C 
ATOM     23  C   LIG    1        2.100   3.052   0.286  0.00  0.00    +0.104 C 
ENDBRANCH  20  21
ENDBRANCH  19  20
ENDBRANCH  17  19
ENDBRANCH   1  17
TORSDOF 5
