REMARK  Name = *****
REMARK                            x       y       z     vdW  Elec       q    Type
REMARK                         _______ _______ _______ _____ _____    ______ ____
ROOT
ATOM      1  C   LIG    1        7.002   1.947  -4.009  0.00  0.00    +0.098 C 
ATOM      2  C   LIG    1        6.784   3.466  -4.120  0.00  0.00    -0.020 A 
ATOM      3  C   LIG    1        8.030   4.135  -4.141  0.00  0.00    -0.013 A 
ATOM      4  C   LIG    1        8.087   5.519  -4.181  0.00  0.00    +0.009 A 
ATOM      5  C   LIG    1        6.888   6.236  -4.199  0.00  0.00    +0.001 A 
ATOM      6  C   LIG    1        5.651   5.570  -4.181  0.00  0.00    +0.000 A 
ATOM      7  C   LIG    1        9.097   3.158  -4.082  0.00  0.00    -0.013 A 
ATOM      8  C   LIG    1       10.471   3.325  -4.072  0.00  0.00    +0.009 A 
ATOM      9  C   LIG    1       11.281   2.188  -3.991  0.00  0.00    +0.001 A 
ATOM     10  C   LIG    1       10.718   0.903  -3.923  0.00  0.00    +0.000 A 
ATOM     11  C   LIG    1        9.335   0.730  -3.934  0.00  0.00    +0.005 A 
ATOM     12  C   LIG    1        5.590   4.174  -4.142  0.00  0.00    +0.005 A 
ATOM     13  C   LIG    1        8.537   1.864  -4.010  0.00  0.00    -0.020 A 
ENDROOT
BRANCH   1  14
ATOM     14  C   LIG    1        6.429   1.185  -5.231  0.00  0.00    +0.225 C 
ATOM     15  O   LIG    1        5.668   0.225  -5.148  0.00  0.00    -0.275 OA
ATOM     16  N   LIG    1        6.836   1.598  -6.472  0.00  0.00    -0.328 N 
ATOM     17  H   LIG    1        6.532   1.052  -7.267  0.00  0.00    +0.145 HD
ATOM     18  H   LIG    1        7.580   2.272  -6.595  0.00  0.00    +0.145 HD
ENDBRANCH   1  14
BRANCH   1  19
ATOM     19  C   LIG    1        6.413   1.375  -2.693  0.00  0.00    +0.027 C 
BRANCH  19  20
ATOM     20  C   LIG    1        6.907   2.061  -1.404  0.00  0.00    +0.017 C 
BRANCH  20  21
ATOM     21  C   LIG    1        6.349   1.420  -0.131  0.00  0.00    +0.081 C 
BRANCH  21  22
ATOM     22  N   LIG    1        4.890   1.486  -0.095  0.00  0.00    -0.314 NA
ATOM     23  H   LIG    1        4.596   2.460  -0.173  0.00  0.00    +0.122 HD
BRANCH  22  25
ATOM     24  C   LIG    1        2.792   1.098   1.068  0.00  0.00    +0.024 C 
ATOM     25  C   LIG    1        4.309   0.895   1.117  0.00  0.00    +0.048 C 
ATOM     26  C   LIG    1        4.621  -0.598   1.246  0.00  0.00    +0.024 C 
ENDBRANCH  22  25
ENDBRANCH  21  22
ENDBRANCH  20  21
ENDBRANCH  19  20
ENDBRANCH   1  19
TORSDOF 6
