REMARK  Name = *****
REMARK                            x       y       z     vdW  Elec       q    Type
REMARK                         _______ _______ _______ _____ _____    ______ ____
ROOT
ATOM      1  C   LIG    1       11.105  -0.989  -0.464  0.00  0.00    +0.039 A 
ATOM      2  C   LIG    1       11.226  -2.333  -0.829  0.00  0.00    +0.036 A 
ATOM      3  C   LIG    1       12.474  -2.941  -1.013  0.00  0.00    +0.037 A 
ATOM      4  C   LIG    1       13.628  -2.155  -0.803  0.00  0.00    -0.029 A 
ATOM      5  C   LIG    1       15.012  -2.724  -0.961  0.00  0.00    +0.045 C 
ATOM      6  C   LIG    1       13.503  -0.800  -0.439  0.00  0.00    +0.006 A 
ATOM      7  C   LIG    1       12.249  -0.219  -0.274  0.00  0.00    +0.013 A 
ENDROOT
BRANCH   1  10
ATOM      8  N   LIG    1        8.739  -1.193   0.078  0.00  0.00    -0.281 N 
ATOM      9  H   LIG    1        8.988  -2.105   0.447  0.00  0.00    +0.155 HD
ATOM     10  C   LIG    1        9.770  -0.366  -0.347  0.00  0.00    +0.248 C 
ATOM     11  O   LIG    1        9.686   0.840  -0.597  0.00  0.00    -0.270 OA
BRANCH   8  16
ATOM     12  C   LIG    1        5.587   0.782  -0.159  0.00  0.00    +0.050 A 
ATOM     13  C   LIG    1        4.754   0.003   0.652  0.00  0.00    +0.038 A 
ATOM     14  C   LIG    1        5.218  -1.199   1.220  0.00  0.00    +0.059 A 
ATOM     15  C   LIG    1        6.541  -1.601   0.984  0.00  0.00    +0.035 A 
ATOM     16  C   LIG    1        7.391  -0.810   0.210  0.00  0.00    +0.036 A 
ATOM     17  C   LIG    1        6.893   0.350  -0.389  0.00  0.00    +0.049 A 
BRANCH  12  22
ATOM     18  C   LIG    1        5.197   5.093  -2.698  0.00  0.00    +0.067 C 
ATOM     19  C   LIG    1        4.971   3.905  -1.848  0.00  0.00    +0.056 A 
ATOM     20  N   LIG    1        3.755   3.695  -1.259  0.00  0.00    -0.241 NA
ATOM     21  C   LIG    1        3.881   2.566  -0.600  0.00  0.00    +0.204 A 
ATOM     22  N   LIG    1        5.132   2.006  -0.729  0.00  0.00    -0.305 N 
ATOM     23  C   LIG    1        5.842   2.888  -1.520  0.00  0.00    +0.115 A 
ENDBRANCH  12  22
BRANCH  14  24
ATOM     24  C   LIG    1        4.288  -2.005   2.092  0.00  0.00    +0.417 C 
ATOM     25  F   LIG    1        3.190  -2.435   1.409  0.00  0.00    -0.166 F 
ATOM     26  F   LIG    1        3.810  -1.284   3.144  0.00  0.00    -0.166 F 
ATOM     27  F   LIG    1        4.846  -3.120   2.631  0.00  0.00    -0.166 F 
ENDBRANCH  14  24
ENDBRANCH   8  16
ENDBRANCH   1  10
BRANCH   3  28
ATOM     28  N   LIG    1       12.578  -4.307  -1.337  0.00  0.00    -0.283 N 
ATOM     29  H   LIG    1       13.423  -4.600  -1.802  0.00  0.00    +0.155 HD
BRANCH  28  30
ATOM     30  C   LIG    1       11.587  -5.273  -1.516  0.00  0.00    +0.220 A 
ATOM     31  N   LIG    1       10.420  -5.173  -0.860  0.00  0.00    -0.214 NA
ATOM     32  C   LIG    1        9.482  -6.122  -1.045  0.00  0.00    +0.077 A 
ATOM     33  C   LIG    1        9.699  -7.184  -1.895  0.00  0.00    +0.048 A 
ATOM     34  C   LIG    1       10.921  -7.217  -2.520  0.00  0.00    +0.116 A 
ATOM     35  N   LIG    1       11.879  -6.290  -2.337  0.00  0.00    -0.223 NA
BRANCH  32  36
ATOM     36  C   LIG    1        8.246  -5.948  -0.267  0.00  0.00    +0.019 A 
ATOM     37  C   LIG    1        8.244  -5.276   0.958  0.00  0.00    +0.120 A 
ATOM     38  N   LIG    1        7.153  -5.092   1.743  0.00  0.00    -0.263 NA
ATOM     39  C   LIG    1        5.989  -5.605   1.295  0.00  0.00    +0.111 A 
ATOM     40  C   LIG    1        5.865  -6.273   0.093  0.00  0.00    +0.020 A 
ATOM     41  C   LIG    1        7.005  -6.441  -0.691  0.00  0.00    +0.013 A 
ENDBRANCH  32  36
ENDBRANCH  28  30
ENDBRANCH   3  28
TORSDOF 7
