REMARK  Name = *****
REMARK                            x       y       z     vdW  Elec       q    Type
REMARK                         _______ _______ _______ _____ _____    ______ ____
ROOT
ATOM      1  C   LIG    1        2.351   1.825  -1.870  0.00  0.00    +0.068 A 
ATOM      2  C   LIG    1        1.468   2.908  -1.886  0.00  0.00    +0.031 A 
ATOM      3  C   LIG    1        0.846   3.294  -3.075  0.00  0.00    +0.047 A 
ATOM      4  C   LIG    1        1.122   2.604  -4.250  0.00  0.00    +0.117 A 
ATOM      5  C   LIG    1        2.016   1.538  -4.258  0.00  0.00    +0.047 A 
ATOM      6  C   LIG    1        2.634   1.155  -3.065  0.00  0.00    +0.031 A 
ENDROOT
BRANCH   1   9
ATOM      7  C   LIG    1        1.011   0.049  -0.029  0.00  0.00    +0.109 C 
ATOM      8  C   LIG    1        2.381   0.644   0.127  0.00  0.00    +0.184 C 
ATOM      9  N   LIG    1        2.990   1.442  -0.686  0.00  0.00    -0.218 NA
BRANCH   8  10
ATOM     10  O   LIG    1        3.009   0.313   1.272  0.00  0.00    -0.496 OA
ATOM     11  H   LIG    1        2.484  -0.264   1.846  0.00  0.00    +0.293 HD
ENDBRANCH   8  10
ENDBRANCH   1   9
BRANCH   4  12
ATOM     12  O   LIG    1        0.495   3.014  -5.388  0.00  0.00    -0.507 OA
ATOM     13  H   LIG    1        0.818   2.477  -6.130  0.00  0.00    +0.292 HD
ENDBRANCH   4  12
TORSDOF 3
