REMARK  Name = *****
REMARK                            x       y       z     vdW  Elec       q    Type
REMARK                         _______ _______ _______ _____ _____    ______ ____
ROOT
ATOM      1  C   LIG    1       -4.951  10.395  -0.889  0.00  0.00    +0.012 C 
ATOM      2  C   LIG    1       -3.980   9.873  -1.983  0.00  0.00    -0.018 C 
ATOM      3  C   LIG    1       -3.485  11.129  -2.765  0.00  0.00    +0.082 C 
ATOM      4  C   LIG    1       -4.678  11.428  -3.717  0.00  0.00    +0.014 C 
ATOM      5  C   LIG    1       -5.478  10.118  -3.872  0.00  0.00    +0.005 C 
ATOM      6  C   LIG    1       -4.642   9.081  -3.132  0.00  0.00    -0.001 C 
ATOM      7  C   LIG    1       -5.253   7.714  -2.791  0.00  0.00    -0.003 C 
ATOM      8  C   LIG    1       -6.616   7.733  -2.080  0.00  0.00    +0.006 C 
ATOM      9  C   LIG    1       -7.117   6.331  -1.723  0.00  0.00    +0.023 C 
ATOM     10  C   LIG    1       -6.056   5.574  -0.928  0.00  0.00    +0.083 C 
ATOM     11  C   LIG    1       -4.715   5.430  -1.705  0.00  0.00    +0.008 C 
ATOM     12  C   LIG    1       -4.883   4.615  -3.017  0.00  0.00    +0.018 C 
ATOM     13  C   LIG    1       -3.768   4.607  -0.842  0.00  0.00    -0.013 C 
ATOM     14  C   LIG    1       -4.220   3.714   0.054  0.00  0.00    +0.063 C 
ATOM     15  C   LIG    1       -5.674   3.447   0.225  0.00  0.00    +0.237 C 
ATOM     16  O   LIG    1       -6.076   2.530   0.921  0.00  0.00    -0.271 OA
ATOM     17  N   LIG    1       -6.524   4.286  -0.451  0.00  0.00    -0.308 N 
ATOM     18  H   LIG    1       -7.499   4.154  -0.212  0.00  0.00    +0.149 HD
ATOM     19  C   LIG    1       -4.169   6.852  -2.061  0.00  0.00    +0.004 C 
ATOM     20  C   LIG    1       -3.533   7.622  -0.873  0.00  0.00    +0.005 C 
ATOM     21  C   LIG    1       -2.932   8.980  -1.305  0.00  0.00    +0.008 C 
ENDROOT
BRANCH   3  22
ATOM     22  C   LIG    1       -2.199  10.957  -3.592  0.00  0.00    +0.221 C 
ATOM     23  N   LIG    1       -1.051  11.399  -2.941  0.00  0.00    -0.285 N 
ATOM     24  H   LIG    1       -1.198  11.917  -2.079  0.00  0.00    +0.155 HD
ATOM     25  O   LIG    1       -2.233  10.498  -4.730  0.00  0.00    -0.275 OA
BRANCH  23  26
ATOM     26  C   LIG    1        0.272  11.381  -3.465  0.00  0.00    +0.046 A 
ATOM     27  C   LIG    1        1.294  12.157  -2.881  0.00  0.00    +0.076 A 
ATOM     28  C   LIG    1        2.600  12.099  -3.421  0.00  0.00    +0.015 A 
ATOM     29  C   LIG    1        2.897  11.295  -4.522  0.00  0.00    +0.013 A 
ATOM     30  C   LIG    1        1.892  10.524  -5.108  0.00  0.00    +0.057 A 
ATOM     31  C   LIG    1        0.598  10.573  -4.565  0.00  0.00    +0.036 A 
BRANCH  27  32
ATOM     32  C   LIG    1        1.079  13.093  -1.717  0.00  0.00    +0.419 C 
ATOM     33  F   LIG    1        1.401  14.382  -2.017  0.00  0.00    -0.166 F 
ATOM     34  F   LIG    1        1.840  12.762  -0.637  0.00  0.00    -0.166 F 
ATOM     35  F   LIG    1       -0.207  13.129  -1.262  0.00  0.00    -0.166 F 
ENDBRANCH  27  32
BRANCH  30  36
ATOM     36  C   LIG    1        2.182   9.645  -6.302  0.00  0.00    +0.417 C 
ATOM     37  F   LIG    1        3.147   8.721  -6.042  0.00  0.00    -0.166 F 
ATOM     38  F   LIG    1        2.624  10.356  -7.376  0.00  0.00    -0.166 F 
ATOM     39  F   LIG    1        1.103   8.939  -6.740  0.00  0.00    -0.166 F 
ENDBRANCH  30  36
ENDBRANCH  23  26
ENDBRANCH   3  22
TORSDOF 4
