REMARK  Name = *****
REMARK                            x       y       z     vdW  Elec       q    Type
REMARK                         _______ _______ _______ _____ _____    ______ ____
ROOT
ATOM      1  C   LIG    1        4.794  -1.045   0.561  0.00  0.00    +0.251 C 
ATOM      2  C   LIG    1        5.520  -2.242   1.221  0.00  0.00    +0.259 C 
ATOM      3  O   LIG    1        5.662  -2.465   2.413  0.00  0.00    -0.272 OA
ATOM      4  N   LIG    1        6.021  -3.025   0.224  0.00  0.00    -0.237 N 
ATOM      5  H   LIG    1        6.540  -3.875   0.365  0.00  0.00    +0.159 HD
ATOM      6  C   LIG    1        5.834  -2.440  -0.981  0.00  0.00    +0.308 C 
ATOM      7  O   LIG    1        6.195  -2.881  -2.057  0.00  0.00    -0.252 OA
ATOM      8  N   LIG    1        5.183  -1.246  -0.799  0.00  0.00    -0.273 N 
ATOM      9  H   LIG    1        4.861  -0.695  -1.581  0.00  0.00    +0.152 HD
ENDROOT
BRANCH   1  14
ATOM     10  N   LIG    1        5.137   1.979   2.455  0.00  0.00    -0.313 N 
ATOM     11  H   LIG    1        5.537   2.564   1.736  0.00  0.00    +0.146 HD
ATOM     12  H   LIG    1        4.595   2.477   3.151  0.00  0.00    +0.146 HD
ATOM     13  C   LIG    1        4.559   0.820   2.055  0.00  0.00    +0.299 C 
ATOM     14  N   LIG    1        5.220   0.242   1.016  0.00  0.00    -0.274 N 
ATOM     15  H   LIG    1        6.212   0.420   0.999  0.00  0.00    +0.152 HD
ATOM     16  O   LIG    1        3.541   0.391   2.576  0.00  0.00    -0.253 OA
ENDBRANCH   1  14
TORSDOF 1
