REMARK  Name = *****
REMARK                            x       y       z     vdW  Elec       q    Type
REMARK                         _______ _______ _______ _____ _____    ______ ____
ROOT
ATOM      1  C   LIG    1        5.753  -1.596   1.076  0.00  0.00    +0.084 C 
ATOM      2  C   LIG    1        7.057  -0.811   0.915  0.00  0.00    +0.027 C 
ENDROOT
BRANCH   1   3
ATOM      3  N   LIG    1        4.556  -0.696   1.088  0.00  0.00    -0.305 NA
ATOM      4  H   LIG    1        4.730   0.070   1.742  0.00  0.00    +0.123 HD
BRANCH   3   6
ATOM      5  C   LIG    1        3.399  -1.238  -1.021  0.00  0.00    +0.027 C 
ATOM      6  C   LIG    1        4.143  -0.152  -0.233  0.00  0.00    +0.088 C 
BRANCH   6   7
ATOM      7  C   LIG    1        3.201   1.079  -0.058  0.00  0.00    +0.247 C 
BRANCH   7   8
ATOM      8  O   LIG    1        2.816   1.653  -1.327  0.00  0.00    -0.490 OA
BRANCH   8   9
ATOM      9  C   LIG    1        1.464   1.838  -1.523  0.00  0.00    +0.121 A 
ATOM     10  C   LIG    1        0.994   1.802  -2.845  0.00  0.00    +0.045 A 
ATOM     11  C   LIG    1       -0.380   1.820  -3.101  0.00  0.00    +0.004 A 
ATOM     12  C   LIG    1       -1.291   1.918  -2.046  0.00  0.00    +0.000 A 
ATOM     13  C   LIG    1       -0.819   2.058  -0.746  0.00  0.00    +0.004 A 
ATOM     14  C   LIG    1        0.553   2.042  -0.491  0.00  0.00    +0.045 A 
ENDBRANCH   8   9
ENDBRANCH   7   8
ENDBRANCH   6   7
ENDBRANCH   3   6
ENDBRANCH   1   3
BRANCH   1  15
ATOM     15  C   LIG    1        5.757  -2.426   2.417  0.00  0.00    +0.161 C 
BRANCH  15  16
ATOM     16  C   LIG    1        6.750  -3.571   2.490  0.00  0.00    -0.018 A 
ATOM     17  C   LIG    1        7.794  -3.558   3.426  0.00  0.00    +0.010 A 
ATOM     18  C   LIG    1        8.698  -4.626   3.513  0.00  0.00    +0.046 A 
ATOM     19  C   LIG    1        8.558  -5.718   2.659  0.00  0.00    +0.117 A 
ATOM     20  C   LIG    1        7.529  -5.760   1.732  0.00  0.00    +0.046 A 
ATOM     21  C   LIG    1        6.626  -4.692   1.647  0.00  0.00    +0.010 A 
BRANCH  19  22
ATOM     22  O   LIG    1        9.458  -6.732   2.772  0.00  0.00    -0.507 OA
ATOM     23  H   LIG    1        9.228  -7.427   2.134  0.00  0.00    +0.292 HD
ENDBRANCH  19  22
ENDBRANCH  15  16
BRANCH  15  24
ATOM     24  O   LIG    1        4.444  -2.984   2.597  0.00  0.00    -0.386 OA
ATOM     25  H   LIG    1        3.853  -2.366   2.118  0.00  0.00    +0.210 HD
ENDBRANCH  15  24
ENDBRANCH   1  15
TORSDOF 9
