REMARK  Name = *****
REMARK                            x       y       z     vdW  Elec       q    Type
REMARK                         _______ _______ _______ _____ _____    ______ ____
ROOT
ATOM      1  C   LIG    1        5.948   3.951  -2.126  0.00  0.00    +0.162 A 
ATOM      2  C   LIG    1        6.294   2.652  -1.712  0.00  0.00    +0.162 A 
ATOM      3  C   LIG    1        7.581   2.417  -1.201  0.00  0.00    +0.049 A 
ATOM      4  C   LIG    1        8.498   3.461  -1.067  0.00  0.00    +0.004 A 
ATOM      5  C   LIG    1        8.136   4.751  -1.427  0.00  0.00    +0.004 A 
ATOM      6  C   LIG    1        6.864   4.998  -1.950  0.00  0.00    +0.049 A 
ENDROOT
BRANCH   1   7
ATOM      7  O   LIG    1        4.753   4.341  -2.686  0.00  0.00    -0.489 OA
BRANCH   7   9
ATOM      8  C   LIG    1        3.223   4.036  -4.522  0.00  0.00    +0.048 C 
ATOM      9  C   LIG    1        4.086   3.354  -3.477  0.00  0.00    +0.226 C 
ENDBRANCH   7   9
ENDBRANCH   1   7
BRANCH   2  10
ATOM     10  O   LIG    1        5.338   1.671  -1.817  0.00  0.00    -0.486 OA
BRANCH  10  11
ATOM     11  C   LIG    1        5.679   0.360  -1.394  0.00  0.00    +0.262 C 
BRANCH  11  12
ATOM     12  C   LIG    1        4.572  -0.637  -1.751  0.00  0.00    +0.169 C 
ATOM     13  O   LIG    1        5.015  -1.921  -1.267  0.00  0.00    -0.371 OA
ATOM     14  C   LIG    1        4.073  -2.943  -1.604  0.00  0.00    +0.175 C 
ATOM     15  C   LIG    1        3.896  -3.033  -3.123  0.00  0.00    +0.109 C 
ATOM     16  N   LIG    1        3.396  -1.764  -3.673  0.00  0.00    -0.311 NA
ATOM     17  H   LIG    1        3.367  -1.826  -4.691  0.00  0.00    +0.122 HD
ATOM     18  C   LIG    1        4.307  -0.672  -3.277  0.00  0.00    +0.115 C 
ENDBRANCH  11  12
ENDBRANCH  10  11
ENDBRANCH   2  10
TORSDOF 5
