REMARK  Name = *****
REMARK                            x       y       z     vdW  Elec       q    Type
REMARK                         _______ _______ _______ _____ _____    ______ ____
ROOT
ATOM      1  C   LIG    1        2.384   2.857   0.038  0.00  0.00    +0.210 A 
ATOM      2  N   LIG    1        1.125   3.232   0.461  0.00  0.00    -0.187 NA
ATOM      3  C   LIG    1        1.047   4.488   0.081  0.00  0.00    +0.259 A 
ATOM      4  O   LIG    1        2.202   4.934  -0.496  0.00  0.00    -0.333 OA
ATOM      5  N   LIG    1        3.073   3.854  -0.537  0.00  0.00    -0.055 NA
ENDROOT
BRANCH   1   8
ATOM      6  C   LIG    1        5.151   2.454   0.960  0.00  0.00    +0.046 C 
ATOM      7  C   LIG    1        4.253   1.277   0.630  0.00  0.00    -0.008 C 
ATOM      8  C   LIG    1        2.914   1.496   0.194  0.00  0.00    +0.112 C 
ATOM      9  C   LIG    1        2.098   0.384  -0.115  0.00  0.00    +0.300 C 
ATOM     10 CL   LIG    1        0.476   0.583  -0.742  0.00  0.00    -0.009 Cl
ATOM     11  N   LIG    1        2.591  -0.924   0.028  0.00  0.00    -0.156 NA
ATOM     12  O   LIG    1        1.848  -1.934  -0.242  0.00  0.00    -0.619 OA
ATOM     13  C   LIG    1        3.903  -1.142   0.452  0.00  0.00    +0.212 C 
ATOM     14  C   LIG    1        4.321  -2.582   0.548  0.00  0.00    +0.125 C 
ATOM     15  C   LIG    1        4.733  -0.046   0.734  0.00  0.00    +0.112 C 
ATOM     16 CL   LIG    1        6.378  -0.347   1.209  0.00  0.00    -0.077 Cl
ENDBRANCH   1   8
BRANCH   3  17
ATOM     17  C   LIG    1       -0.060   5.439   0.151  0.00  0.00    +0.050 A 
ATOM     18  C   LIG    1        0.089   6.772  -0.269  0.00  0.00    +0.101 A 
ATOM     19  C   LIG    1       -0.998   7.659  -0.196  0.00  0.00    +0.318 A 
ATOM     20  C   LIG    1       -2.227   7.249   0.295  0.00  0.00    +0.237 A 
ATOM     21  C   LIG    1       -2.378   5.924   0.702  0.00  0.00    +0.166 A 
ATOM     22  C   LIG    1       -1.314   5.022   0.635  0.00  0.00    +0.062 A 
BRANCH  19  23
ATOM     23  N   LIG    1       -0.793   9.024  -0.634  0.00  0.00    +0.084 N 
ATOM     24  O   LIG    1        0.127   9.648  -0.102  0.00  0.00    -0.576 OA
ATOM     25  O   LIG    1       -1.498   9.435  -1.574  0.00  0.00    +0.042 OA
ENDBRANCH  19  23
BRANCH  20  26
ATOM     26  O   LIG    1       -3.286   8.100   0.418  0.00  0.00    -0.499 OA
ATOM     27  H   LIG    1       -4.027   7.559   0.761  0.00  0.00    +0.292 HD
ENDBRANCH  20  26
BRANCH  21  28
ATOM     28  O   LIG    1       -3.607   5.553   1.176  0.00  0.00    -0.503 OA
ATOM     29  H   LIG    1       -3.589   4.605   1.401  0.00  0.00    +0.292 HD
ENDBRANCH  21  28
ENDBRANCH   3  17
TORSDOF 5
