REMARK  Name = *****
REMARK                            x       y       z     vdW  Elec       q    Type
REMARK                         _______ _______ _______ _____ _____    ______ ____
ROOT
ATOM      1  O   LIG    1        0.507   0.516  -0.094  0.00  0.00    -0.270 OA
ATOM      2  C   LIG    1        0.768   1.692  -0.298  0.00  0.00    +0.248 C 
ATOM      3  N   LIG    1        0.129   2.546  -1.194  0.00  0.00    -0.281 N 
ATOM      4  H   LIG    1        0.596   3.414  -1.415  0.00  0.00    +0.155 HD
ENDROOT
BRANCH   3   5
ATOM      5  C   LIG    1       -0.972   2.201  -2.001  0.00  0.00    +0.037 A 
ATOM      6  C   LIG    1       -1.227   2.995  -3.130  0.00  0.00    +0.070 A 
ATOM      7  C   LIG    1       -2.252   2.639  -4.010  0.00  0.00    +0.141 A 
ATOM      8  C   LIG    1       -3.033   1.516  -3.750  0.00  0.00    +0.064 A 
ATOM      9  C   LIG    1       -4.069   1.127  -4.716  0.00  0.00    +0.193 C 
ATOM     10  C   LIG    1       -4.202   1.976  -5.907  0.00  0.00    +0.101 C 
ATOM     11  C   LIG    1       -3.406   3.045  -6.033  0.00  0.00    +0.177 C 
ATOM     12  O   LIG    1       -4.784   0.149  -4.551  0.00  0.00    -0.287 OA
ATOM     13  C   LIG    1       -2.826   0.761  -2.598  0.00  0.00    +0.017 A 
ATOM     14  O   LIG    1       -2.435   3.426  -5.121  0.00  0.00    -0.451 OA
ATOM     15  C   LIG    1       -1.797   1.111  -1.726  0.00  0.00    +0.024 A 
BRANCH  11  16
ATOM     16  C   LIG    1       -3.529   3.875  -7.169  0.00  0.00    +0.215 A 
ATOM     17  N   LIG    1       -3.170   5.192  -7.093  0.00  0.00    -0.236 N 
ATOM     18  H   LIG    1       -2.809   5.719  -6.308  0.00  0.00    +0.192 HD
ATOM     19  N   LIG    1       -3.390   5.803  -8.263  0.00  0.00    -0.046 NA
ATOM     20  N   LIG    1       -3.877   4.859  -9.056  0.00  0.00    -0.023 NA
ATOM     21  N   LIG    1       -3.983   3.662  -8.388  0.00  0.00    -0.105 NA
ENDBRANCH  11  16
ENDBRANCH   3   5
BRANCH   2  22
ATOM     22  C   LIG    1        1.940   2.302   0.399  0.00  0.00    +0.037 A 
ATOM     23  C   LIG    1        3.020   1.471   0.730  0.00  0.00    +0.016 A 
ATOM     24  C   LIG    1        4.153   2.014   1.348  0.00  0.00    +0.046 A 
ATOM     25  C   LIG    1        4.220   3.382   1.616  0.00  0.00    +0.120 A 
ATOM     26  C   LIG    1        3.128   4.196   1.299  0.00  0.00    +0.046 A 
ATOM     27  C   LIG    1        1.982   3.655   0.713  0.00  0.00    +0.016 A 
BRANCH  25  28
ATOM     28  O   LIG    1        5.300   4.042   2.141  0.00  0.00    -0.492 OA
BRANCH  28  29
ATOM     29  C   LIG    1        6.258   3.240   2.838  0.00  0.00    +0.229 C 
BRANCH  29  30
ATOM     30  C   LIG    1        7.386   4.143   3.340  0.00  0.00    +0.041 C 
BRANCH  30  31
ATOM     31  C   LIG    1        8.492   3.387   4.087  0.00  0.00    +0.008 C 
BRANCH  31  32
ATOM     32  C   LIG    1        8.009   2.691   5.365  0.00  0.00    +0.035 C 
BRANCH  32  33
ATOM     33  C   LIG    1        9.124   1.979   6.095  0.00  0.00    -0.047 A 
ATOM     34  C   LIG    1        9.876   2.644   7.072  0.00  0.00    +0.003 A 
ATOM     35  C   LIG    1       10.917   1.989   7.735  0.00  0.00    +0.000 A 
ATOM     36  C   LIG    1       11.214   0.662   7.433  0.00  0.00    +0.000 A 
ATOM     37  C   LIG    1       10.468  -0.013   6.468  0.00  0.00    +0.000 A 
ATOM     38  C   LIG    1        9.431   0.642   5.800  0.00  0.00    +0.003 A 
ENDBRANCH  32  33
ENDBRANCH  31  32
ENDBRANCH  30  31
ENDBRANCH  29  30
ENDBRANCH  28  29
ENDBRANCH  25  28
ENDBRANCH   2  22
TORSDOF 9
