REMARK  Name = *****
REMARK                            x       y       z     vdW  Elec       q    Type
REMARK                         _______ _______ _______ _____ _____    ______ ____
ROOT
ATOM      1  C   LIG    1        3.200   1.232   0.082  0.00  0.00    +0.161 C 
ENDROOT
BRANCH   1   2
ATOM      2  N   LIG    1        4.654   1.368   0.231  0.00  0.00    -0.290 N 
ATOM      3  C   LIG    1        5.504   1.593  -0.838  0.00  0.00    +0.216 C 
ATOM      4  O   LIG    1        5.168   1.797  -1.997  0.00  0.00    -0.276 OA
ATOM      5  C   LIG    1        6.924   1.469  -0.346  0.00  0.00    +0.097 C 
ATOM      6  C   LIG    1        6.771   1.499   1.170  0.00  0.00    +0.028 C 
ATOM      7  C   LIG    1        5.383   0.933   1.401  0.00  0.00    +0.109 C 
ENDBRANCH   1   2
BRANCH   1   8
ATOM      8  C   LIG    1        2.797  -0.256   0.124  0.00  0.00    +0.231 C 
ATOM      9  O   LIG    1        2.520  -0.865   1.154  0.00  0.00    -0.274 OA
ATOM     10  N   LIG    1        2.854  -0.916  -1.071  0.00  0.00    -0.328 N 
ATOM     11  H   LIG    1        3.228  -0.487  -1.910  0.00  0.00    +0.145 HD
ATOM     12  H   LIG    1        2.629  -1.902  -1.083  0.00  0.00    +0.145 HD
ENDBRANCH   1   8
BRANCH   1  14
ATOM     13  C   LIG    1        2.695   3.535   1.033  0.00  0.00    +0.006 C 
ATOM     14  C   LIG    1        2.431   2.038   1.138  0.00  0.00    +0.028 C 
ENDBRANCH   1  14
TORSDOF 3
