REMARK  Name = *****
REMARK                            x       y       z     vdW  Elec       q    Type
REMARK                         _______ _______ _______ _____ _____    ______ ____
ROOT
ATOM      1  N   LIG    1        3.904   4.855   7.207  0.00  0.00    -0.297 N 
ATOM      2  C   LIG    1        3.167   4.399   8.404  0.00  0.00    +0.127 C 
ATOM      3  C   LIG    1        2.982   2.864   8.376  0.00  0.00    +0.127 C 
ATOM      4  N   LIG    1        4.294   2.214   8.247  0.00  0.00    -0.295 N 
ATOM      5  C   LIG    1        5.090   1.880   9.356  0.00  0.00    +0.260 C 
ATOM      6  O   LIG    1        6.313   1.829   9.257  0.00  0.00    -0.271 OA
ATOM      7  C   LIG    1        4.985   2.623   7.008  0.00  0.00    +0.127 C 
ATOM      8  C   LIG    1        5.192   4.156   6.991  0.00  0.00    +0.127 C 
ENDROOT
BRANCH   1  15
ATOM      9  C   LIG    1       -1.236   5.428   4.244  0.00  0.00    +0.164 A 
ATOM     10  C   LIG    1       -0.709   5.567   2.951  0.00  0.00    +0.162 A 
ATOM     11  C   LIG    1        0.674   5.499   2.768  0.00  0.00    +0.062 A 
ATOM     12  C   LIG    1        1.538   5.335   3.871  0.00  0.00    +0.044 A 
ATOM     13  C   LIG    1        1.013   5.213   5.151  0.00  0.00    +0.082 A 
ATOM     14  N   LIG    1        1.783   5.054   6.224  0.00  0.00    -0.214 NA
ATOM     15  C   LIG    1        3.114   4.998   6.070  0.00  0.00    +0.220 A 
ATOM     16  N   LIG    1        3.707   5.095   4.875  0.00  0.00    -0.199 NA
ATOM     17  C   LIG    1        2.930   5.276   3.804  0.00  0.00    +0.129 A 
ATOM     18  C   LIG    1       -0.362   5.263   5.324  0.00  0.00    +0.078 A 
BRANCH  17  19
ATOM     19  N   LIG    1        3.620   5.400   2.591  0.00  0.00    -0.343 N 
ATOM     20  H   LIG    1        3.394   6.279   2.139  0.00  0.00    +0.144 HD
ATOM     21  H   LIG    1        4.611   5.360   2.823  0.00  0.00    +0.144 HD
ENDBRANCH  17  19
BRANCH   9  23
ATOM     22  C   LIG    1       -3.167   4.887   5.520  0.00  0.00    +0.277 C 
ATOM     23  O   LIG    1       -2.598   5.530   4.384  0.00  0.00    -0.491 OA
ENDBRANCH   9  23
BRANCH  10  24
ATOM     24  O   LIG    1       -1.598   5.693   1.914  0.00  0.00    -0.491 OA
ATOM     25  C   LIG    1       -1.140   6.434   0.788  0.00  0.00    +0.277 C 
ENDBRANCH  10  24
ENDBRANCH   1  15
BRANCH   5  26
ATOM     26  C   LIG    1        4.361   1.435  10.664  0.00  0.00    +0.296 C 
ATOM     27  O   LIG    1        3.409   2.347  11.211  0.00  0.00    -0.472 OA
ATOM     28  C   LIG    1        4.005   3.343  11.932  0.00  0.00    +0.163 A 
ATOM     29  C   LIG    1        5.286   3.222  12.465  0.00  0.00    +0.162 A 
ATOM     30  C   LIG    1        5.873   4.304  13.113  0.00  0.00    +0.049 A 
ATOM     31  C   LIG    1        5.176   5.506  13.232  0.00  0.00    +0.004 A 
ATOM     32  C   LIG    1        3.874   5.611  12.740  0.00  0.00    +0.004 A 
ATOM     33  O   LIG    1        6.038   2.086  12.369  0.00  0.00    -0.484 OA
ATOM     34  C   LIG    1        3.280   4.521  12.104  0.00  0.00    +0.049 A 
ATOM     35  C   LIG    1        5.329   0.996  11.768  0.00  0.00    +0.283 C 
ENDBRANCH   5  26
TORSDOF 5
