REMARK  Name = *****
REMARK                            x       y       z     vdW  Elec       q    Type
REMARK                         _______ _______ _______ _____ _____    ______ ____
ROOT
ATOM      1  N   LIG    1        3.285   1.384  -0.379  0.00  0.00    -0.310 NA
ATOM      2  H   LIG    1        3.527   1.834   0.510  0.00  0.00    +0.122 HD
ENDROOT
BRANCH   1   4
ATOM      3  C   LIG    1        1.400   0.378   0.794  0.00  0.00    +0.024 C 
ATOM      4  C   LIG    1        2.629   0.084  -0.082  0.00  0.00    +0.055 C 
BRANCH   4   5
ATOM      5  C   LIG    1        2.246  -0.654  -1.389  0.00  0.00    +0.053 C 
BRANCH   5   6
ATOM      6  C   LIG    1        1.573  -2.003  -1.241  0.00  0.00    -0.042 A 
ATOM      7  C   LIG    1        0.175  -2.082  -1.250  0.00  0.00    +0.053 A 
ATOM      8  C   LIG    1       -0.407  -3.324  -1.134  0.00  0.00    +0.167 A 
ATOM      9  O   LIG    1       -1.739  -3.570  -1.111  0.00  0.00    -0.453 OA
ATOM     10  C   LIG    1       -1.742  -5.009  -0.980  0.00  0.00    +0.466 C 
ATOM     11  O   LIG    1       -0.422  -5.581  -0.930  0.00  0.00    -0.453 OA
ATOM     12  C   LIG    1        0.352  -4.468  -1.039  0.00  0.00    +0.166 A 
ATOM     13  C   LIG    1        1.726  -4.431  -1.056  0.00  0.00    +0.050 A 
ATOM     14  C   LIG    1        2.346  -3.183  -1.162  0.00  0.00    +0.007 A 
ENDBRANCH   5   6
ENDBRANCH   4   5
ENDBRANCH   1   4
BRANCH   1  15
ATOM     15  C   LIG    1        4.520   1.238  -1.182  0.00  0.00    +0.117 C 
BRANCH  15  16
ATOM     16  C   LIG    1        5.190   2.599  -1.517  0.00  0.00    +0.158 C 
BRANCH  16  17
ATOM     17  C   LIG    1        5.705   3.398  -0.337  0.00  0.00    -0.014 A 
ATOM     18  C   LIG    1        6.181   2.761   0.819  0.00  0.00    +0.055 A 
ATOM     19  C   LIG    1        6.661   3.513   1.879  0.00  0.00    +0.159 A 
ATOM     20  C   LIG    1        6.671   4.901   1.823  0.00  0.00    +0.158 A 
ATOM     21  C   LIG    1        6.233   5.558   0.682  0.00  0.00    +0.049 A 
ATOM     22  C   LIG    1        5.771   4.804  -0.401  0.00  0.00    +0.010 A 
BRANCH  19  23
ATOM     23  O   LIG    1        7.127   2.864   2.986  0.00  0.00    -0.503 OA
ATOM     24  H   LIG    1        7.451   3.580   3.567  0.00  0.00    +0.292 HD
ENDBRANCH  19  23
BRANCH  20  25
ATOM     25  O   LIG    1        7.123   5.577   2.921  0.00  0.00    -0.503 OA
ATOM     26  H   LIG    1        6.962   6.525   2.773  0.00  0.00    +0.292 HD
ENDBRANCH  20  25
ENDBRANCH  16  17
BRANCH  16  27
ATOM     27  O   LIG    1        4.249   3.383  -2.266  0.00  0.00    -0.386 OA
ATOM     28  H   LIG    1        3.378   3.167  -1.879  0.00  0.00    +0.210 HD
ENDBRANCH  16  27
ENDBRANCH  15  16
ENDBRANCH   1  15
TORSDOF 9
