REMARK  Name = *****
REMARK                            x       y       z     vdW  Elec       q    Type
REMARK                         _______ _______ _______ _____ _____    ______ ____
ROOT
ATOM      1  C   LIG    1       12.165  10.753  -5.960  0.00  0.00    +0.153 C 
ATOM      2  C   LIG    1       13.133  10.032  -6.892  0.00  0.00    +0.172 C 
ATOM      3  C   LIG    1       12.511   9.864  -8.277  0.00  0.00    +0.151 C 
ATOM      4  C   LIG    1       12.067  11.204  -8.881  0.00  0.00    +0.048 C 
ATOM      5  C   LIG    1       11.347  12.086  -7.839  0.00  0.00    +0.166 C 
ATOM      6  O   LIG    1       11.924  12.060  -6.528  0.00  0.00    -0.373 OA
ENDROOT
BRANCH   2   7
ATOM      7  O   LIG    1       14.336  10.820  -7.047  0.00  0.00    -0.387 OA
ATOM      8  H   LIG    1       14.052  11.758  -7.040  0.00  0.00    +0.210 HD
ENDBRANCH   2   7
BRANCH   3   9
ATOM      9  O   LIG    1       13.492   9.257  -9.126  0.00  0.00    -0.389 OA
ATOM     10  H   LIG    1       14.341   9.687  -8.897  0.00  0.00    +0.210 HD
ENDBRANCH   3   9
BRANCH   4  11
ATOM     11  C   LIG    1       11.166  10.976 -10.122  0.00  0.00    +0.042 C 
BRANCH  11  12
ATOM     12  C   LIG    1       11.836  10.174 -11.211  0.00  0.00    +0.148 C 
ATOM     13  C   LIG    1       11.397   8.756 -11.638  0.00  0.00    +0.153 C 
ATOM     14  O   LIG    1       11.002   9.953 -12.348  0.00  0.00    -0.368 OA
BRANCH  13  15
ATOM     15  C   LIG    1       12.217   7.798 -12.526  0.00  0.00    +0.046 C 
ATOM     16  C   LIG    1       13.540   8.428 -12.974  0.00  0.00    +0.013 C 
BRANCH  15  17
ATOM     17  C   LIG    1       12.498   6.415 -11.854  0.00  0.00    +0.117 C 
ATOM     18  C   LIG    1       13.284   5.417 -12.728  0.00  0.00    +0.038 C 
BRANCH  17  19
ATOM     19  O   LIG    1       11.274   5.778 -11.473  0.00  0.00    -0.392 OA
ATOM     20  H   LIG    1       10.850   5.425 -12.274  0.00  0.00    +0.210 HD
ENDBRANCH  17  19
ENDBRANCH  15  17
ENDBRANCH  13  15
ENDBRANCH  11  12
ENDBRANCH   4  11
BRANCH   1  21
ATOM     21  C   LIG    1       10.853   9.993  -5.625  0.00  0.00    +0.065 C 
BRANCH  21  23
ATOM     22  C   LIG    1       12.059   8.232  -4.116  0.00  0.00    +0.039 C 
ATOM     23  C   LIG    1       10.923   8.580  -5.055  0.00  0.00    -0.063 C 
ATOM     24  C   LIG    1        9.957   7.679  -5.385  0.00  0.00    +0.090 C 
BRANCH  24  25
ATOM     25  C   LIG    1        9.903   6.291  -4.904  0.00  0.00    +0.332 C 
ATOM     26  O   LIG    1       10.469   5.908  -3.855  0.00  0.00    -0.246 OA
BRANCH  25  27
ATOM     27  O   LIG    1        9.264   5.521  -5.814  0.00  0.00    -0.462 OA
BRANCH  27  28
ATOM     28  C   LIG    1        9.697   4.141  -5.949  0.00  0.00    +0.232 C 
BRANCH  28  29
ATOM     29  C   LIG    1        9.167   3.223  -4.863  0.00  0.00    +0.041 C 
BRANCH  29  30
ATOM     30  C   LIG    1        9.729   1.798  -4.917  0.00  0.00    +0.003 C 
BRANCH  30  31
ATOM     31  C   LIG    1        9.259   0.847  -3.798  0.00  0.00    +0.000 C 
BRANCH  31  32
ATOM     32  C   LIG    1        9.683   1.209  -2.354  0.00  0.00    +0.000 C 
BRANCH  32  33
ATOM     33  C   LIG    1        9.013   2.463  -1.794  0.00  0.00    +0.000 C 
BRANCH  33  34
ATOM     34  C   LIG    1        9.414   2.950  -0.404  0.00  0.00    +0.011 C 
BRANCH  34  35
ATOM     35  C   LIG    1       10.899   3.225  -0.108  0.00  0.00    +0.120 C 
BRANCH  35  36
ATOM     36  C   LIG    1       11.595   4.322  -0.891  0.00  0.00    +0.305 C 
ATOM     37  O   LIG    1       12.470   5.052  -0.472  0.00  0.00    -0.251 OA
BRANCH  36  38
ATOM     38  O   LIG    1       11.207   4.357  -2.169  0.00  0.00    -0.481 OA
ATOM     39  H   LIG    1       11.489   5.199  -2.595  0.00  0.00    +0.295 HD
ENDBRANCH  36  38
ENDBRANCH  35  36
ENDBRANCH  34  35
ENDBRANCH  33  34
ENDBRANCH  32  33
ENDBRANCH  31  32
ENDBRANCH  30  31
ENDBRANCH  29  30
ENDBRANCH  28  29
ENDBRANCH  27  28
ENDBRANCH  25  27
ENDBRANCH  24  25
ENDBRANCH  21  23
ENDBRANCH   1  21
TORSDOF 21
