REMARK  Name = *****
REMARK                            x       y       z     vdW  Elec       q    Type
REMARK                         _______ _______ _______ _____ _____    ______ ____
ROOT
ATOM      1  CA  GLU A  1        5.238   0.966  -1.840  0.00  0.00    +0.183 C 
ENDROOT
BRANCH   1   6
ATOM      2  N   UNK A  0        5.568   2.623  -5.074  0.00  0.00    -0.313 N 
ATOM      3  H   UNK A  0        4.783   3.252  -4.962  0.00  0.00    +0.146 HD
ATOM      4  H   UNK A  0        6.305   2.984  -5.668  0.00  0.00    +0.146 HD
ATOM      5  C   UNK A  0        6.020   2.017  -3.954  0.00  0.00    +0.298 C 
ATOM      6  N   GLU A  1        5.017   1.673  -3.106  0.00  0.00    -0.286 N 
ATOM      7  H   GLU A  1        4.143   1.468  -3.573  0.00  0.00    +0.151 HD
ATOM      8  O   UNK A  0        7.200   1.845  -3.724  0.00  0.00    -0.253 OA
ENDBRANCH   1   6
BRANCH   1   9
ATOM      9  C   GLU A  1        6.011   1.832  -0.809  0.00  0.00    +0.325 C 
ATOM     10  O   GLU A  1        5.617   2.013   0.338  0.00  0.00    -0.249 OA
BRANCH   9  11
ATOM     11  OXT GLU A  1        7.199   2.329  -1.219  0.00  0.00    -0.479 OA
ATOM     12  HXT GLU A  1        7.414   2.136  -2.164  0.00  0.00    +0.295 HD
ENDBRANCH   9  11
ENDBRANCH   1   9
BRANCH   1  13
ATOM     13  CB  GLU A  1        5.881  -0.427  -2.023  0.00  0.00    +0.045 C 
BRANCH  13  14
ATOM     14  CG  GLU A  1        5.117  -1.406  -2.925  0.00  0.00    +0.123 C 
BRANCH  14  15
ATOM     15  CD  GLU A  1        3.768  -1.820  -2.395  0.00  0.00    +0.305 C 
ATOM     16  OE1 GLU A  1        2.744  -1.194  -2.624  0.00  0.00    -0.251 OA
BRANCH  15  17
ATOM     17  OE2 GLU A  1        3.782  -2.941  -1.644  0.00  0.00    -0.481 OA
ATOM     18  HE2 GLU A  1        4.647  -3.386  -1.566  0.00  0.00    +0.295 HD
ENDBRANCH  15  17
ENDBRANCH  14  15
ENDBRANCH  13  14
ENDBRANCH   1  13
TORSDOF 7
