REMARK  Name = *****
REMARK                            x       y       z     vdW  Elec       q    Type
REMARK                         _______ _______ _______ _____ _____    ______ ____
ROOT
ATOM      1  C   LIG    1        5.726  -7.783   5.286  0.00  0.00    +0.165 C 
ATOM      2  O   LIG    1        4.991  -8.391   6.055  0.00  0.00    -0.294 OA
ENDROOT
BRANCH   1   3
ATOM      3  C   LIG    1        5.386  -6.415   4.836  0.00  0.00    +0.223 C 
ATOM      4  C   LIG    1        3.974  -5.886   4.749  0.00  0.00    +0.240 C 
ATOM      5  O   LIG    1        4.675  -6.374   3.583  0.00  0.00    -0.350 OA
BRANCH   4   6
ATOM      6  C   LIG    1        2.775  -6.646   5.159  0.00  0.00    +0.242 C 
ATOM      7  O   LIG    1        2.154  -6.349   6.168  0.00  0.00    -0.273 OA
ATOM      8  N   LIG    1        2.356  -7.630   4.300  0.00  0.00    -0.327 N 
ATOM      9  H   LIG    1        2.918  -7.923   3.516  0.00  0.00    +0.145 HD
ATOM     10  H   LIG    1        1.555  -8.187   4.577  0.00  0.00    +0.145 HD
ENDBRANCH   4   6
ENDBRANCH   1   3
BRANCH   1  11
ATOM     11  C   LIG    1        7.056  -8.324   4.796  0.00  0.00    +0.081 C 
BRANCH  11  12
ATOM     12  C   LIG    1        7.031  -9.850   4.729  0.00  0.00    +0.034 C 
BRANCH  12  14
ATOM     13  C   LIG    1        9.063 -11.307   4.962  0.00  0.00    -0.027 C 
ATOM     14  C   LIG    1        8.337 -10.427   4.252  0.00  0.00    -0.030 C 
BRANCH  13  15
ATOM     15  C   LIG    1       10.316 -11.968   4.460  0.00  0.00    +0.053 C 
BRANCH  15  18
ATOM     16  C   LIG    1       10.525 -14.581   6.202  0.00  0.00    +0.035 C 
ATOM     17  C   LIG    1       11.397 -13.369   6.292  0.00  0.00    -0.034 C 
ATOM     18  C   LIG    1       11.291 -12.239   5.571  0.00  0.00    -0.027 C 
ENDBRANCH  15  18
ENDBRANCH  13  15
ENDBRANCH  12  14
ENDBRANCH  11  12
ENDBRANCH   1  11
TORSDOF 7
