REMARK  Name = *****
REMARK                            x       y       z     vdW  Elec       q    Type
REMARK                         _______ _______ _______ _____ _____    ______ ____
ROOT
ATOM      1  C   LIG    1        4.615  -2.457   1.401  0.00  0.00    +0.095 C 
ATOM      2  C   LIG    1        3.849  -3.682   0.827  0.00  0.00    +0.038 C 
ATOM      3  C   LIG    1        4.121  -3.883  -0.669  0.00  0.00    +0.086 C 
ATOM      4  N   LIG    1        5.548  -4.023  -0.978  0.00  0.00    -0.302 NA
ATOM      5  C   LIG    1        6.253  -2.800  -0.556  0.00  0.00    +0.086 C 
ATOM      6  C   LIG    1        6.103  -2.522   0.942  0.00  0.00    +0.038 C 
ENDROOT
BRANCH   1   7
ATOM      7  C   LIG    1        4.498  -2.431   2.951  0.00  0.00    -0.030 A 
ATOM      8  C   LIG    1        3.458  -1.728   3.593  0.00  0.00    +0.005 A 
ATOM      9  C   LIG    1        3.361  -1.662   4.985  0.00  0.00    +0.000 A 
ATOM     10  C   LIG    1        4.296  -2.313   5.779  0.00  0.00    +0.000 A 
ATOM     11  C   LIG    1        5.319  -3.036   5.177  0.00  0.00    +0.000 A 
ATOM     12  C   LIG    1        5.413  -3.102   3.783  0.00  0.00    +0.005 A 
ENDBRANCH   1   7
BRANCH   1  13
ATOM     13  C   LIG    1        4.018  -1.144   0.829  0.00  0.00    +0.318 C 
ATOM     14  O   LIG    1        4.621  -0.081   0.745  0.00  0.00    -0.250 OA
BRANCH  13  15
ATOM     15  O   LIG    1        2.683  -1.291   0.574  0.00  0.00    -0.464 OA
BRANCH  15  17
ATOM     16  C   LIG    1        2.047   0.521  -0.912  0.00  0.00    +0.048 C 
ATOM     17  C   LIG    1        1.906  -0.094   0.461  0.00  0.00    +0.229 C 
ENDBRANCH  15  17
ENDBRANCH  13  15
ENDBRANCH   1  13
BRANCH   4  18
ATOM     18  C   LIG    1        6.162  -5.246  -0.408  0.00  0.00    +0.086 C 
BRANCH  18  19
ATOM     19  C   LIG    1        5.475  -6.528  -0.911  0.00  0.00    +0.046 C 
BRANCH  19  20
ATOM     20  C   LIG    1        6.082  -7.884  -0.408  0.00  0.00    +0.108 C 
BRANCH  20  21
ATOM     21  C   LIG    1        5.311  -9.080  -1.061  0.00  0.00    -0.023 A 
ATOM     22  C   LIG    1        5.238 -10.343  -0.444  0.00  0.00    +0.005 A 
ATOM     23  C   LIG    1        4.586 -11.419  -1.066  0.00  0.00    +0.000 A 
ATOM     24  C   LIG    1        4.015 -11.270  -2.327  0.00  0.00    +0.000 A 
ATOM     25  C   LIG    1        4.101 -10.048  -2.974  0.00  0.00    +0.000 A 
ATOM     26  C   LIG    1        4.743  -8.973  -2.353  0.00  0.00    +0.005 A 
ENDBRANCH  20  21
BRANCH  20  27
ATOM     27  C   LIG    1        6.022  -7.904   1.159  0.00  0.00    -0.023 A 
ATOM     28  C   LIG    1        7.183  -8.057   1.948  0.00  0.00    +0.005 A 
ATOM     29  C   LIG    1        7.126  -8.074   3.347  0.00  0.00    +0.000 A 
ATOM     30  C   LIG    1        5.904  -7.955   3.998  0.00  0.00    +0.000 A 
ATOM     31  C   LIG    1        4.742  -7.797   3.250  0.00  0.00    +0.000 A 
ATOM     32  C   LIG    1        4.798  -7.761   1.849  0.00  0.00    +0.005 A 
ENDBRANCH  20  27
BRANCH  20  33
ATOM     33  C   LIG    1        7.488  -7.946  -0.917  0.00  0.00    +0.079 C 
ATOM     34  N   LIG    1        8.582  -7.957  -1.286  0.00  0.00    -0.195 NA
ENDBRANCH  20  33
ENDBRANCH  19  20
ENDBRANCH  18  19
ENDBRANCH   4  18
TORSDOF 10
