REMARK  Name = *****
REMARK                            x       y       z     vdW  Elec       q    Type
REMARK                         _______ _______ _______ _____ _____    ______ ____
ROOT
ATOM      1  C   LIG    1        3.055   0.102  -1.287  0.00  0.00    +0.132 C 
ATOM      2  S   LIG    1        2.124   0.124  -2.670  0.00  0.00    -0.019 S 
ENDROOT
BRANCH   1   4
ATOM      3  C   LIG    1        2.989  -0.214   1.215  0.00  0.00    +0.127 C 
ATOM      4  N   LIG    1        2.471  -0.317  -0.131  0.00  0.00    -0.330 N 
ATOM      5  H   LIG    1        1.486  -0.544  -0.231  0.00  0.00    +0.147 HD
ENDBRANCH   1   4
BRANCH   1   6
ATOM      6  N   LIG    1        4.353   0.507  -1.179  0.00  0.00    -0.304 N 
ATOM      7  H   LIG    1        4.866   0.148  -0.393  0.00  0.00    +0.150 HD
BRANCH   6   8
ATOM      8  C   LIG    1        5.199   0.932  -2.255  0.00  0.00    +0.263 C 
BRANCH   8   9
ATOM      9  O   LIG    1        6.152   1.768  -1.646  0.00  0.00    -0.377 OA
ATOM     10  H   LIG    1        5.618   2.427  -1.171  0.00  0.00    +0.211 HD
ENDBRANCH   8   9
ENDBRANCH   6   8
ENDBRANCH   1   6
TORSDOF 4
