REMARK  Name = *****
REMARK                            x       y       z     vdW  Elec       q    Type
REMARK                         _______ _______ _______ _____ _____    ______ ____
ROOT
ATOM      1  C   LIG    1        4.630  -0.647   1.069  0.00  0.00    +0.084 C 
ATOM      2  C   LIG    1        5.117   0.577   1.867  0.00  0.00    +0.027 C 
ENDROOT
BRANCH   1   3
ATOM      3  N   LIG    1        3.149  -0.651   0.985  0.00  0.00    -0.305 NA
ATOM      4  H   LIG    1        2.856  -1.522   0.537  0.00  0.00    +0.123 HD
BRANCH   3   6
ATOM      5  C   LIG    1        1.003   0.314   0.376  0.00  0.00    +0.027 C 
ATOM      6  C   LIG    1        2.530   0.496   0.261  0.00  0.00    +0.088 C 
BRANCH   6   7
ATOM      7  C   LIG    1        2.868   0.668  -1.254  0.00  0.00    +0.247 C 
BRANCH   7   8
ATOM      8  O   LIG    1        4.257   0.942  -1.468  0.00  0.00    -0.490 OA
BRANCH   8   9
ATOM      9  C   LIG    1        4.777   0.475  -2.648  0.00  0.00    +0.121 A 
ATOM     10  C   LIG    1        6.111   0.063  -2.598  0.00  0.00    +0.045 A 
ATOM     11  C   LIG    1        6.726  -0.491  -3.723  0.00  0.00    +0.004 A 
ATOM     12  C   LIG    1        6.016  -0.606  -4.915  0.00  0.00    +0.000 A 
ATOM     13  C   LIG    1        4.706  -0.132  -4.989  0.00  0.00    +0.004 A 
ATOM     14  C   LIG    1        4.087   0.414  -3.858  0.00  0.00    +0.045 A 
ENDBRANCH   8   9
ENDBRANCH   7   8
ENDBRANCH   6   7
ENDBRANCH   3   6
ENDBRANCH   1   3
BRANCH   1  15
ATOM     15  C   LIG    1        5.224  -1.946   1.742  0.00  0.00    +0.161 C 
BRANCH  15  16
ATOM     16  C   LIG    1        5.076  -3.251   0.971  0.00  0.00    -0.018 A 
ATOM     17  C   LIG    1        5.708  -3.416  -0.280  0.00  0.00    +0.010 A 
ATOM     18  C   LIG    1        5.627  -4.637  -0.961  0.00  0.00    +0.046 A 
ATOM     19  C   LIG    1        4.922  -5.694  -0.419  0.00  0.00    +0.117 A 
ATOM     20  C   LIG    1        4.308  -5.573   0.827  0.00  0.00    +0.046 A 
ATOM     21  C   LIG    1        4.399  -4.354   1.511  0.00  0.00    +0.010 A 
BRANCH  19  22
ATOM     22  O   LIG    1        4.846  -6.861  -1.128  0.00  0.00    -0.507 OA
ATOM     23  H   LIG    1        4.253  -7.466  -0.664  0.00  0.00    +0.292 HD
ENDBRANCH  19  22
ENDBRANCH  15  16
BRANCH  15  24
ATOM     24  O   LIG    1        4.736  -2.091   3.083  0.00  0.00    -0.386 OA
ATOM     25  H   LIG    1        4.018  -1.439   3.183  0.00  0.00    +0.210 HD
ENDBRANCH  15  24
ENDBRANCH   1  15
TORSDOF 9
