REMARK  Name = *****
REMARK                            x       y       z     vdW  Elec       q    Type
REMARK                         _______ _______ _______ _____ _____    ______ ____
ROOT
ATOM      1  O   LIG    1        1.311   0.321   0.296  0.00  0.00    -0.291 OA
ATOM      2  C   LIG    1        2.512   0.161   0.166  0.00  0.00    +0.179 C 
ATOM      3  C   LIG    1        3.287  -1.149   0.132  0.00  0.00    +0.161 C 
ATOM      4  C   LIG    1        4.722  -0.684  -0.085  0.00  0.00    +0.179 C 
ATOM      5  O   LIG    1        5.720  -1.370  -0.231  0.00  0.00    -0.291 OA
ATOM      6  C   LIG    1        4.740   0.776  -0.139  0.00  0.00    +0.029 A 
ATOM      7  C   LIG    1        5.825   1.617  -0.309  0.00  0.00    +0.012 A 
ATOM      8  C   LIG    1        5.578   2.993  -0.333  0.00  0.00    +0.001 A 
ATOM      9  C   LIG    1        4.269   3.493  -0.189  0.00  0.00    +0.001 A 
ATOM     10  C   LIG    1        3.186   2.625  -0.019  0.00  0.00    +0.012 A 
ATOM     11  C   LIG    1        3.452   1.268   0.003  0.00  0.00    +0.029 A 
ENDROOT
BRANCH   3  12
ATOM     12  C   LIG    1        3.140  -2.040   1.348  0.00  0.00    -0.029 A 
ATOM     13  C   LIG    1        3.599  -3.367   1.272  0.00  0.00    +0.005 A 
ATOM     14  C   LIG    1        3.503  -4.225   2.369  0.00  0.00    +0.000 A 
ATOM     15  C   LIG    1        2.949  -3.771   3.561  0.00  0.00    +0.000 A 
ATOM     16  C   LIG    1        2.493  -2.459   3.657  0.00  0.00    +0.000 A 
ATOM     17  C   LIG    1        2.590  -1.598   2.561  0.00  0.00    +0.005 A 
ENDBRANCH   3  12
TORSDOF 1
