REMARK  Name = *****
REMARK                            x       y       z     vdW  Elec       q    Type
REMARK                         _______ _______ _______ _____ _____    ______ ____
ROOT
ATOM      1  C   LIG    1        5.539  -4.889   0.187  0.00  0.00    -0.030 A 
ATOM      2  C   LIG    1        6.450  -5.594  -0.604  0.00  0.00    +0.006 A 
ATOM      3  C   LIG    1        6.490  -6.995  -0.577  0.00  0.00    +0.009 A 
ATOM      4  C   LIG    1        5.636  -7.749   0.251  0.00  0.00    -0.017 A 
ATOM      5  C   LIG    1        4.770  -7.023   1.085  0.00  0.00    +0.009 A 
ATOM      6  C   LIG    1        4.687  -5.624   1.020  0.00  0.00    +0.006 A 
ENDROOT
BRANCH   4   7
ATOM      7  C   LIG    1        5.680  -9.240   0.243  0.00  0.00    -0.007 A 
ATOM      8  C   LIG    1        4.542 -10.095   0.263  0.00  0.00    +0.028 A 
ATOM      9  C   LIG    1        4.735 -11.498   0.303  0.00  0.00    +0.012 A 
ATOM     10  C   LIG    1        6.007 -12.067   0.265  0.00  0.00    +0.001 A 
ATOM     11  C   LIG    1        7.120 -11.245   0.206  0.00  0.00    +0.001 A 
ATOM     12  C   LIG    1        6.956  -9.859   0.213  0.00  0.00    +0.009 A 
BRANCH   8  13
ATOM     13  C   LIG    1        3.146  -9.640   0.206  0.00  0.00    +0.180 A 
ATOM     14  N   LIG    1        2.690  -8.530  -0.455  0.00  0.00    -0.239 N 
ATOM     15  H   LIG    1        3.209  -7.825  -0.961  0.00  0.00    +0.192 HD
ATOM     16  N   LIG    1        1.364  -8.408  -0.317  0.00  0.00    -0.046 NA
ATOM     17  N   LIG    1        0.996  -9.463   0.392  0.00  0.00    -0.023 NA
ATOM     18  N   LIG    1        2.082 -10.242   0.712  0.00  0.00    -0.108 NA
ENDBRANCH   8  13
ENDBRANCH   4   7
BRANCH   1  19
ATOM     19  C   LIG    1        5.453  -3.375   0.143  0.00  0.00    +0.150 C 
BRANCH  19  24
ATOM     20  C   LIG    1        7.540  -2.007  -4.141  0.00  0.00    +0.088 C 
ATOM     21  C   LIG    1        8.010  -1.925  -2.724  0.00  0.00    +0.128 A 
ATOM     22  N   LIG    1        7.178  -2.373  -1.774  0.00  0.00    -0.217 NA
ATOM     23  C   LIG    1        7.579  -2.266  -0.497  0.00  0.00    +0.135 A 
ATOM     24  N   LIG    1        6.691  -2.695   0.524  0.00  0.00    -0.251 N 
ATOM     25  C   LIG    1        6.917  -2.429   1.869  0.00  0.00    +0.222 C 
ATOM     26  C   LIG    1        8.065  -1.485   2.171  0.00  0.00    +0.101 C 
ATOM     27  C   LIG    1        9.256  -1.759   1.280  0.00  0.00    +0.049 C 
ATOM     28  O   LIG    1        6.185  -2.812   2.769  0.00  0.00    -0.275 OA
ATOM     29  C   LIG    1        8.828  -1.766  -0.152  0.00  0.00    +0.014 A 
ATOM     30  C   LIG    1        9.646  -1.383  -1.205  0.00  0.00    +0.047 A 
ATOM     31  C   LIG    1       11.052  -0.906  -0.992  0.00  0.00    +0.066 C 
ATOM     32  N   LIG    1        9.235  -1.435  -2.489  0.00  0.00    -0.237 NA
ENDBRANCH  19  24
ENDBRANCH   1  19
TORSDOF 4
