REMARK  Name = *****
REMARK                            x       y       z     vdW  Elec       q    Type
REMARK                         _______ _______ _______ _____ _____    ______ ____
ROOT
ATOM      1  C   LIG    1       -2.675   0.536   3.237  0.00  0.00    +0.050 C 
ATOM      2  C   LIG    1       -3.699  -0.563   2.873  0.00  0.00    -0.037 A 
ATOM      3  C   LIG    1       -3.397  -1.944   2.997  0.00  0.00    -0.043 A 
ATOM      4  C   LIG    1       -4.370  -2.900   2.609  0.00  0.00    +0.004 A 
ATOM      5  C   LIG    1       -5.613  -2.522   2.119  0.00  0.00    +0.000 A 
ATOM      6  C   LIG    1       -5.920  -1.177   2.012  0.00  0.00    +0.000 A 
ATOM      7  C   LIG    1       -2.127  -2.553   3.569  0.00  0.00    +0.040 C 
ATOM      8  C   LIG    1       -0.969  -1.673   4.040  0.00  0.00    +0.040 C 
ATOM      9  C   LIG    1       -1.404  -0.665   5.073  0.00  0.00    -0.043 A 
ATOM     10  C   LIG    1       -1.013  -0.828   6.411  0.00  0.00    +0.004 A 
ATOM     11  C   LIG    1       -1.461   0.059   7.388  0.00  0.00    +0.000 A 
ATOM     12  C   LIG    1       -2.317   1.095   7.039  0.00  0.00    +0.000 A 
ATOM     13  C   LIG    1       -2.722   1.259   5.711  0.00  0.00    +0.004 A 
ATOM     14  C   LIG    1       -4.978  -0.213   2.387  0.00  0.00    +0.004 A 
ATOM     15  C   LIG    1       -2.252   0.401   4.702  0.00  0.00    -0.037 A 
ENDROOT
BRANCH   1  16
ATOM     16  C   LIG    1       -3.061   1.987   2.791  0.00  0.00    +0.017 C 
BRANCH  16  18
ATOM     17  C   LIG    1       -0.699   2.733   2.143  0.00  0.00    +0.009 C 
ATOM     18  C   LIG    1       -1.968   3.090   2.921  0.00  0.00    +0.001 C 
BRANCH  18  19
ATOM     19  C   LIG    1       -2.561   4.445   2.434  0.00  0.00    +0.087 C 
BRANCH  19  20
ATOM     20  N   LIG    1       -1.660   5.615   2.494  0.00  0.00    -0.308 NA
ATOM     21  C   LIG    1       -1.145   5.859   3.841  0.00  0.00    +0.104 C 
ATOM     22  C   LIG    1       -2.350   6.809   1.995  0.00  0.00    +0.104 C 
ENDBRANCH  19  20
ENDBRANCH  18  19
ENDBRANCH  16  18
ENDBRANCH   1  16
TORSDOF 4
