REMARK  Name = *****
REMARK                            x       y       z     vdW  Elec       q    Type
REMARK                         _______ _______ _______ _____ _____    ______ ____
ROOT
ATOM      1  P   LIG    1        8.339  -5.482   4.012  0.00  0.00    +0.363 P 
ATOM      2  O   LIG    1        7.957  -5.800   5.433  0.00  0.00    -0.256 OA
ENDROOT
BRANCH   1   3
ATOM      3  O   LIG    1        9.884  -5.883   3.586  0.00  0.00    -0.268 OA
BRANCH   3   4
ATOM      4  C   LIG    1       11.058  -5.483   4.352  0.00  0.00    +0.407 C 
BRANCH   4   5
ATOM      5  O   LIG    1       12.478  -6.023   3.837  0.00  0.00    -0.437 OA
BRANCH   5   6
ATOM      6  C   LIG    1       13.313  -5.419   2.891  0.00  0.00    +0.315 C 
ATOM      7  O   LIG    1       12.991  -4.340   2.389  0.00  0.00    -0.250 OA
BRANCH   6   8
ATOM      8  C   LIG    1       14.763  -6.192   2.389  0.00  0.00    +0.059 C 
ATOM      9  C   LIG    1       14.629  -7.338   1.335  0.00  0.00    +0.022 C 
ATOM     10  C   LIG    1       15.710  -6.730   3.493  0.00  0.00    +0.022 C 
ATOM     11  C   LIG    1       15.693  -5.180   1.611  0.00  0.00    +0.022 C 
ENDBRANCH   6   8
ENDBRANCH   5   6
ENDBRANCH   4   5
ENDBRANCH   3   4
ENDBRANCH   1   3
BRANCH   1  12
ATOM     12  O   LIG    1        8.179  -3.923   3.621  0.00  0.00    -0.268 OA
BRANCH  12  13
ATOM     13  C   LIG    1        7.772  -3.005   4.610  0.00  0.00    +0.407 C 
BRANCH  13  14
ATOM     14  O   LIG    1        7.492  -1.697   4.082  0.00  0.00    -0.437 OA
BRANCH  14  15
ATOM     15  C   LIG    1        6.283  -1.507   3.425  0.00  0.00    +0.315 C 
ATOM     16  O   LIG    1        5.562  -2.366   3.076  0.00  0.00    -0.250 OA
BRANCH  15  18
ATOM     17  C   LIG    1        5.681   0.446   1.854  0.00  0.00    +0.022 C 
ATOM     18  C   LIG    1        5.989   0.037   3.303  0.00  0.00    +0.059 C 
ATOM     19  C   LIG    1        4.756   0.415   4.144  0.00  0.00    +0.022 C 
ATOM     20  C   LIG    1        7.188   0.850   3.822  0.00  0.00    +0.022 C 
ENDBRANCH  15  18
ENDBRANCH  14  15
ENDBRANCH  13  14
ENDBRANCH  12  13
ENDBRANCH   1  12
BRANCH   1  21
ATOM     21  C   LIG    1        7.193  -6.258   2.819  0.00  0.00    +0.286 C 
BRANCH  21  22
ATOM     22  O   LIG    1        7.455  -7.656   2.817  0.00  0.00    -0.366 OA
BRANCH  22  23
ATOM     23  C   LIG    1        6.923  -8.416   3.900  0.00  0.00    +0.182 C 
BRANCH  23  24
ATOM     24  C   LIG    1        7.150  -9.902   3.563  0.00  0.00    +0.152 C 
BRANCH  24  25
ATOM     25  N   LIG    1        6.392 -10.512   2.481  0.00  0.00    -0.313 N 
ATOM     26  C   LIG    1        5.973  -9.893   1.338  0.00  0.00    +0.165 A 
ATOM     27  N   LIG    1        5.896  -8.580   1.120  0.00  0.00    -0.216 NA
ATOM     28  C   LIG    1        5.595  -8.277  -0.137  0.00  0.00    +0.225 A 
ATOM     29  N   LIG    1        5.326  -9.133  -1.132  0.00  0.00    -0.219 NA
ATOM     30  C   LIG    1        5.334 -10.461  -0.861  0.00  0.00    +0.147 A 
ATOM     31  C   LIG    1        5.685 -10.896   0.434  0.00  0.00    +0.147 A 
ATOM     32  N   LIG    1        5.821 -12.131   1.042  0.00  0.00    -0.231 NA
ATOM     33  C   LIG    1        6.201 -11.861   2.280  0.00  0.00    +0.201 A 
BRANCH  30  34
ATOM     34  N   LIG    1        5.024 -11.298  -1.926  0.00  0.00    -0.341 N 
ATOM     35  H   LIG    1        5.410 -12.227  -1.828  0.00  0.00    +0.144 HD
ATOM     36  H   LIG    1        5.194 -10.809  -2.798  0.00  0.00    +0.144 HD
ENDBRANCH  30  34
ENDBRANCH  24  25
ENDBRANCH  23  24
ENDBRANCH  22  23
ENDBRANCH  21  22
ENDBRANCH   1  21
TORSDOF 16
