REMARK  Name = *****
REMARK                            x       y       z     vdW  Elec       q    Type
REMARK                         _______ _______ _______ _____ _____    ______ ____
ROOT
ATOM      1  C   LIG    1        0.965  -0.027  -0.056  0.00  0.00    +0.155 C 
ATOM      2  N   LIG    1        2.413  -0.027  -0.055  0.00  0.00    -0.280 N 
ATOM      3  C   LIG    1        3.085  -1.253  -0.053  0.00  0.00    +0.333 C 
ATOM      4  O   LIG    1        2.471  -2.324  -0.055  0.00  0.00    -0.246 OA
ATOM      5  N   LIG    1        4.495  -1.217  -0.048  0.00  0.00    -0.262 N 
ATOM      6  C   LIG    1        5.172  -2.499  -0.040  0.00  0.00    +0.157 C 
ATOM      7  C   LIG    1        5.277  -0.060  -0.051  0.00  0.00    +0.282 C 
ATOM      8  O   LIG    1        6.503  -0.036  -0.052  0.00  0.00    -0.265 OA
ATOM      9  C   LIG    1        4.498   1.124  -0.053  0.00  0.00    +0.149 A 
ATOM     10  N   LIG    1        4.880   2.433  -0.053  0.00  0.00    -0.339 N 
ATOM     11  H   LIG    1        5.830   2.780  -0.051  0.00  0.00    +0.167 HD
ATOM     12  C   LIG    1        3.728   3.176  -0.053  0.00  0.00    +0.199 A 
ATOM     13  N   LIG    1        2.653   2.411  -0.054  0.00  0.00    -0.218 NA
ATOM     14  C   LIG    1        3.139   1.138  -0.054  0.00  0.00    +0.168 A 
ENDROOT
TORSDOF 0
