REMARK  Name = *****
REMARK                            x       y       z     vdW  Elec       q    Type
REMARK                         _______ _______ _______ _____ _____    ______ ____
ROOT
ATOM      1  C   LIG    1        3.687   4.984  -1.787  0.00  0.00    +0.053 C 
ENDROOT
BRANCH   1   8
ATOM      2  C   LIG    1       -1.775   7.293  -0.952  0.00  0.00    +0.048 C 
ATOM      3  C   LIG    1       -0.398   6.782  -1.262  0.00  0.00    +0.003 C 
ATOM      4  C   LIG    1       -0.126   5.423  -0.748  0.00  0.00    +0.185 C 
ATOM      5  O   LIG    1       -0.957   4.870  -0.031  0.00  0.00    -0.287 OA
ATOM      6  C   LIG    1        1.181   4.758  -1.072  0.00  0.00    +0.004 C 
ATOM      7  C   LIG    1        1.144   3.305  -0.667  0.00  0.00    +0.048 C 
ATOM      8  C   LIG    1        2.198   5.437  -1.661  0.00  0.00    +0.013 C 
ATOM      9  C   LIG    1        1.838   6.753  -2.282  0.00  0.00    +0.186 C 
ATOM     10  O   LIG    1        2.528   7.263  -3.157  0.00  0.00    -0.287 OA
ATOM     11  C   LIG    1        0.545   7.416  -1.969  0.00  0.00    +0.003 C 
ATOM     12  C   LIG    1        0.417   8.787  -2.568  0.00  0.00    +0.048 C 
ENDBRANCH   1   8
BRANCH   1  13
ATOM     13  C   LIG    1        4.744   6.111  -1.532  0.00  0.00    -0.040 A 
ATOM     14  C   LIG    1        5.170   6.936  -2.579  0.00  0.00    +0.004 A 
ATOM     15  C   LIG    1        6.078   7.986  -2.475  0.00  0.00    +0.000 A 
ATOM     16  C   LIG    1        6.599   8.299  -1.251  0.00  0.00    +0.000 A 
ATOM     17  C   LIG    1        6.220   7.511  -0.155  0.00  0.00    +0.000 A 
ATOM     18  C   LIG    1        5.308   6.432  -0.292  0.00  0.00    +0.004 A 
ENDBRANCH   1  13
BRANCH   1  19
ATOM     19  C   LIG    1        4.025   4.073  -3.047  0.00  0.00    +0.013 C 
BRANCH  19  20
ATOM     20  C   LIG    1        3.787   4.672  -4.444  0.00  0.00    +0.001 C 
BRANCH  20  21
ATOM     21  C   LIG    1        4.237   3.868  -5.663  0.00  0.00    +0.001 C 
BRANCH  21  22
ATOM     22  C   LIG    1        4.176   4.726  -6.962  0.00  0.00    +0.011 C 
BRANCH  22  23
ATOM     23  C   LIG    1        5.144   5.928  -7.098  0.00  0.00    +0.120 C 
BRANCH  23  24
ATOM     24  C   LIG    1        5.050   7.121  -6.197  0.00  0.00    +0.305 C 
ATOM     25  O   LIG    1        5.979   7.475  -5.464  0.00  0.00    -0.251 OA
BRANCH  24  26
ATOM     26  O   LIG    1        3.959   7.902  -6.402  0.00  0.00    -0.481 OA
ATOM     27  H   LIG    1        3.439   7.675  -7.194  0.00  0.00    +0.295 HD
ENDBRANCH  24  26
ENDBRANCH  23  24
ENDBRANCH  22  23
ENDBRANCH  21  22
ENDBRANCH  20  21
ENDBRANCH  19  20
ENDBRANCH   1  19
TORSDOF 9
