REMARK  Name = *****
REMARK                            x       y       z     vdW  Elec       q    Type
REMARK                         _______ _______ _______ _____ _____    ______ ____
ROOT
ATOM      1  N   LIG    1        4.539  -0.134   2.307  0.00  0.00    -0.284 N 
ATOM      2  H   LIG    1        4.548  -0.208   3.315  0.00  0.00    +0.155 HD
ATOM      3  C   LIG    1        5.427  -0.977   1.620  0.00  0.00    +0.231 C 
ATOM      4  O   LIG    1        5.880  -0.760   0.501  0.00  0.00    -0.274 OA
ENDROOT
BRANCH   1   6
ATOM      5  C   LIG    1        3.287   1.197   0.643  0.00  0.00    -0.023 A 
ATOM      6  C   LIG    1        4.112   1.128   1.806  0.00  0.00    +0.040 A 
ATOM      7  C   LIG    1        4.414   2.317   2.535  0.00  0.00    -0.023 A 
ATOM      8  C   LIG    1        3.913   3.549   2.048  0.00  0.00    +0.006 A 
ATOM      9  C   LIG    1        3.137   3.626   0.902  0.00  0.00    +0.001 A 
ATOM     10  C   LIG    1        2.818   2.456   0.217  0.00  0.00    +0.006 A 
BRANCH   5  12
ATOM     11  C   LIG    1        1.443  -0.537   0.464  0.00  0.00    +0.012 C 
ATOM     12  C   LIG    1        2.778  -0.040  -0.107  0.00  0.00    +0.015 C 
ATOM     13  C   LIG    1        2.631   0.170  -1.624  0.00  0.00    +0.012 C 
ENDBRANCH   5  12
BRANCH   7  14
ATOM     14  C   LIG    1        5.279   2.458   3.792  0.00  0.00    +0.015 C 
ATOM     15  C   LIG    1        6.448   1.489   3.959  0.00  0.00    +0.012 C 
ATOM     16  C   LIG    1        4.429   2.498   5.067  0.00  0.00    +0.012 C 
ENDBRANCH   7  14
ENDBRANCH   1   6
BRANCH   3  17
ATOM     17  C   LIG    1        5.797  -2.241   2.447  0.00  0.00    +0.181 C 
BRANCH  17  18
ATOM     18  N   LIG    1        6.656  -3.271   1.708  0.00  0.00    -0.274 NA
BRANCH  18  19
ATOM     19  C   LIG    1        6.718  -4.516   2.561  0.00  0.00    +0.206 C 
BRANCH  19  20
ATOM     20  C   LIG    1        5.397  -5.292   2.576  0.00  0.00    +0.319 C 
ATOM     21  O   LIG    1        5.166  -6.220   3.338  0.00  0.00    -0.250 OA
BRANCH  20  22
ATOM     22  O   LIG    1        4.510  -4.892   1.631  0.00  0.00    -0.480 OA
ATOM     23  H   LIG    1        4.902  -4.170   1.093  0.00  0.00    +0.295 HD
ENDBRANCH  20  22
ENDBRANCH  19  20
ENDBRANCH  18  19
BRANCH  18  24
ATOM     24  C   LIG    1        8.044  -2.660   1.611  0.00  0.00    +0.206 C 
BRANCH  24  25
ATOM     25  C   LIG    1        9.156  -3.545   1.038  0.00  0.00    +0.319 C 
ATOM     26  O   LIG    1       10.338  -3.379   1.286  0.00  0.00    -0.250 OA
BRANCH  25  27
ATOM     27  O   LIG    1        8.733  -4.501   0.186  0.00  0.00    -0.480 OA
ATOM     28  H   LIG    1        7.766  -4.460   0.066  0.00  0.00    +0.295 HD
ENDBRANCH  25  27
ENDBRANCH  24  25
ENDBRANCH  18  24
ENDBRANCH  17  18
ENDBRANCH   3  17
TORSDOF 11
