REMARK  Name = *****
REMARK                            x       y       z     vdW  Elec       q    Type
REMARK                         _______ _______ _______ _____ _____    ______ ____
ROOT
ATOM      1  C   LIG    1        6.166   1.887   0.033  0.00  0.00    +0.218 C 
ATOM      2  N   LIG    1        7.035   2.965  -0.096  0.00  0.00    -0.308 N 
ATOM      3  H   LIG    1        7.860   2.805  -0.665  0.00  0.00    +0.149 HD
ATOM      4  O   LIG    1        4.999   1.976   0.419  0.00  0.00    -0.275 OA
ENDROOT
BRANCH   1   5
ATOM      5  C   LIG    1        6.818   0.567  -0.364  0.00  0.00    +0.131 C 
BRANCH   5  10
ATOM      6  C   LIG    1        4.848  -2.349   1.303  0.00  0.00    +0.135 A 
ATOM      7  C   LIG    1        5.483  -3.444   0.673  0.00  0.00    +0.100 A 
ATOM      8  C   LIG    1        6.377  -3.183  -0.372  0.00  0.00    +0.019 A 
ATOM      9  C   LIG    1        6.636  -1.875  -0.789  0.00  0.00    +0.005 A 
ATOM     10  C   LIG    1        6.195  -0.784  -0.027  0.00  0.00    -0.035 A 
ATOM     11  C   LIG    1        5.380  -1.061   1.085  0.00  0.00    +0.050 A 
BRANCH   7  12
ATOM     12  C   LIG    1        5.433  -4.880   1.105  0.00  0.00    +0.340 C 
ATOM     13  O   LIG    1        6.304  -5.668   0.908  0.00  0.00    -0.245 OA
BRANCH  12  14
ATOM     14  O   LIG    1        4.298  -5.271   1.741  0.00  0.00    -0.477 OA
ATOM     15  H   LIG    1        4.486  -6.217   1.919  0.00  0.00    +0.295 HD
ENDBRANCH  12  14
ENDBRANCH   7  12
BRANCH   6  16
ATOM     16  O   LIG    1        3.760  -2.593   2.092  0.00  0.00    -0.491 OA
BRANCH  16  18
ATOM     17  C   LIG    1        2.227  -0.687   1.357  0.00  0.00    +0.048 C 
ATOM     18  C   LIG    1        2.830  -1.560   2.459  0.00  0.00    +0.226 C 
ENDBRANCH  16  18
ENDBRANCH   6  16
ENDBRANCH   5  10
ENDBRANCH   1   5
BRANCH   2  19
ATOM     19  C   LIG    1        6.763   4.393   0.178  0.00  0.00    +0.105 C 
BRANCH  19  20
ATOM     20  C   LIG    1        7.926   5.125   0.912  0.00  0.00    -0.006 A 
ATOM     21  C   LIG    1        8.091   5.598   2.259  0.00  0.00    +0.035 A 
ATOM     22  C   LIG    1        8.834   6.833   2.293  0.00  0.00    +0.023 A 
ATOM     23  C   LIG    1        9.601   7.378   1.238  0.00  0.00    +0.002 A 
ATOM     24  C   LIG    1        9.671   6.719   0.040  0.00  0.00    +0.001 A 
ATOM     25  C   LIG    1        8.848   5.616  -0.114  0.00  0.00    +0.007 A 
BRANCH  21  26
ATOM     26  N   LIG    1        7.828   4.977   3.530  0.00  0.00    -0.330 N 
ATOM     27  C   LIG    1        6.669   4.127   3.944  0.00  0.00    +0.105 C 
ATOM     28  C   LIG    1        7.007   3.161   5.135  0.00  0.00    +0.019 C 
ATOM     29  C   LIG    1        7.584   3.891   6.343  0.00  0.00    +0.003 C 
ATOM     30  C   LIG    1        8.868   4.519   5.850  0.00  0.00    +0.019 C 
ATOM     31  C   LIG    1        8.605   5.518   4.712  0.00  0.00    +0.105 C 
ENDBRANCH  21  26
ENDBRANCH  19  20
BRANCH  19  32
ATOM     32  C   LIG    1        5.284   4.802   0.358  0.00  0.00    +0.030 C 
BRANCH  32  33
ATOM     33  C   LIG    1        4.907   6.277   0.606  0.00  0.00    -0.015 C 
ATOM     34  C   LIG    1        3.392   6.342   0.879  0.00  0.00    +0.007 C 
ATOM     35  C   LIG    1        5.294   7.181  -0.566  0.00  0.00    +0.007 C 
ENDBRANCH  32  33
ENDBRANCH  19  32
ENDBRANCH   2  19
TORSDOF 11
