REMARK  Name = *****
REMARK                            x       y       z     vdW  Elec       q    Type
REMARK                         _______ _______ _______ _____ _____    ______ ____
ROOT
ATOM      1  C   LIG    1        1.285  -0.244  -0.017  0.00  0.00    +0.045 C 
ATOM      2  C   LIG    1        2.758  -0.006  -0.078  0.00  0.00    -0.038 C 
ATOM      3  C   LIG    1        3.739  -1.101  -0.136  0.00  0.00    -0.014 C 
ATOM      4  C   LIG    1        3.409  -2.402  -0.065  0.00  0.00    +0.016 C 
ATOM      5  C   LIG    1        5.072  -0.481  -0.220  0.00  0.00    -0.010 A 
ATOM      6  C   LIG    1        4.853   0.909  -0.141  0.00  0.00    -0.011 A 
ATOM      7  C   LIG    1        5.919   1.797  -0.166  0.00  0.00    +0.047 A 
ATOM      8  C   LIG    1        7.202   1.275  -0.313  0.00  0.00    +0.124 A 
ATOM      9  C   LIG    1        7.427  -0.099  -0.418  0.00  0.00    +0.039 A 
ATOM     10  F   LIG    1        8.248   2.112  -0.367  0.00  0.00    -0.205 F 
ATOM     11  C   LIG    1        6.355  -0.992  -0.362  0.00  0.00    +0.012 A 
ATOM     12  C   LIG    1        3.407   1.179  -0.045  0.00  0.00    -0.025 C 
ENDROOT
BRANCH   4  13
ATOM     13  C   LIG    1        4.328  -3.537  -0.053  0.00  0.00    -0.024 A 
ATOM     14  C   LIG    1        4.821  -4.027   1.160  0.00  0.00    +0.009 A 
ATOM     15  C   LIG    1        5.688  -5.121   1.170  0.00  0.00    +0.017 A 
ATOM     16  C   LIG    1        6.072  -5.731  -0.030  0.00  0.00    +0.039 A 
ATOM     17  C   LIG    1        5.576  -5.239  -1.242  0.00  0.00    +0.017 A 
ATOM     18  C   LIG    1        4.706  -4.145  -1.254  0.00  0.00    +0.009 A 
BRANCH  16  19
ATOM     19  S   LIG    1        7.161  -7.173  -0.024  0.00  0.00    +0.051 S 
ATOM     20  O   LIG    1        7.097  -7.722   1.371  0.00  0.00    -0.252 OA
ATOM     21  C   LIG    1        8.732  -6.281  -0.168  0.00  0.00    +0.127 C 
ENDBRANCH  16  19
ENDBRANCH   4  13
BRANCH  12  22
ATOM     22  C   LIG    1        2.831   2.550   0.091  0.00  0.00    +0.156 C 
BRANCH  22  23
ATOM     23  C   LIG    1        2.674   3.038   1.525  0.00  0.00    +0.309 C 
ATOM     24  O   LIG    1        2.160   4.121   1.790  0.00  0.00    -0.251 OA
BRANCH  23  25
ATOM     25  O   LIG    1        3.132   2.232   2.506  0.00  0.00    -0.480 OA
ATOM     26  H   LIG    1        3.532   1.393   2.205  0.00  0.00    +0.295 HD
ENDBRANCH  23  25
ENDBRANCH  22  23
ENDBRANCH  12  22
TORSDOF 5
