REMARK  Name = *****
REMARK                            x       y       z     vdW  Elec       q    Type
REMARK                         _______ _______ _______ _____ _____    ______ ____
ROOT
ATOM      1  C   LIG    1       -0.972  -1.079  -2.527  0.00  0.00    +0.044 C 
ATOM      2  C   LIG    1        0.215  -1.167  -1.602  0.00  0.00    -0.050 C 
ATOM      3  C   LIG    1        0.871  -2.353  -1.622  0.00  0.00    +0.003 C 
ENDROOT
BRANCH   3   4
ATOM      4  C   LIG    1        2.056  -2.826  -0.936  0.00  0.00    +0.001 C 
ATOM      5  C   LIG    1        2.385  -4.091  -0.586  0.00  0.00    +0.003 C 
BRANCH   5   6
ATOM      6  C   LIG    1        1.633  -5.365  -0.600  0.00  0.00    -0.044 C 
ATOM      7  C   LIG    1        2.265  -6.510  -0.239  0.00  0.00    +0.094 C 
ATOM      8  C   LIG    1        0.174  -5.337  -0.978  0.00  0.00    +0.044 C 
BRANCH   7   9
ATOM      9  C   LIG    1        1.684  -7.874  -0.195  0.00  0.00    +0.330 C 
ATOM     10  O   LIG    1        0.527  -8.226  -0.170  0.00  0.00    -0.246 OA
BRANCH   9  11
ATOM     11  O   LIG    1        2.684  -8.781  -0.200  0.00  0.00    -0.477 OA
ATOM     12  H   LIG    1        2.210  -9.638  -0.214  0.00  0.00    +0.295 HD
ENDBRANCH   9  11
ENDBRANCH   7   9
ENDBRANCH   5   6
ENDBRANCH   3   4
BRANCH   2  13
ATOM     13  C   LIG    1        0.519  -0.033  -0.719  0.00  0.00    +0.003 C 
ATOM     14  C   LIG    1        0.015   1.213  -0.564  0.00  0.00    +0.004 C 
BRANCH  14  15
ATOM     15  C   LIG    1       -1.027   2.002  -1.246  0.00  0.00    -0.043 C 
ATOM     16  C   LIG    1       -0.543   3.340  -1.902  0.00  0.00    -0.010 C 
ATOM     17  C   LIG    1        0.185   4.263  -0.890  0.00  0.00    +0.016 C 
ATOM     18  C   LIG    1        0.425   3.019  -3.060  0.00  0.00    +0.016 C 
ATOM     19  C   LIG    1       -1.714   4.206  -2.463  0.00  0.00    +0.011 C 
ATOM     20  C   LIG    1       -2.808   3.364  -3.084  0.00  0.00    +0.005 C 
ATOM     21  C   LIG    1       -3.391   2.450  -2.019  0.00  0.00    +0.031 C 
ATOM     22  C   LIG    1       -2.345   1.673  -1.239  0.00  0.00    -0.069 C 
ATOM     23  C   LIG    1       -2.960   0.525  -0.481  0.00  0.00    +0.039 C 
ENDBRANCH  14  15
ENDBRANCH   2  13
TORSDOF 6
