REMARK  Name = *****
REMARK                            x       y       z     vdW  Elec       q    Type
REMARK                         _______ _______ _______ _____ _____    ______ ____
ROOT
ATOM      1  C   LIG    1        7.404  -3.090   0.747  0.00  0.00    -0.016 A 
ATOM      2  C   LIG    1        6.543  -4.024   0.129  0.00  0.00    +0.035 A 
ATOM      3  C   LIG    1        7.091  -4.948  -0.773  0.00  0.00    +0.023 A 
ATOM      4  C   LIG    1        8.471  -5.069  -0.934  0.00  0.00    +0.002 A 
ATOM      5  C   LIG    1        9.324  -4.208  -0.255  0.00  0.00    +0.000 A 
ATOM      6  C   LIG    1        8.794  -3.203   0.553  0.00  0.00    +0.006 A 
ENDROOT
BRANCH   2   7
ATOM      7  N   LIG    1        5.160  -4.023   0.418  0.00  0.00    -0.312 N 
ATOM      8  H   LIG    1        4.715  -3.163   0.096  0.00  0.00    +0.152 HD
BRANCH   7   9
ATOM      9  C   LIG    1        4.227  -5.103   0.449  0.00  0.00    +0.068 A 
ATOM     10  C   LIG    1        2.858  -4.824   0.209  0.00  0.00    +0.064 A 
ATOM     11 CL   LIG    1        2.336  -3.210  -0.158  0.00  0.00    -0.082 Cl
ATOM     12  C   LIG    1        1.873  -5.820   0.261  0.00  0.00    +0.022 A 
ATOM     13  C   LIG    1        2.227  -7.135   0.534  0.00  0.00    +0.003 A 
ATOM     14  C   LIG    1        3.558  -7.440   0.796  0.00  0.00    +0.022 A 
ATOM     15  C   LIG    1        4.540  -6.436   0.802  0.00  0.00    +0.064 A 
ATOM     16 CL   LIG    1        6.088  -6.953   1.390  0.00  0.00    -0.082 Cl
ENDBRANCH   7   9
ENDBRANCH   2   7
BRANCH   1  17
ATOM     17  C   LIG    1        6.890  -2.011   1.672  0.00  0.00    +0.157 C 
BRANCH  17  18
ATOM     18  C   LIG    1        6.806  -2.457   3.108  0.00  0.00    +0.312 C 
ATOM     19  O   LIG    1        5.815  -2.965   3.626  0.00  0.00    -0.251 OA
BRANCH  18  20
ATOM     20  O   LIG    1        7.989  -2.253   3.748  0.00  0.00    -0.453 OA
BRANCH  20  21
ATOM     21  C   LIG    1        8.052  -2.639   5.132  0.00  0.00    +0.352 C 
BRANCH  21  23
ATOM     22  O   LIG    1        9.835  -3.662   6.415  0.00  0.00    -0.247 OA
ATOM     23  C   LIG    1        9.242  -3.555   5.351  0.00  0.00    +0.343 C 
BRANCH  23  24
ATOM     24  O   LIG    1        9.576  -4.284   4.259  0.00  0.00    -0.478 OA
ATOM     25  H   LIG    1        8.997  -4.087   3.495  0.00  0.00    +0.295 HD
ENDBRANCH  23  24
ENDBRANCH  21  23
ENDBRANCH  20  21
ENDBRANCH  18  20
ENDBRANCH  17  18
ENDBRANCH   1  17
TORSDOF 8
