REMARK  Name = *****
REMARK                            x       y       z     vdW  Elec       q    Type
REMARK                         _______ _______ _______ _____ _____    ______ ____
ROOT
ATOM      1  C   LIG    1       -4.956  -0.844  -1.976  0.00  0.00    +0.132 C 
ATOM      2  C   LIG    1       -5.223   0.696  -2.269  0.00  0.00    +0.011 C 
ATOM      3  C   LIG    1       -4.178   1.163  -3.329  0.00  0.00    +0.015 C 
ATOM      4  C   LIG    1       -4.878   1.372  -0.909  0.00  0.00    +0.002 C 
ATOM      5  C   LIG    1       -5.776   2.467  -0.306  0.00  0.00    -0.003 C 
ATOM      6  C   LIG    1       -6.737   3.184  -1.307  0.00  0.00    -0.000 C 
ATOM      7  C   LIG    1       -7.481   2.042  -2.028  0.00  0.00    +0.005 C 
ATOM      8  C   LIG    1       -6.053   4.343  -2.145  0.00  0.00    +0.018 C 
ATOM      9  C   LIG    1       -5.109   5.069  -1.211  0.00  0.00    -0.070 C 
ATOM     10  C   LIG    1       -5.456   6.240  -0.654  0.00  0.00    -0.027 C 
ATOM     11  C   LIG    1       -5.507   7.309  -1.682  0.00  0.00    +0.027 C 
ATOM     12  C   LIG    1       -6.577   6.941  -2.711  0.00  0.00    +0.005 C 
ATOM     13  C   LIG    1       -4.067   4.279  -0.520  0.00  0.00    +0.031 C 
ATOM     14  C   LIG    1       -6.985   5.418  -2.824  0.00  0.00    +0.008 C 
ATOM     15  C   LIG    1       -4.848   3.425   0.462  0.00  0.00    +0.008 C 
ATOM     16  C   LIG    1       -4.657   0.258   0.125  0.00  0.00    +0.008 C 
ATOM     17  C   LIG    1       -6.607   1.104  -2.866  0.00  0.00    +0.011 C 
ATOM     18  C   LIG    1       -4.079  -0.852  -0.712  0.00  0.00    +0.049 C 
ENDROOT
BRANCH   1  20
ATOM     19  C   LIG    1       -7.193  -2.300  -1.844  0.00  0.00    +0.007 C 
ATOM     20  C   LIG    1       -6.178  -1.632  -1.810  0.00  0.00    -0.070 C 
ENDBRANCH   1  20
BRANCH   1  21
ATOM     21  O   LIG    1       -4.198  -1.477  -3.005  0.00  0.00    -0.376 OA
ATOM     22  H   LIG    1       -3.949  -2.354  -2.665  0.00  0.00    +0.211 HD
ENDBRANCH   1  21
TORSDOF 2
