REMARK  Name = *****
REMARK                            x       y       z     vdW  Elec       q    Type
REMARK                         _______ _______ _______ _____ _____    ______ ____
ROOT
ATOM      1  C   LIG    1        3.865  -3.624  -4.433  0.00  0.00    +0.011 C 
ATOM      2  C   LIG    1        2.672  -4.347  -4.947  0.00  0.00    +0.269 C 
ATOM      3  O   LIG    1        3.182  -5.324  -5.847  0.00  0.00    -0.456 OA
ATOM      4  C   LIG    1        4.531  -5.194  -5.922  0.00  0.00    +0.341 C 
ATOM      5  O   LIG    1        5.255  -5.871  -6.633  0.00  0.00    -0.245 OA
ATOM      6  C   LIG    1        4.971  -4.113  -5.016  0.00  0.00    +0.073 C 
ENDROOT
BRANCH   1  10
ATOM      7  C   LIG    1        3.412  -0.445  -1.576  0.00  0.00    +0.088 A 
ATOM      8  C   LIG    1        4.580  -1.198  -1.588  0.00  0.00    +0.027 A 
ATOM      9  C   LIG    1        4.721  -2.232  -2.518  0.00  0.00    +0.010 A 
ATOM     10  C   LIG    1        3.717  -2.527  -3.453  0.00  0.00    -0.018 A 
ATOM     11  C   LIG    1        2.534  -1.768  -3.394  0.00  0.00    +0.010 A 
ATOM     12  C   LIG    1        2.376  -0.734  -2.462  0.00  0.00    +0.027 A 
BRANCH   7  14
ATOM     13  C   LIG    1        3.896   2.267  -1.285  0.00  0.00    +0.200 C 
ATOM     14  S   LIG    1        3.236   0.876  -0.404  0.00  0.00    -0.006 S 
ATOM     15  O   LIG    1        1.817   1.095  -0.202  0.00  0.00    -0.170 OA
ATOM     16  O   LIG    1        4.114   0.589   0.715  0.00  0.00    -0.170 OA
ENDBRANCH   7  14
ENDBRANCH   1  10
BRANCH   6  17
ATOM     17  C   LIG    1        6.370  -3.717  -4.894  0.00  0.00    -0.011 A 
ATOM     18  C   LIG    1        7.196  -4.324  -3.938  0.00  0.00    +0.009 A 
ATOM     19  C   LIG    1        8.533  -3.941  -3.817  0.00  0.00    +0.001 A 
ATOM     20  C   LIG    1        9.059  -2.969  -4.666  0.00  0.00    +0.000 A 
ATOM     21  C   LIG    1        8.246  -2.370  -5.628  0.00  0.00    +0.001 A 
ATOM     22  C   LIG    1        6.904  -2.737  -5.738  0.00  0.00    +0.009 A 
ENDBRANCH   6  17
TORSDOF 3
