REMARK  Name = *****
REMARK                            x       y       z     vdW  Elec       q    Type
REMARK                         _______ _______ _______ _____ _____    ______ ____
ROOT
ATOM      1  C   LIG    1        5.178   2.573   0.072  0.00  0.00    +0.406 C 
ATOM      2  F   LIG    1        4.304   1.585  -0.285  0.00  0.00    -0.205 F 
ENDROOT
BRANCH   1   3
ATOM      3  C   LIG    1        6.061   2.136   1.256  0.00  0.00    +0.446 C 
ATOM      4  F   LIG    1        6.302   0.805   1.230  0.00  0.00    -0.165 F 
ATOM      5  F   LIG    1        5.460   2.414   2.439  0.00  0.00    -0.165 F 
ATOM      6  F   LIG    1        7.253   2.773   1.263  0.00  0.00    -0.165 F 
ENDBRANCH   1   3
BRANCH   1   7
ATOM      7  O   LIG    1        5.803   3.050  -1.104  0.00  0.00    -0.280 OA
BRANCH   7   9
ATOM      8  F   LIG    1        7.042   2.579  -2.886  0.00  0.00    -0.178 F 
ATOM      9  C   LIG    1        6.513   2.034  -1.766  0.00  0.00    +0.485 C 
ATOM     10  F   LIG    1        7.554   1.663  -0.980  0.00  0.00    -0.178 F 
ENDBRANCH   7   9
ENDBRANCH   1   7
TORSDOF 3
