REMARK  Name = *****
REMARK                            x       y       z     vdW  Elec       q    Type
REMARK                         _______ _______ _______ _____ _____    ______ ____
ROOT
ATOM      1  C   LIG    1       17.127   1.900  -5.337  0.00  0.00    -0.021 C 
ATOM      2  C   LIG    1       16.416   2.702  -4.513  0.00  0.00    -0.035 C 
ATOM      3  C   LIG    1       16.219   2.377  -3.043  0.00  0.00    +0.059 C 
ATOM      4  C   LIG    1       17.040   3.330  -2.123  0.00  0.00    +0.085 C 
ATOM      5  C   LIG    1       16.478   3.411  -0.725  0.00  0.00    -0.011 C 
ATOM      6  C   LIG    1       15.191   3.093  -0.439  0.00  0.00    +0.009 C 
ATOM      7  C   LIG    1       14.268   2.664  -1.469  0.00  0.00    +0.051 C 
ATOM      8  S   LIG    1       17.275   5.082  -2.686  0.00  0.00    -0.116 S 
ATOM      9  C   LIG    1       16.267   5.161  -4.160  0.00  0.00    +0.016 A 
ATOM     10  C   LIG    1       15.859   6.429  -4.598  0.00  0.00    +0.015 A 
ATOM     11  C   LIG    1       15.043   6.566  -5.722  0.00  0.00    +0.001 A 
ATOM     12  C   LIG    1       14.597   5.434  -6.397  0.00  0.00    +0.001 A 
ATOM     13  C   LIG    1       15.014   4.169  -5.982  0.00  0.00    +0.009 A 
ATOM     14  C   LIG    1       14.746   2.292  -2.679  0.00  0.00    -0.005 C 
ATOM     15  C   LIG    1       15.897   4.027  -4.899  0.00  0.00    -0.008 A 
ENDROOT
BRANCH   7  16
ATOM     16  C   LIG    1       12.793   2.607  -1.144  0.00  0.00    +0.417 C 
ATOM     17  F   LIG    1       12.294   1.352  -1.295  0.00  0.00    -0.166 F 
ATOM     18  F   LIG    1       12.068   3.415  -1.962  0.00  0.00    -0.166 F 
ATOM     19  F   LIG    1       12.511   2.986   0.130  0.00  0.00    -0.166 F 
ENDBRANCH   7  16
BRANCH   1  20
ATOM     20  C   LIG    1       17.535   2.144  -6.775  0.00  0.00    +0.043 C 
BRANCH  20  21
ATOM     21  C   LIG    1       17.017   1.031  -7.713  0.00  0.00    +0.088 C 
BRANCH  21  25
ATOM     22  N   LIG    1       14.915   1.248 -10.781  0.00  0.00    -0.298 NA
ATOM     23  C   LIG    1       15.461  -0.005 -10.225  0.00  0.00    +0.100 C 
ATOM     24  C   LIG    1       16.976  -0.004  -9.918  0.00  0.00    +0.100 C 
ATOM     25  N   LIG    1       17.456   1.143  -9.118  0.00  0.00    -0.300 NA
ATOM     26  C   LIG    1       17.008   2.368  -9.806  0.00  0.00    +0.100 C 
ATOM     27  C   LIG    1       15.495   2.442 -10.129  0.00  0.00    +0.100 C 
BRANCH  22  28
ATOM     28  C   LIG    1       13.433   1.284 -10.676  0.00  0.00    +0.112 C 
BRANCH  28  29
ATOM     29  C   LIG    1       12.655   0.095 -11.286  0.00  0.00    +0.171 C 
BRANCH  29  30
ATOM     30  O   LIG    1       12.912  -1.130 -10.601  0.00  0.00    -0.394 OA
ATOM     31  H   LIG    1       12.442  -1.832 -11.082  0.00  0.00    +0.209 HD
ENDBRANCH  29  30
ENDBRANCH  28  29
ENDBRANCH  22  28
ENDBRANCH  21  25
ENDBRANCH  20  21
ENDBRANCH   1  20
TORSDOF 7
