REMARK  Name = *****
REMARK                            x       y       z     vdW  Elec       q    Type
REMARK                         _______ _______ _______ _____ _____    ______ ____
ROOT
ATOM      1  C   LIG    1        3.165   0.006  -1.375  0.00  0.00    +0.255 C 
ENDROOT
BRANCH   1   3
ATOM      2  C   LIG    1        0.952   0.054  -0.119  0.00  0.00    +0.192 C 
ATOM      3  N   LIG    1        2.472   0.034   0.031  0.00  0.00    +0.245 N 
ATOM      4  C   LIG    1        2.873  -1.214   0.805  0.00  0.00    +0.192 C 
ATOM      5  C   LIG    1        2.913   1.269   0.814  0.00  0.00    +0.192 C 
ENDBRANCH   1   3
BRANCH   1   6
ATOM      6  C   LIG    1        2.888   1.191  -2.304  0.00  0.00    +0.350 C 
ATOM      7  O   LIG    1        2.175   2.139  -2.009  0.00  0.00    -0.245 OA
BRANCH   6   8
ATOM      8  O   LIG    1        3.501   1.117  -3.504  0.00  0.00    -0.477 OA
ATOM      9  H   LIG    1        4.064   0.345  -3.709  0.00  0.00    +0.295 HD
ENDBRANCH   6   8
ENDBRANCH   1   6
TORSDOF 3
