REMARK  Name = *****
REMARK                            x       y       z     vdW  Elec       q    Type
REMARK                         _______ _______ _______ _____ _____    ______ ____
ROOT
ATOM      1  C   LIG    1        5.177   1.184  -2.697  0.00  0.00    +0.084 C 
ATOM      2  N   LIG    1        5.231   2.654  -2.659  0.00  0.00    -0.339 N 
ATOM      3  H   LIG    1        4.299   3.030  -2.469  0.00  0.00    +0.146 HD
ATOM      4  C   LIG    1        5.783   3.271  -3.795  0.00  0.00    +0.037 A 
ATOM      5  C   LIG    1        6.658   2.598  -4.663  0.00  0.00    -0.026 A 
ATOM      6  C   LIG    1        7.159   3.252  -5.805  0.00  0.00    +0.018 A 
ATOM      7  C   LIG    1        6.864   4.600  -6.075  0.00  0.00    +0.055 A 
ATOM      8  C   LIG    1        6.050   5.265  -5.143  0.00  0.00    +0.280 A 
ATOM      9  C   LIG    1        6.999   1.144  -4.446  0.00  0.00    +0.039 C 
ATOM     10  C   LIG    1        5.530   4.625  -4.011  0.00  0.00    +0.107 A 
ATOM     11  C   LIG    1        6.551   0.634  -3.079  0.00  0.00    +0.028 C 
ENDROOT
BRANCH   8  12
ATOM     12  N   LIG    1        5.698   6.664  -5.310  0.00  0.00    +0.080 N 
ATOM     13  O   LIG    1        4.496   6.945  -5.364  0.00  0.00    -0.576 OA
ATOM     14  O   LIG    1        6.631   7.479  -5.367  0.00  0.00    +0.042 OA
ENDBRANCH   8  12
BRANCH   1  15
ATOM     15  C   LIG    1        4.036   0.686  -3.630  0.00  0.00    +0.103 C 
BRANCH  15  16
ATOM     16  N   LIG    1        2.717   1.236  -3.257  0.00  0.00    -0.312 NA
ATOM     17  H   LIG    1        2.521   0.997  -2.284  0.00  0.00    +0.122 HD
BRANCH  16  19
ATOM     18  C   LIG    1        0.299   1.252  -3.579  0.00  0.00    +0.024 C 
ATOM     19  C   LIG    1        1.632   0.717  -4.108  0.00  0.00    +0.048 C 
ATOM     20  C   LIG    1        1.788   1.112  -5.580  0.00  0.00    +0.024 C 
ENDBRANCH  16  19
ENDBRANCH  15  16
ENDBRANCH   1  15
BRANCH   7  21
ATOM     21  C   LIG    1        7.336   5.232  -7.361  0.00  0.00    +0.197 C 
BRANCH  21  22
ATOM     22  O   LIG    1        8.557   4.646  -7.800  0.00  0.00    -0.390 OA
ATOM     23  H   LIG    1        9.245   4.950  -7.183  0.00  0.00    +0.210 HD
ENDBRANCH  21  22
ENDBRANCH   7  21
TORSDOF 6
