REMARK  Name = *****
REMARK                            x       y       z     vdW  Elec       q    Type
REMARK                         _______ _______ _______ _____ _____    ______ ____
ROOT
ATOM      1  C   LIG    1        4.912   0.449   0.493  0.00  0.00    +0.262 C 
ATOM      2  N   LIG    1        5.658   1.468   1.050  0.00  0.00    -0.281 N 
ATOM      3  H   LIG    1        5.156   2.335   1.230  0.00  0.00    +0.155 HD
ATOM      4  O   LIG    1        5.345  -0.651   0.162  0.00  0.00    -0.269 OA
ENDROOT
BRANCH   2   5
ATOM      5  C   LIG    1        7.037   1.471   1.334  0.00  0.00    +0.034 A 
ATOM      6  C   LIG    1        7.579   2.628   1.905  0.00  0.00    +0.024 A 
ATOM      7  C   LIG    1        8.950   2.715   2.177  0.00  0.00    +0.014 A 
ATOM      8  C   LIG    1        9.804   1.642   1.885  0.00  0.00    +0.055 A 
ATOM      9  C   LIG    1        9.254   0.480   1.333  0.00  0.00    +0.014 A 
ATOM     10  C   LIG    1        7.885   0.396   1.064  0.00  0.00    +0.024 A 
BRANCH   8  11
ATOM     11  C   LIG    1       11.283   1.748   2.160  0.00  0.00    +0.417 C 
ATOM     12  F   LIG    1       11.552   1.982   3.474  0.00  0.00    -0.166 F 
ATOM     13  F   LIG    1       11.866   2.769   1.472  0.00  0.00    -0.166 F 
ATOM     14  F   LIG    1       11.983   0.628   1.828  0.00  0.00    -0.166 F 
ENDBRANCH   8  11
ENDBRANCH   2   5
BRANCH   1  17
ATOM     15  C   LIG    1        1.413   2.222   0.185  0.00  0.00    +0.087 C 
ATOM     16  C   LIG    1        2.888   1.967   0.368  0.00  0.00    +0.113 C 
ATOM     17  C   LIG    1        3.442   0.730   0.324  0.00  0.00    +0.150 C 
BRANCH  17  18
ATOM     18  C   LIG    1        2.632  -0.412   0.057  0.00  0.00    +0.108 C 
ATOM     19  N   LIG    1        1.910  -1.302  -0.152  0.00  0.00    -0.191 NA
ENDBRANCH  17  18
BRANCH  16  20
ATOM     20  O   LIG    1        3.656   3.102   0.597  0.00  0.00    -0.510 OA
ATOM     21  H   LIG    1        3.088   3.893   0.511  0.00  0.00    +0.292 HD
ENDBRANCH  16  20
ENDBRANCH   1  17
TORSDOF 5
