REMARK  Name = *****
REMARK                            x       y       z     vdW  Elec       q    Type
REMARK                         _______ _______ _______ _____ _____    ______ ____
ROOT
ATOM      1  C   UNK A  1        8.009   6.267  -1.925  0.00  0.00    +0.176 C 
ATOM      2  C   UNK A  1        7.120   5.036  -1.647  0.00  0.00    +0.235 C 
ATOM      3  O   UNK A  1        7.455   4.171  -0.839  0.00  0.00    -0.274 OA
ATOM      4  N   SER A  2        5.858   5.083  -2.195  0.00  0.00    -0.300 N 
ATOM      5  H   SER A  2        5.810   5.690  -3.011  0.00  0.00    +0.150 HD
ATOM      6  CA  SER A  2        4.948   3.925  -2.250  0.00  0.00    +0.184 C 
ATOM      7  C   SER A  2        3.855   4.398  -3.246  0.00  0.00    +0.236 C 
ATOM      8  O   SER A  2        4.144   4.712  -4.404  0.00  0.00    -0.274 OA
ATOM      9  N   UNK A  3        2.615   4.735  -2.745  0.00  0.00    -0.300 N 
ATOM     10  H   UNK A  3        2.342   4.421  -1.817  0.00  0.00    +0.150 HD
ATOM     11  C   UNK A  3        2.044   6.043  -3.103  0.00  0.00    +0.185 C 
ATOM     12  C   UNK A  3        1.694   6.747  -1.778  0.00  0.00    +0.240 C 
ATOM     13  O   UNK A  3        1.546   6.111  -0.733  0.00  0.00    -0.273 OA
ATOM     14  N   UNK A  3        1.640   8.140  -1.848  0.00  0.00    -0.279 N 
ATOM     15  H   UNK A  3        2.021   8.438  -2.749  0.00  0.00    +0.155 HD
ATOM     16  C   UNK A  3        2.321   8.810  -0.820  0.00  0.00    +0.110 C 
ATOM     17  C   UNK A  3        1.720   9.218   0.305  0.00  0.00    +0.104 C 
ATOM     18  C   UNK A  3        3.792   8.960  -1.122  0.00  0.00    +0.260 C 
ATOM     19  O   UNK A  3        4.258   8.354  -2.088  0.00  0.00    -0.269 OA
ATOM     20  N   UNK A  3        4.557   9.816  -0.381  0.00  0.00    -0.296 N 
ATOM     21  H   UNK A  3        4.101  10.395   0.315  0.00  0.00    +0.150 HD
ATOM     22  C   UNK A  3        5.770  10.401  -0.993  0.00  0.00    +0.194 C 
ATOM     23  C   UNK A  3        6.939   9.397  -1.248  0.00  0.00    +0.237 C 
ATOM     24  O   UNK A  3        7.953   9.722  -1.872  0.00  0.00    -0.274 OA
ATOM     25  N   UNK A  3        6.833   8.156  -0.662  0.00  0.00    -0.311 N 
ATOM     26  H   UNK A  3        5.897   7.824  -0.457  0.00  0.00    +0.149 HD
ATOM     27  C   UNK A  3        7.921   7.178  -0.676  0.00  0.00    +0.136 C 
ENDROOT
BRANCH  22  28
ATOM     28  C   UNK A  3        5.461  11.188  -2.303  0.00  0.00    +0.171 C 
ATOM     29  N   UNK A  3        6.594  11.987  -2.748  0.00  0.00    -0.233 N 
ATOM     30  H   UNK A  3        7.492  11.506  -2.745  0.00  0.00    +0.245 HD
ATOM     31  C   UNK A  3        6.392  12.933  -3.695  0.00  0.00    +0.365 C 
ATOM     32  N   UNK A  3        5.264  13.408  -4.081  0.00  0.00    -0.085 NA
ATOM     33  C   UNK A  3        4.059  12.883  -3.450  0.00  0.00    +0.319 C 
ATOM     34  C   UNK A  3        4.312  12.186  -2.120  0.00  0.00    +0.115 C 
BRANCH  31  35
ATOM     35  N   UNK A  3        7.543  13.416  -4.206  0.00  0.00    -0.252 N 
ATOM     36  H   UNK A  3        8.302  12.764  -4.332  0.00  0.00    +0.241 HD
ATOM     37  H   UNK A  3        7.382  14.000  -5.020  0.00  0.00    +0.241 HD
ENDBRANCH  31  35
BRANCH  33  38
ATOM     38  O   UNK A  3        3.337  11.994  -4.293  0.00  0.00    -0.358 OA
ATOM     39  H   UNK A  3        3.485  12.377  -5.176  0.00  0.00    +0.213 HD
ENDBRANCH  33  38
ENDBRANCH  22  28
BRANCH  17  40
ATOM     40  N   UNK A  3        0.365   9.097   0.513  0.00  0.00    -0.274 N 
ATOM     41  H   UNK A  3       -0.197   8.698  -0.226  0.00  0.00    +0.156 HD
ATOM     42  C   UNK A  3       -0.269   9.524   1.653  0.00  0.00    +0.301 C 
ATOM     43  O   UNK A  3        0.264  10.054   2.606  0.00  0.00    -0.253 OA
ATOM     44  N   UNK A  3       -1.619   9.336   1.604  0.00  0.00    -0.313 N 
ATOM     45  H   UNK A  3       -2.089   9.564   2.472  0.00  0.00    +0.146 HD
ATOM     46  H   UNK A  3       -1.984   8.534   1.116  0.00  0.00    +0.146 HD
ENDBRANCH  17  40
BRANCH   1  48
ATOM     47  C   UNK A  0        7.717   6.279  -4.373  0.00  0.00    +0.215 C 
ATOM     48  N   UNK A  1        7.642   6.952  -3.169  0.00  0.00    -0.303 N 
ATOM     49  H   UNK A  1        7.866   7.944  -3.199  0.00  0.00    +0.149 HD
ATOM     50  O   UNK A  0        8.001   5.089  -4.445  0.00  0.00    -0.276 OA
BRANCH  47  51
ATOM     51  C   UNK A  0        7.230   7.096  -5.550  0.00  0.00    +0.114 C 
BRANCH  51  52
ATOM     52  C   UNK A  0        7.788   6.591  -6.889  0.00  0.00    +0.059 C 
BRANCH  52  53
ATOM     53  N   UNK A  0        7.246   7.427  -7.971  0.00  0.00    -0.327 NA
ATOM     54  H   UNK A  0        6.227   7.365  -7.979  0.00  0.00    +0.118 HD
ATOM     55  H   UNK A  0        7.473   8.408  -7.815  0.00  0.00    +0.118 HD
ENDBRANCH  52  53
BRANCH  52  56
ATOM     56  C   UNK A  0        9.335   6.610  -6.900  0.00  0.00    +0.020 C 
BRANCH  56  57
ATOM     57  C   UNK A  0        9.959   6.118  -8.213  0.00  0.00    +0.016 C 
BRANCH  57  58
ATOM     58  C   UNK A  0       11.491   6.110  -8.156  0.00  0.00    +0.077 C 
BRANCH  58  59
ATOM     59  N   UNK A  0       12.044   5.655  -9.429  0.00  0.00    -0.330 NA
ATOM     60  H   UNK A  0       11.771   4.685  -9.586  0.00  0.00    +0.118 HD
ATOM     61  H   UNK A  0       13.062   5.659  -9.382  0.00  0.00    +0.118 HD
ENDBRANCH  58  59
ENDBRANCH  57  58
ENDBRANCH  56  57
ENDBRANCH  52  56
ENDBRANCH  51  52
ENDBRANCH  47  51
ENDBRANCH   1  48
BRANCH   6  62
ATOM     62  CB  SER A  2        4.397   3.507  -0.878  0.00  0.00    +0.187 C 
BRANCH  62  63
ATOM     63  OG  SER A  2        5.358   2.957   0.013  0.00  0.00    -0.393 OA
ATOM     64  H   SER A  2        6.186   3.479  -0.072  0.00  0.00    +0.209 HD
ENDBRANCH  62  63
ENDBRANCH   6  62
BRANCH  11  65
ATOM     65  C   UNK A  3        0.827   5.934  -4.010  0.00  0.00    +0.187 C 
BRANCH  65  66
ATOM     66  O   UNK A  3        1.156   5.302  -5.244  0.00  0.00    -0.393 OA
ATOM     67  H   UNK A  3        1.897   4.685  -5.076  0.00  0.00    +0.209 HD
ENDBRANCH  65  66
ENDBRANCH  11  65
TORSDOF 16
