REMARK  Name = *****
REMARK                            x       y       z     vdW  Elec       q    Type
REMARK                         _______ _______ _______ _____ _____    ______ ____
ROOT
ATOM      1  C   LIG    1        5.532  -2.635   1.039  0.00  0.00    +0.069 C 
ENDROOT
BRANCH   1   2
ATOM      2  C   LIG    1        6.986  -2.197   0.833  0.00  0.00    +0.049 A 
ATOM      3  N   LIG    1        7.700  -1.930   1.956  0.00  0.00    -0.259 NA
ATOM      4  C   LIG    1        8.992  -1.556   1.815  0.00  0.00    +0.111 A 
ATOM      5  C   LIG    1        9.617  -1.412   0.589  0.00  0.00    +0.020 A 
ATOM      6  C   LIG    1        8.879  -1.673  -0.555  0.00  0.00    +0.003 A 
ATOM      7  C   LIG    1        7.548  -2.079  -0.442  0.00  0.00    +0.024 A 
ENDBRANCH   1   2
BRANCH   1   8
ATOM      8  C   LIG    1        5.307  -4.110   0.658  0.00  0.00    -0.038 A 
ATOM      9  C   LIG    1        6.189  -5.095   1.145  0.00  0.00    +0.004 A 
ATOM     10  C   LIG    1        6.019  -6.446   0.825  0.00  0.00    +0.000 A 
ATOM     11  C   LIG    1        4.955  -6.843   0.022  0.00  0.00    +0.000 A 
ATOM     12  C   LIG    1        4.054  -5.892  -0.446  0.00  0.00    +0.000 A 
ATOM     13  C   LIG    1        4.224  -4.541  -0.126  0.00  0.00    +0.004 A 
ENDBRANCH   1   8
BRANCH   1  14
ATOM     14  C   LIG    1        4.529  -1.641   0.384  0.00  0.00    +0.029 C 
BRANCH  14  15
ATOM     15  C   LIG    1        4.760  -0.169   0.771  0.00  0.00    +0.085 C 
BRANCH  15  17
ATOM     16  C   LIG    1        4.159   2.148   0.607  0.00  0.00    +0.104 C 
ATOM     17  N   LIG    1        3.792   0.787   0.188  0.00  0.00    -0.308 NA
ATOM     18  C   LIG    1        3.738   0.739  -1.275  0.00  0.00    +0.104 C 
ENDBRANCH  15  17
ENDBRANCH  14  15
ENDBRANCH   1  14
TORSDOF 5
