REMARK  Name = *****
REMARK                            x       y       z     vdW  Elec       q    Type
REMARK                         _______ _______ _______ _____ _____    ______ ____
ROOT
ATOM      1  C   LIG    1        1.119   0.845  -0.848  0.00  0.00    +0.067 C 
ATOM      2  C   LIG    1        2.480   0.484  -0.344  0.00  0.00    +0.059 C 
ATOM      3  N   LIG    1        3.515   1.422  -0.453  0.00  0.00    -0.282 N 
ATOM      4  C   LIG    1        3.324   2.767   0.108  0.00  0.00    +0.171 C 
ATOM      5  N   LIG    1        4.678   0.779   0.026  0.00  0.00    -0.216 N 
ATOM      6  C   LIG    1        4.357  -0.528   0.422  0.00  0.00    +0.293 C 
ATOM      7  O   LIG    1        5.097  -1.401   0.848  0.00  0.00    -0.264 OA
ATOM      8  C   LIG    1        2.866  -0.710   0.154  0.00  0.00    +0.117 C 
ENDROOT
BRANCH   5   9
ATOM      9  C   LIG    1        5.963   1.160  -0.431  0.00  0.00    +0.067 A 
ATOM     10  C   LIG    1        7.108   0.770   0.272  0.00  0.00    +0.028 A 
ATOM     11  C   LIG    1        8.379   1.145  -0.172  0.00  0.00    +0.002 A 
ATOM     12  C   LIG    1        8.519   1.891  -1.341  0.00  0.00    +0.000 A 
ATOM     13  C   LIG    1        7.388   2.276  -2.057  0.00  0.00    +0.002 A 
ATOM     14  C   LIG    1        6.117   1.925  -1.597  0.00  0.00    +0.028 A 
ENDBRANCH   5   9
BRANCH   8  15
ATOM     15  N   LIG    1        2.184  -1.898   0.402  0.00  0.00    -0.330 N 
ATOM     16  C   LIG    1        2.886  -3.180   0.472  0.00  0.00    +0.129 C 
ATOM     17  C   LIG    1        0.776  -1.944   0.771  0.00  0.00    +0.129 C 
ENDBRANCH   8  15
TORSDOF 2
