REMARK  Name = *****
REMARK                            x       y       z     vdW  Elec       q    Type
REMARK                         _______ _______ _______ _____ _____    ______ ____
ROOT
ATOM      1  N   LIG    1        4.800  -0.686   1.035  0.00  0.00    -0.298 N 
ATOM      2  C   LIG    1        5.524  -0.669  -0.203  0.00  0.00    +0.048 A 
ATOM      3  C   LIG    1        6.933  -0.703  -0.243  0.00  0.00    +0.034 A 
ATOM      4  C   LIG    1        7.638  -0.754  -1.467  0.00  0.00    +0.017 A 
ATOM      5  C   LIG    1        6.966  -0.756  -2.681  0.00  0.00    +0.001 A 
ATOM      6  C   LIG    1        5.587  -0.689  -2.679  0.00  0.00    +0.002 A 
ATOM      7  S   LIG    1        7.970  -0.657   1.193  0.00  0.00    -0.086 S 
ATOM      8  C   LIG    1        6.792  -0.699   2.518  0.00  0.00    +0.034 A 
ATOM      9  C   LIG    1        7.368  -0.688   3.808  0.00  0.00    +0.017 A 
ATOM     10  C   LIG    1        6.574  -0.725   4.949  0.00  0.00    +0.001 A 
ATOM     11  C   LIG    1        5.205  -0.785   4.807  0.00  0.00    +0.002 A 
ATOM     12  C   LIG    1        4.629  -0.793   3.527  0.00  0.00    +0.024 A 
ATOM     13  C   LIG    1        4.882  -0.639  -1.463  0.00  0.00    +0.024 A 
ATOM     14  C   LIG    1        5.398  -0.734   2.337  0.00  0.00    +0.048 A 
ENDROOT
BRANCH   1  15
ATOM     15  C   LIG    1        3.316  -0.632   0.962  0.00  0.00    +0.115 C 
BRANCH  15  17
ATOM     16  C   LIG    1        3.217   1.747   1.960  0.00  0.00    +0.010 C 
ATOM     17  C   LIG    1        2.749   0.809   0.841  0.00  0.00    +0.018 C 
BRANCH  17  18
ATOM     18  C   LIG    1        1.197   0.732   0.794  0.00  0.00    +0.088 C 
BRANCH  18  19
ATOM     19  N   LIG    1        0.486   2.013   0.613  0.00  0.00    -0.308 NA
ATOM     20  C   LIG    1       -0.967   1.797   0.661  0.00  0.00    +0.104 C 
ATOM     21  C   LIG    1        0.832   2.676  -0.645  0.00  0.00    +0.104 C 
ENDBRANCH  18  19
ENDBRANCH  17  18
ENDBRANCH  15  17
ENDBRANCH   1  15
TORSDOF 4
