REMARK  Name = *****
REMARK                            x       y       z     vdW  Elec       q    Type
REMARK                         _______ _______ _______ _____ _____    ______ ____
ROOT
ATOM      1  C   LIG    1        5.033  -3.471  -2.898  0.00  0.00    -0.028 A 
ATOM      2  C   LIG    1        3.774  -4.055  -3.066  0.00  0.00    +0.006 A 
ATOM      3  C   LIG    1        3.600  -5.100  -3.992  0.00  0.00    +0.009 A 
ATOM      4  C   LIG    1        4.664  -5.581  -4.793  0.00  0.00    -0.017 A 
ATOM      5  C   LIG    1        5.918  -5.033  -4.546  0.00  0.00    +0.009 A 
ATOM      6  C   LIG    1        6.098  -4.038  -3.596  0.00  0.00    +0.006 A 
ENDROOT
BRANCH   4   7
ATOM      7  C   LIG    1        4.442  -6.497  -5.944  0.00  0.00    -0.007 A 
ATOM      8  C   LIG    1        5.341  -7.493  -6.426  0.00  0.00    +0.028 A 
ATOM      9  C   LIG    1        4.990  -8.210  -7.597  0.00  0.00    +0.012 A 
ATOM     10  C   LIG    1        3.798  -7.978  -8.285  0.00  0.00    +0.001 A 
ATOM     11  C   LIG    1        2.931  -7.000  -7.837  0.00  0.00    +0.001 A 
ATOM     12  C   LIG    1        3.257  -6.271  -6.696  0.00  0.00    +0.009 A 
BRANCH   8  13
ATOM     13  C   LIG    1        6.642  -7.863  -5.836  0.00  0.00    +0.180 A 
ATOM     14  N   LIG    1        6.954  -7.911  -4.503  0.00  0.00    -0.239 N 
ATOM     15  H   LIG    1        6.395  -7.656  -3.700  0.00  0.00    +0.192 HD
ATOM     16  N   LIG    1        8.212  -8.340  -4.323  0.00  0.00    -0.046 NA
ATOM     17  N   LIG    1        8.674  -8.567  -5.542  0.00  0.00    -0.023 NA
ATOM     18  N   LIG    1        7.718  -8.283  -6.486  0.00  0.00    -0.108 NA
ENDBRANCH   8  13
ENDBRANCH   4   7
BRANCH   1  19
ATOM     19  C   LIG    1        5.248  -2.291  -1.983  0.00  0.00    +0.162 C 
BRANCH  19  21
ATOM     20  C   LIG    1        7.658  -1.624  -1.950  0.00  0.00    +0.299 A 
ATOM     21  N   LIG    1        6.357  -1.405  -2.370  0.00  0.00    -0.289 N 
ATOM     22  C   LIG    1        6.270  -0.066  -2.727  0.00  0.00    +0.086 A 
ATOM     23  C   LIG    1        7.439   0.472  -2.186  0.00  0.00    +0.093 A 
ATOM     24  C   LIG    1        7.613   1.862  -2.114  0.00  0.00    +0.030 A 
ATOM     25  C   LIG    1        6.621   2.700  -2.615  0.00  0.00    +0.003 A 
ATOM     26  C   LIG    1        5.524   2.157  -3.274  0.00  0.00    +0.017 A 
ATOM     27  C   LIG    1        5.338   0.761  -3.389  0.00  0.00    +0.085 A 
ATOM     28  N   LIG    1        8.310  -0.501  -1.789  0.00  0.00    -0.195 NA
BRANCH  27  29
ATOM     29  C   LIG    1        4.335   0.264  -4.340  0.00  0.00    +0.339 C 
ATOM     30  O   LIG    1        4.375  -0.806  -4.947  0.00  0.00    -0.245 OA
BRANCH  29  31
ATOM     31  O   LIG    1        3.380   1.174  -4.591  0.00  0.00    -0.477 OA
ATOM     32  H   LIG    1        2.880   0.825  -5.356  0.00  0.00    +0.295 HD
ENDBRANCH  29  31
ENDBRANCH  27  29
BRANCH  20  33
ATOM     33  O   LIG    1        8.139  -2.834  -1.660  0.00  0.00    -0.464 OA
BRANCH  33  35
ATOM     34  C   LIG    1        9.960  -4.276  -1.029  0.00  0.00    +0.048 C 
ATOM     35  C   LIG    1        9.506  -2.843  -1.248  0.00  0.00    +0.229 C 
ENDBRANCH  33  35
ENDBRANCH  20  33
ENDBRANCH  19  21
ENDBRANCH   1  19
TORSDOF 8
