REMARK  Name = *****
REMARK                            x       y       z     vdW  Elec       q    Type
REMARK                         _______ _______ _______ _____ _____    ______ ____
ROOT
ATOM      1  N   LIG    1        3.877  -5.441   7.534  0.00  0.00    -0.298 N 
ATOM      2  C   LIG    1        3.088  -5.515   8.740  0.00  0.00    +0.049 A 
ATOM      3  C   LIG    1        2.502  -6.723   9.177  0.00  0.00    +0.034 A 
ATOM      4  C   LIG    1        1.712  -6.739  10.335  0.00  0.00    +0.018 A 
ATOM      5  C   LIG    1        1.556  -5.581  11.097  0.00  0.00    +0.018 A 
ATOM      6  C   LIG    1        2.196  -4.401  10.714  0.00  0.00    +0.040 A 
ATOM      7  S   LIG    1        2.743  -8.253   8.285  0.00  0.00    -0.086 S 
ATOM      8  C   LIG    1        4.293  -7.891   7.472  0.00  0.00    +0.034 A 
ATOM      9  C   LIG    1        5.136  -8.948   7.120  0.00  0.00    +0.017 A 
ATOM     10  C   LIG    1        6.370  -8.703   6.515  0.00  0.00    +0.001 A 
ATOM     11  C   LIG    1        6.777  -7.389   6.277  0.00  0.00    +0.002 A 
ATOM     12  C   LIG    1        5.948  -6.332   6.634  0.00  0.00    +0.024 A 
ATOM     13  C   LIG    1        2.934  -4.362   9.522  0.00  0.00    +0.041 A 
ATOM     14  C   LIG    1        4.683  -6.563   7.199  0.00  0.00    +0.048 A 
ENDROOT
BRANCH   6  15
ATOM     15  S   LIG    1        2.072  -2.950  11.772  0.00  0.00    +0.051 S 
ATOM     16  O   LIG    1        1.762  -1.810  10.852  0.00  0.00    -0.252 OA
ATOM     17  C   LIG    1        3.830  -2.823  12.208  0.00  0.00    +0.127 C 
ENDBRANCH   6  15
BRANCH   1  18
ATOM     18  C   LIG    1        2.936  -5.040   6.422  0.00  0.00    +0.112 C 
BRANCH  18  19
ATOM     19  C   LIG    1        3.465  -5.178   4.973  0.00  0.00    +0.038 C 
BRANCH  19  22
ATOM     20  C   LIG    1        4.080  -4.651   2.027  0.00  0.00    +0.105 C 
ATOM     21  N   LIG    1        2.810  -5.184   2.521  0.00  0.00    -0.302 NA
ATOM     22  C   LIG    1        2.431  -4.750   3.892  0.00  0.00    +0.058 C 
ATOM     23  C   LIG    1        2.074  -3.252   3.935  0.00  0.00    +0.019 C 
ATOM     24  C   LIG    1        0.973  -2.916   2.926  0.00  0.00    +0.003 C 
ATOM     25  C   LIG    1        1.290  -3.444   1.531  0.00  0.00    +0.015 C 
ATOM     26  C   LIG    1        1.716  -4.913   1.573  0.00  0.00    +0.084 C 
ENDBRANCH  19  22
ENDBRANCH  18  19
ENDBRANCH   1  18
TORSDOF 4
