REMARK  Name = *****
REMARK                            x       y       z     vdW  Elec       q    Type
REMARK                         _______ _______ _______ _____ _____    ______ ____
ROOT
ATOM      1  O   LIG    1        3.651   3.993   3.801  0.00  0.00    -0.270 OA
ATOM      2  C   LIG    1        3.573   2.880   3.287  0.00  0.00    +0.247 C 
ATOM      3  N   LIG    1        2.483   2.478   2.486  0.00  0.00    -0.292 N 
ATOM      4  C   LIG    1        2.678   1.315   1.619  0.00  0.00    +0.116 C 
ATOM      5  C   LIG    1        3.296   0.143   2.386  0.00  0.00    +0.037 C 
ATOM      6  C   LIG    1        3.489  -1.079   1.483  0.00  0.00    +0.010 C 
ATOM      7  C   LIG    1        4.221  -2.176   2.251  0.00  0.00    +0.005 C 
ATOM      8  C   LIG    1        5.619  -1.713   2.662  0.00  0.00    +0.035 C 
ATOM      9  C   LIG    1        5.657  -0.309   3.215  0.00  0.00    -0.043 A 
ATOM     10  C   LIG    1        6.817   0.137   3.863  0.00  0.00    +0.004 A 
ATOM     11  C   LIG    1        6.910   1.446   4.335  0.00  0.00    +0.001 A 
ATOM     12  C   LIG    1        5.848   2.330   4.150  0.00  0.00    +0.013 A 
ATOM     13  C   LIG    1        4.586   0.586   3.028  0.00  0.00    -0.028 A 
ATOM     14  C   LIG    1        4.687   1.907   3.493  0.00  0.00    +0.041 A 
ENDROOT
BRANCH   3  15
ATOM     15  C   LIG    1        1.517   3.542   2.120  0.00  0.00    +0.093 C 
ATOM     16  C   LIG    1        0.379   3.145   1.141  0.00  0.00    +0.013 C 
ATOM     17  C   LIG    1       -0.671   2.300   1.886  0.00  0.00    +0.021 C 
ATOM     18  C   LIG    1       -1.297   3.128   3.018  0.00  0.00    +0.085 C 
ATOM     19  N   LIG    1       -0.624   4.433   3.171  0.00  0.00    -0.300 NA
ATOM     20  C   LIG    1       -0.804   5.219   1.935  0.00  0.00    +0.085 C 
ATOM     21  C   LIG    1       -0.321   4.446   0.698  0.00  0.00    +0.021 C 
ATOM     22  C   LIG    1        0.830   4.184   3.374  0.00  0.00    +0.107 C 
ENDBRANCH   3  15
TORSDOF 1
