REMARK  Name = *****
REMARK                            x       y       z     vdW  Elec       q    Type
REMARK                         _______ _______ _______ _____ _____    ______ ____
ROOT
ATOM      1  C   LIG    1        5.623  -4.824  -1.450  0.00  0.00    +0.234 C 
ATOM      2  N   LIG    1        4.281  -4.522  -1.244  0.00  0.00    -0.288 N 
ATOM      3  C   LIG    1        3.249  -5.585  -1.038  0.00  0.00    +0.163 C 
ATOM      4  C   LIG    1        2.502  -4.570  -0.163  0.00  0.00    +0.051 C 
ATOM      5  C   LIG    1        3.720  -3.676  -0.193  0.00  0.00    +0.111 C 
ATOM      6  O   LIG    1        5.971  -5.599  -2.343  0.00  0.00    -0.274 OA
ENDROOT
BRANCH   3   7
ATOM      7  C   LIG    1        2.432  -6.138  -2.241  0.00  0.00    +0.234 C 
ATOM      8  N   LIG    1        2.566  -5.422  -3.406  0.00  0.00    -0.310 N 
ATOM      9  H   LIG    1        3.182  -4.618  -3.406  0.00  0.00    +0.149 HD
ATOM     10  O   LIG    1        1.693  -7.120  -2.167  0.00  0.00    -0.274 OA
BRANCH   8  11
ATOM     11  C   LIG    1        1.951  -5.851  -4.641  0.00  0.00    +0.139 C 
BRANCH  11  12
ATOM     12  C   LIG    1        2.735  -5.339  -5.820  0.00  0.00    -0.030 A 
ATOM     13  C   LIG    1        2.124  -4.523  -6.777  0.00  0.00    +0.006 A 
ATOM     14  C   LIG    1        2.875  -3.958  -7.811  0.00  0.00    +0.016 A 
ATOM     15  C   LIG    1        4.242  -4.224  -7.933  0.00  0.00    +0.069 A 
ATOM     16  C   LIG    1        4.847  -5.080  -7.000  0.00  0.00    +0.016 A 
ATOM     17  C   LIG    1        4.098  -5.640  -5.959  0.00  0.00    +0.006 A 
BRANCH  15  18
ATOM     18  C   LIG    1        5.093  -3.533  -8.961  0.00  0.00    +0.362 C 
ATOM     19  N   LIG    1        4.735  -3.128 -10.154  0.00  0.00    +0.151 NA
BRANCH  18  20
ATOM     20  N   LIG    1        6.396  -3.244  -8.626  0.00  0.00    -0.243 N 
ATOM     21  H   LIG    1        6.800  -2.587  -9.286  0.00  0.00    +0.289 HD
ATOM     22  H   LIG    1        6.541  -2.965  -7.663  0.00  0.00    +0.289 HD
ENDBRANCH  18  20
BRANCH  19  23
ATOM     23  O   LIG    1        3.434  -3.472 -10.514  0.00  0.00    -0.311 OA
ATOM     24  H   LIG    1        3.357  -3.082 -11.404  0.00  0.00    +0.360 HD
ENDBRANCH  19  23
ENDBRANCH  15  18
ENDBRANCH  11  12
ENDBRANCH   8  11
ENDBRANCH   3   7
BRANCH   1  25
ATOM     25  C   LIG    1        6.684  -4.213  -0.463  0.00  0.00    +0.144 C 
BRANCH  25  26
ATOM     26  C   LIG    1        6.741  -2.649  -0.551  0.00  0.00    +0.015 C 
ATOM     27  C   LIG    1        7.673  -1.952   0.461  0.00  0.00    +0.005 C 
ATOM     28  C   LIG    1        9.147  -2.127   0.129  0.00  0.00    +0.000 C 
ATOM     29  C   LIG    1        9.463  -1.558  -1.248  0.00  0.00    +0.000 C 
ATOM     30  C   LIG    1        8.548  -2.108  -2.337  0.00  0.00    +0.000 C 
ATOM     31  C   LIG    1        7.064  -2.130  -1.966  0.00  0.00    +0.005 C 
ENDBRANCH  25  26
BRANCH  25  32
ATOM     32  N   LIG    1        6.362  -4.665   0.912  0.00  0.00    -0.296 NA
ATOM     33  H   LIG    1        7.035  -4.292   1.584  0.00  0.00    +0.123 HD
BRANCH  32  34
ATOM     34  C   LIG    1        6.325  -6.129   1.081  0.00  0.00    +0.203 C 
BRANCH  34  35
ATOM     35  C   LIG    1        5.963  -6.373   2.530  0.00  0.00    +0.321 C 
ATOM     36  O   LIG    1        6.783  -6.268   3.411  0.00  0.00    -0.249 OA
BRANCH  35  37
ATOM     37  O   LIG    1        4.597  -6.483   2.701  0.00  0.00    -0.464 OA
BRANCH  37  39
ATOM     38  C   LIG    1        4.599  -6.631   5.179  0.00  0.00    +0.048 C 
ATOM     39  C   LIG    1        4.092  -5.939   3.929  0.00  0.00    +0.229 C 
ENDBRANCH  37  39
ENDBRANCH  35  37
ENDBRANCH  34  35
ENDBRANCH  32  34
ENDBRANCH  25  32
ENDBRANCH   1  25
TORSDOF 13
