REMARK  Name = *****
REMARK                            x       y       z     vdW  Elec       q    Type
REMARK                         _______ _______ _______ _____ _____    ______ ____
ROOT
ATOM      1  C   LIG    1        5.573  -2.836  -3.730  0.00  0.00    +0.234 C 
ATOM      2  N   LIG    1        6.841  -2.999  -4.256  0.00  0.00    -0.283 N 
ATOM      3  H   LIG    1        7.504  -2.262  -4.023  0.00  0.00    +0.155 HD
ATOM      4  O   LIG    1        4.680  -3.679  -3.693  0.00  0.00    -0.274 OA
ENDROOT
BRANCH   2   5
ATOM      5  C   LIG    1        7.324  -4.072  -5.031  0.00  0.00    +0.058 A 
ATOM      6  C   LIG    1        8.682  -4.170  -5.368  0.00  0.00    +0.118 A 
ATOM      7  S   LIG    1        9.020  -5.553  -6.328  0.00  0.00    -0.088 S 
ATOM      8  C   LIG    1        7.408  -6.049  -6.300  0.00  0.00    +0.051 A 
ATOM      9  C   LIG    1        6.578  -5.173  -5.626  0.00  0.00    -0.021 A 
ATOM     10  C   LIG    1        5.106  -5.431  -5.595  0.00  0.00    +0.046 C 
BRANCH   6  11
ATOM     11  C   LIG    1        9.839  -3.376  -5.002  0.00  0.00    +0.347 C 
ATOM     12  O   LIG    1       10.921  -3.347  -5.599  0.00  0.00    -0.244 OA
BRANCH  11  13
ATOM     13  O   LIG    1        9.615  -2.750  -3.813  0.00  0.00    -0.464 OA
ATOM     14  C   LIG    1       10.808  -2.407  -3.103  0.00  0.00    +0.280 C 
ENDBRANCH  11  13
ENDBRANCH   6  11
ENDBRANCH   2   5
BRANCH   1  15
ATOM     15  C   LIG    1        5.307  -1.497  -3.022  0.00  0.00    +0.138 C 
ATOM     16  C   LIG    1        5.759  -1.620  -1.566  0.00  0.00    +0.034 C 
BRANCH  15  17
ATOM     17  N   LIG    1        5.935  -0.328  -3.693  0.00  0.00    -0.306 NA
ATOM     18  H   LIG    1        5.717   0.497  -3.128  0.00  0.00    +0.123 HD
BRANCH  17  19
ATOM     19  C   LIG    1        5.361  -0.110  -5.035  0.00  0.00    +0.081 C 
BRANCH  19  21
ATOM     20  C   LIG    1        5.378   1.338  -7.099  0.00  0.00    +0.005 C 
ATOM     21  C   LIG    1        5.963   1.130  -5.706  0.00  0.00    +0.012 C 
ENDBRANCH  19  21
ENDBRANCH  17  19
ENDBRANCH  15  17
ENDBRANCH   1  15
TORSDOF 7
