REMARK  Name = *****
REMARK                            x       y       z     vdW  Elec       q    Type
REMARK                         _______ _______ _______ _____ _____    ______ ____
ROOT
ATOM      1  C   LIG    1       -3.689  -0.950  -1.019  0.00  0.00    +0.102 C 
ATOM      2  N   LIG    1       -4.113   0.348  -0.508  0.00  0.00    -0.309 N 
ATOM      3  H   LIG    1       -5.088   0.587  -0.623  0.00  0.00    +0.149 HD
ATOM      4  C   LIG    1       -3.258   1.337  -0.081  0.00  0.00    +0.216 C 
ATOM      5  O   LIG    1       -2.045   1.200   0.074  0.00  0.00    -0.276 OA
ATOM      6  C   LIG    1       -3.969   2.653   0.150  0.00  0.00    +0.128 C 
ATOM      7  C   LIG    1       -3.372   3.561   1.241  0.00  0.00    +0.136 C 
ATOM      8  C   LIG    1       -4.418   4.440   2.007  0.00  0.00    +0.050 C 
ATOM      9  C   LIG    1       -3.685   5.565   2.749  0.00  0.00    +0.021 C 
ATOM     10  C   LIG    1       -5.359   5.166   1.010  0.00  0.00    +0.021 C 
ATOM     11  C   LIG    1       -5.310   3.498   2.868  0.00  0.00    +0.147 C 
ATOM     12  O   LIG    1       -6.138   2.782   2.270  0.00  0.00    -0.296 OA
ATOM     13  C   LIG    1       -5.338   3.429   4.412  0.00  0.00    +0.082 C 
ATOM     14  C   LIG    1       -4.217   4.028   5.247  0.00  0.00    +0.018 C 
ATOM     15  C   LIG    1       -5.654   1.965   4.877  0.00  0.00    +0.127 C 
ATOM     16  C   LIG    1       -4.701   0.826   4.396  0.00  0.00    +0.015 C 
ATOM     17  C   LIG    1       -3.284   0.977   4.958  0.00  0.00    +0.010 C 
ATOM     18  C   LIG    1       -5.270  -0.571   4.777  0.00  0.00    +0.006 C 
ATOM     19  C   LIG    1       -4.544  -1.779   4.155  0.00  0.00    +0.003 C 
ATOM     20  C   LIG    1       -4.633  -1.807   2.626  0.00  0.00    +0.037 C 
ATOM     21  C   LIG    1       -3.944  -2.973   1.954  0.00  0.00    +0.093 C 
ATOM     22  C   LIG    1       -2.895  -3.740   2.705  0.00  0.00    +0.044 C 
ATOM     23  C   LIG    1       -3.910  -3.028   0.426  0.00  0.00    +0.153 C 
ATOM     24  O   LIG    1       -4.821  -3.824   1.201  0.00  0.00    -0.365 OA
ATOM     25  C   LIG    1       -4.617  -2.075  -0.498  0.00  0.00    +0.061 C 
ENDROOT
BRANCH   1  27
ATOM     26  C   LIG    1       -2.343  -1.066  -3.167  0.00  0.00    +0.041 C 
ATOM     27  C   LIG    1       -3.699  -0.832  -2.549  0.00  0.00    -0.051 C 
ATOM     28  C   LIG    1       -4.834  -0.546  -3.232  0.00  0.00    +0.029 C 
BRANCH  28  29
ATOM     29  C   LIG    1       -5.057  -0.413  -4.640  0.00  0.00    +0.071 A 
ATOM     30  N   LIG    1       -4.051  -0.639  -5.550  0.00  0.00    -0.245 NA
ATOM     31  C   LIG    1       -4.490  -0.446  -6.775  0.00  0.00    +0.076 A 
ATOM     32  C   LIG    1       -3.641  -0.588  -7.989  0.00  0.00    +0.074 C 
ATOM     33  S   LIG    1       -6.148  -0.020  -6.904  0.00  0.00    -0.080 S 
ATOM     34  C   LIG    1       -6.276  -0.073  -5.193  0.00  0.00    +0.074 A 
ENDBRANCH  28  29
ENDBRANCH   1  27
BRANCH   7  35
ATOM     35  O   LIG    1       -2.620   2.832   2.212  0.00  0.00    -0.390 OA
ATOM     36  H   LIG    1       -1.944   2.312   1.724  0.00  0.00    +0.210 HD
ENDBRANCH   7  35
BRANCH  15  37
ATOM     37  O   LIG    1       -7.000   1.657   4.477  0.00  0.00    -0.391 OA
ATOM     38  H   LIG    1       -7.027   1.760   3.501  0.00  0.00    +0.210 HD
ENDBRANCH  15  37
TORSDOF 4
