REMARK  Name = *****
REMARK                            x       y       z     vdW  Elec       q    Type
REMARK                         _______ _______ _______ _____ _____    ______ ____
ROOT
ATOM      1  C   LIG    1        6.861  10.688   9.426  0.00  0.00    +0.201 C 
ATOM      2  C   LIG    1        8.392  10.548   9.585  0.00  0.00    +0.042 C 
ATOM      3  C   LIG    1        9.101  11.585   8.697  0.00  0.00    +0.025 C 
ATOM      4  C   LIG    1        8.967  10.679  11.004  0.00  0.00    +0.025 C 
ATOM      5  S   LIG    1        8.834   8.843   8.978  0.00  0.00    -0.127 S 
ATOM      6  C   LIG    1        7.193   8.490   8.248  0.00  0.00    +0.165 C 
ATOM      7  C   LIG    1        7.038   8.625   6.707  0.00  0.00    +0.190 C 
ATOM      8  C   LIG    1        6.484  10.025   7.056  0.00  0.00    +0.240 C 
ATOM      9  O   LIG    1        6.305  11.078   6.467  0.00  0.00    -0.273 OA
ATOM     10  N   LIG    1        6.444   9.743   8.385  0.00  0.00    -0.271 N 
ENDROOT
BRANCH   7  11
ATOM     11  N   LIG    1        8.271   8.598   5.865  0.00  0.00    -0.300 N 
ATOM     12  H   LIG    1        8.804   9.450   5.698  0.00  0.00    +0.150 HD
ATOM     13  C   LIG    1        8.529   7.575   4.968  0.00  0.00    +0.235 C 
ATOM     14  O   LIG    1        7.764   6.622   4.830  0.00  0.00    -0.274 OA
BRANCH  13  15
ATOM     15  C   LIG    1        9.884   7.676   4.220  0.00  0.00    +0.168 C 
BRANCH  15  16
ATOM     16  C   LIG    1        9.747   7.627   2.707  0.00  0.00    -0.022 A 
ATOM     17  C   LIG    1        9.134   8.658   1.978  0.00  0.00    +0.006 A 
ATOM     18  C   LIG    1        9.084   8.612   0.579  0.00  0.00    +0.000 A 
ATOM     19  C   LIG    1        9.643   7.538  -0.110  0.00  0.00    +0.000 A 
ATOM     20  C   LIG    1       10.214   6.485   0.599  0.00  0.00    +0.000 A 
ATOM     21  C   LIG    1       10.257   6.525   1.996  0.00  0.00    +0.006 A 
ENDBRANCH  15  16
BRANCH  15  22
ATOM     22  N   LIG    1       10.660   8.865   4.670  0.00  0.00    -0.316 NA
ATOM     23  H   LIG    1       11.589   8.787   4.246  0.00  0.00    +0.119 HD
ATOM     24  H   LIG    1       10.829   8.760   5.672  0.00  0.00    +0.119 HD
ENDBRANCH  15  22
ENDBRANCH  13  15
ENDBRANCH   7  11
BRANCH   1  25
ATOM     25  C   LIG    1        6.054  10.485  10.714  0.00  0.00    +0.332 C 
ATOM     26  O   LIG    1        6.156  11.202  11.702  0.00  0.00    -0.249 OA
BRANCH  25  27
ATOM     27  O   LIG    1        5.167   9.465  10.581  0.00  0.00    -0.426 OA
BRANCH  27  28
ATOM     28  C   LIG    1        4.044   9.515  11.454  0.00  0.00    +0.472 C 
BRANCH  28  29
ATOM     29  O   LIG    1        3.036  10.356  10.894  0.00  0.00    -0.427 OA
BRANCH  29  30
ATOM     30  C   LIG    1        1.838   9.788  10.605  0.00  0.00    +0.315 C 
ATOM     31  O   LIG    1        1.621   8.584  10.601  0.00  0.00    -0.250 OA
BRANCH  30  33
ATOM     32  C   LIG    1        1.370  12.270  10.449  0.00  0.00    +0.022 C 
ATOM     33  C   LIG    1        0.764  10.858  10.370  0.00  0.00    +0.059 C 
ATOM     34  C   LIG    1        0.119  10.653   8.995  0.00  0.00    +0.022 C 
ATOM     35  C   LIG    1       -0.307  10.713  11.463  0.00  0.00    +0.022 C 
ENDBRANCH  30  33
ENDBRANCH  29  30
ENDBRANCH  28  29
ENDBRANCH  27  28
ENDBRANCH  25  27
ENDBRANCH   1  25
TORSDOF 10
