REMARK  Name = *****
REMARK                            x       y       z     vdW  Elec       q    Type
REMARK                         _______ _______ _______ _____ _____    ______ ____
ROOT
ATOM      1  C   LIG    1       -8.258  -8.485   2.405  0.00  0.00    +0.107 C 
ENDROOT
BRANCH   1   2
ATOM      2  N   LIG    1       -7.106  -9.164   1.773  0.00  0.00    -0.308 N 
ATOM      3  H   LIG    1       -6.405  -8.599   1.305  0.00  0.00    +0.149 HD
ATOM      4  C   LIG    1       -6.842 -10.502   1.662  0.00  0.00    +0.234 C 
ATOM      5  O   LIG    1       -5.891 -10.858   0.965  0.00  0.00    -0.274 OA
BRANCH   4   6
ATOM      6  C   LIG    1       -7.834 -11.500   2.301  0.00  0.00    +0.168 C 
BRANCH   6   7
ATOM      7  N   LIG    1       -8.825 -11.864   1.284  0.00  0.00    -0.298 N 
ATOM      8  H   LIG    1       -8.745 -11.560   0.333  0.00  0.00    +0.150 HD
ATOM      9  C   LIG    1       -9.979 -12.562   1.639  0.00  0.00    +0.263 C 
ATOM     10  O   LIG    1      -10.230 -12.904   2.776  0.00  0.00    -0.269 OA
BRANCH   9  11
ATOM     11  C   LIG    1      -10.929 -12.858   0.523  0.00  0.00    +0.126 A 
ATOM     12  N   LIG    1      -10.422 -12.897  -0.732  0.00  0.00    -0.242 NA
ATOM     13  C   LIG    1      -11.277 -13.168  -1.736  0.00  0.00    +0.072 A 
ATOM     14  C   LIG    1      -12.662 -13.376  -1.524  0.00  0.00    +0.000 A 
ATOM     15  C   LIG    1      -13.519 -13.633  -2.609  0.00  0.00    +0.010 A 
ATOM     16  C   LIG    1      -13.015 -13.686  -3.906  0.00  0.00    +0.001 A 
ATOM     17  C   LIG    1      -11.657 -13.485  -4.123  0.00  0.00    +0.002 A 
ATOM     18  C   LIG    1      -13.147 -13.309  -0.214  0.00  0.00    +0.012 A 
ATOM     19  C   LIG    1      -10.806 -13.235  -3.040  0.00  0.00    +0.028 A 
ATOM     20  C   LIG    1      -12.269 -13.056   0.833  0.00  0.00    +0.034 A 
ENDBRANCH   9  11
ENDBRANCH   6   7
BRANCH   6  21
ATOM     21  C   LIG    1       -7.126 -12.711   2.893  0.00  0.00    +0.127 C 
BRANCH  21  22
ATOM     22  C   LIG    1       -6.070 -12.280   3.901  0.00  0.00    +0.213 C 
ATOM     23  O   LIG    1       -5.810 -11.135   4.201  0.00  0.00    -0.276 OA
ATOM     24  N   LIG    1       -5.433 -13.332   4.505  0.00  0.00    -0.329 N 
ATOM     25  H   LIG    1       -4.702 -13.107   5.161  0.00  0.00    +0.145 HD
ATOM     26  H   LIG    1       -5.615 -14.290   4.268  0.00  0.00    +0.145 HD
ENDBRANCH  21  22
ENDBRANCH   6  21
ENDBRANCH   4   6
ENDBRANCH   1   2
BRANCH   1  27
ATOM     27  C   LIG    1       -9.156  -7.896   1.276  0.00  0.00    +0.149 C 
BRANCH  27  28
ATOM     28  O   LIG    1      -10.417  -7.546   1.835  0.00  0.00    -0.389 OA
ATOM     29  H   LIG    1      -10.311  -6.670   2.250  0.00  0.00    +0.210 HD
ENDBRANCH  27  28
BRANCH  27  30
ATOM     30  C   LIG    1       -8.502  -6.705   0.499  0.00  0.00    +0.118 C 
BRANCH  30  32
ATOM     31  C   LIG    1      -10.615  -5.814  -0.505  0.00  0.00    +0.143 C 
ATOM     32  N   LIG    1       -9.197  -6.190  -0.720  0.00  0.00    -0.289 NA
ATOM     33  C   LIG    1       -8.429  -5.093  -1.359  0.00  0.00    +0.089 C 
ATOM     34  C   LIG    1       -8.649  -3.612  -0.936  0.00  0.00    +0.006 C 
ATOM     35  C   LIG    1      -10.029  -3.268  -0.355  0.00  0.00    -0.005 C 
ATOM     36  C   LIG    1      -10.920  -2.358  -1.217  0.00  0.00    +0.004 C 
ATOM     37  C   LIG    1      -10.669  -2.438  -2.709  0.00  0.00    +0.000 C 
ATOM     38  C   LIG    1       -9.220  -2.189  -3.081  0.00  0.00    +0.000 C 
ATOM     39  C   LIG    1       -8.184  -2.627  -2.041  0.00  0.00    +0.005 C 
ATOM     40  C   LIG    1      -10.762  -4.480   0.240  0.00  0.00    +0.032 C 
BRANCH  31  43
ATOM     41  N   LIG    1      -11.377  -7.111  -2.508  0.00  0.00    -0.309 N 
ATOM     42  H   LIG    1      -10.571  -7.692  -2.269  0.00  0.00    +0.149 HD
ATOM     43  C   LIG    1      -11.524  -5.986  -1.737  0.00  0.00    +0.231 C 
ATOM     44  O   LIG    1      -12.403  -5.155  -1.889  0.00  0.00    -0.274 OA
BRANCH  41  46
ATOM     45  C   LIG    1      -13.408  -8.515  -3.095  0.00  0.00    +0.031 C 
ATOM     46  C   LIG    1      -12.282  -7.586  -3.599  0.00  0.00    +0.026 C 
ATOM     47  C   LIG    1      -12.959  -6.416  -4.340  0.00  0.00    +0.031 C 
ATOM     48  C   LIG    1      -11.455  -8.407  -4.607  0.00  0.00    +0.031 C 
ENDBRANCH  41  46
ENDBRANCH  31  43
ENDBRANCH  30  32
ENDBRANCH  27  30
ENDBRANCH   1  27
BRANCH   1  49
ATOM     49  C   LIG    1       -7.739  -7.516   3.502  0.00  0.00    +0.060 C 
BRANCH  49  50
ATOM     50  C   LIG    1       -8.658  -6.762   4.454  0.00  0.00    -0.045 A 
ATOM     51  C   LIG    1      -10.043  -6.926   4.571  0.00  0.00    +0.003 A 
ATOM     52  C   LIG    1      -10.818  -6.053   5.346  0.00  0.00    +0.000 A 
ATOM     53  C   LIG    1      -10.204  -5.100   6.148  0.00  0.00    +0.000 A 
ATOM     54  C   LIG    1       -8.817  -5.009   6.155  0.00  0.00    +0.000 A 
ATOM     55  C   LIG    1       -8.056  -5.816   5.303  0.00  0.00    +0.003 A 
ENDBRANCH  49  50
ENDBRANCH   1  49
TORSDOF 14
