REMARK  Name = *****
REMARK                            x       y       z     vdW  Elec       q    Type
REMARK                         _______ _______ _______ _____ _____    ______ ____
ROOT
ATOM      1  C   LIG    1       10.072  -1.562   4.591  0.00  0.00    +0.252 C 
ATOM      2  O   LIG    1        9.241  -0.803   3.637  0.00  0.00    -0.334 OA
ATOM      3  C   LIG    1        7.921  -1.300   3.879  0.00  0.00    +0.164 C 
ATOM      4  C   LIG    1        8.284  -2.741   4.203  0.00  0.00    +0.161 C 
ATOM      5  C   LIG    1        6.960  -3.488   4.216  0.00  0.00    +0.039 C 
ATOM      6  C   LIG    1        6.530  -3.037   2.809  0.00  0.00    +0.004 C 
ATOM      7  C   LIG    1        5.212  -3.366   2.131  0.00  0.00    -0.000 C 
ATOM      8  C   LIG    1        5.384  -3.079   0.591  0.00  0.00    +0.035 C 
ATOM      9  C   LIG    1        6.204  -1.754   0.259  0.00  0.00    +0.120 C 
ATOM     10  C   LIG    1        7.278  -1.269   1.285  0.00  0.00    +0.042 C 
ATOM     11  C   LIG    1        5.855  -4.317  -0.297  0.00  0.00    +0.013 C 
ATOM     12  C   LIG    1        5.323  -5.668   0.231  0.00  0.00    -0.056 C 
ATOM     13  C   LIG    1        5.578  -6.781  -0.496  0.00  0.00    +0.051 C 
ATOM     14  C   LIG    1        7.070  -6.960  -0.663  0.00  0.00    +0.179 C 
ATOM     15  C   LIG    1        7.920  -5.732  -0.594  0.00  0.00    +0.047 C 
ATOM     16  O   LIG    1        7.554  -8.057  -0.922  0.00  0.00    -0.288 OA
ATOM     17  C   LIG    1        5.392  -5.853   1.732  0.00  0.00    +0.032 C 
ATOM     18  C   LIG    1        5.292  -4.061  -1.729  0.00  0.00    +0.020 C 
ATOM     19  C   LIG    1        7.367  -4.512  -0.443  0.00  0.00    -0.012 C 
ATOM     20  C   LIG    1        4.645  -4.748   2.438  0.00  0.00    +0.008 C 
ATOM     21  C   LIG    1        6.843  -1.489   2.742  0.00  0.00    +0.012 C 
ATOM     22  C   LIG    1        5.595  -0.603   3.027  0.00  0.00    +0.015 C 
ATOM     23  O   LIG    1        9.250  -2.598   5.209  0.00  0.00    -0.345 OA
ENDROOT
BRANCH   9  24
ATOM     24  O   LIG    1        5.280  -0.675   0.068  0.00  0.00    -0.391 OA
ATOM     25  H   LIG    1        4.733  -0.882  -0.710  0.00  0.00    +0.210 HD
ENDBRANCH   9  24
BRANCH   3  26
ATOM     26  C   LIG    1        7.368  -0.516   5.120  0.00  0.00    +0.193 C 
ATOM     27  O   LIG    1        6.713  -1.049   6.022  0.00  0.00    -0.292 OA
BRANCH  26  28
ATOM     28  C   LIG    1        7.564   1.007   5.127  0.00  0.00    +0.233 C 
BRANCH  28  29
ATOM     29  O   LIG    1        7.016   1.619   6.289  0.00  0.00    -0.387 OA
ATOM     30  H   LIG    1        6.230   1.092   6.534  0.00  0.00    +0.210 HD
ENDBRANCH  28  29
ENDBRANCH  26  28
ENDBRANCH   3  26
BRANCH   1  31
ATOM     31  C   LIG    1       10.699  -0.685   5.672  0.00  0.00    +0.061 C 
BRANCH  31  33
ATOM     32  C   LIG    1       12.179   1.288   6.186  0.00  0.00    +0.004 C 
ATOM     33  C   LIG    1       11.569   0.429   5.090  0.00  0.00    +0.002 C 
ENDBRANCH  31  33
ENDBRANCH   1  31
TORSDOF 6
