REMARK  Name = *****
REMARK                            x       y       z     vdW  Elec       q    Type
REMARK                         _______ _______ _______ _____ _____    ______ ____
ROOT
ATOM      1  N   LIG    1        4.417   0.616  -1.760  0.00  0.00    -0.290 NA
ATOM      2  C   LIG    1        5.608  -0.277  -1.966  0.00  0.00    +0.113 C 
ATOM      3  C   LIG    1        6.066  -0.452  -3.440  0.00  0.00    +0.165 C 
ATOM      4  C   LIG    1        6.188   0.879  -4.207  0.00  0.00    +0.174 C 
ATOM      5  C   LIG    1        4.940   1.752  -4.002  0.00  0.00    +0.159 C 
ATOM      6  C   LIG    1        4.592   1.882  -2.503  0.00  0.00    +0.119 C 
ENDROOT
BRANCH   3   7
ATOM      7  O   LIG    1        5.168  -1.337  -4.132  0.00  0.00    -0.388 OA
ATOM      8  H   LIG    1        4.468  -0.780  -4.526  0.00  0.00    +0.210 HD
ENDBRANCH   3   7
BRANCH   4   9
ATOM      9  O   LIG    1        7.362   1.584  -3.805  0.00  0.00    -0.387 OA
ATOM     10  H   LIG    1        7.576   2.216  -4.519  0.00  0.00    +0.210 HD
ENDBRANCH   4   9
BRANCH   5  11
ATOM     11  O   LIG    1        3.850   1.210  -4.754  0.00  0.00    -0.388 OA
ATOM     12  H   LIG    1        3.053   1.713  -4.502  0.00  0.00    +0.210 HD
ENDBRANCH   5  11
BRANCH   1  13
ATOM     13  C   LIG    1        3.151  -0.091  -2.050  0.00  0.00    +0.112 C 
BRANCH  13  14
ATOM     14  C   LIG    1        1.858   0.619  -1.624  0.00  0.00    +0.171 C 
BRANCH  14  15
ATOM     15  O   LIG    1        1.600   1.769  -2.417  0.00  0.00    -0.394 OA
ATOM     16  H   LIG    1        0.865   2.217  -1.975  0.00  0.00    +0.209 HD
ENDBRANCH  14  15
ENDBRANCH  13  14
ENDBRANCH   1  13
BRANCH   2  17
ATOM     17  C   LIG    1        6.774   0.216  -1.071  0.00  0.00    +0.177 C 
BRANCH  17  18
ATOM     18  O   LIG    1        6.316   0.367   0.277  0.00  0.00    -0.393 OA
ATOM     19  H   LIG    1        5.424   0.756   0.185  0.00  0.00    +0.209 HD
ENDBRANCH  17  18
ENDBRANCH   2  17
TORSDOF 8
