REMARK  Name = *****
REMARK                            x       y       z     vdW  Elec       q    Type
REMARK                         _______ _______ _______ _____ _____    ______ ____
ROOT
ATOM      1  N   LIG    1        6.018  -2.197   2.117  0.00  0.00    -0.236 NA
ATOM      2  H   LIG    1        5.627  -2.973   1.558  0.00  0.00    +0.145 HD
ENDROOT
BRANCH   1   4
ATOM      3  C   LIG    1        6.090  -1.309  -0.145  0.00  0.00    +0.246 C 
ATOM      4  N   LIG    1        6.360  -1.151   1.206  0.00  0.00    -0.249 N 
ATOM      5  H   LIG    1        6.484  -0.216   1.596  0.00  0.00    +0.169 HD
ATOM      6  O   LIG    1        5.589  -2.348  -0.605  0.00  0.00    -0.273 OA
BRANCH   3   7
ATOM      7  CA  LIG    1        6.415  -0.094  -1.036  0.00  0.00    +0.165 C 
BRANCH   7   8
ATOM      8  N   LIG    1        6.019  -0.362  -2.454  0.00  0.00    -0.318 NA
ATOM      9  H1  LIG    1        6.498  -1.221  -2.745  0.00  0.00    +0.119 HD
ATOM     10  H2  LIG    1        5.035  -0.651  -2.439  0.00  0.00    +0.119 HD
ENDBRANCH   7   8
BRANCH   7  11
ATOM     11  C   LIG    1        7.905   0.276  -1.032  0.00  0.00    +0.183 C 
BRANCH  11  12
ATOM     12  O   LIG    1        8.126   1.363  -1.938  0.00  0.00    -0.393 OA
ATOM     13  H   LIG    1        7.516   1.193  -2.688  0.00  0.00    +0.209 HD
ENDBRANCH  11  12
ENDBRANCH   7  11
ENDBRANCH   3   7
ENDBRANCH   1   4
BRANCH   1  14
ATOM     14  C   LIG    1        7.223  -2.715   2.794  0.00  0.00    +0.140 C 
BRANCH  14  15
ATOM     15  C   LIG    1        6.910  -3.834   3.764  0.00  0.00    +0.013 A 
ATOM     16  C   LIG    1        7.484  -5.102   3.632  0.00  0.00    +0.167 A 
ATOM     17  C   LIG    1        7.184  -6.121   4.535  0.00  0.00    +0.201 A 
ATOM     18  C   LIG    1        6.308  -5.899   5.589  0.00  0.00    +0.162 A 
ATOM     19  C   LIG    1        5.738  -4.645   5.763  0.00  0.00    +0.050 A 
ATOM     20  C   LIG    1        6.049  -3.616   4.859  0.00  0.00    +0.012 A 
BRANCH  16  21
ATOM     21  O   LIG    1        8.364  -5.371   2.619  0.00  0.00    -0.503 OA
ATOM     22  H   LIG    1        8.622  -6.305   2.760  0.00  0.00    +0.292 HD
ENDBRANCH  16  21
BRANCH  17  23
ATOM     23  O   LIG    1        7.775  -7.347   4.372  0.00  0.00    -0.501 OA
ATOM     24  H   LIG    1        7.424  -7.881   5.115  0.00  0.00    +0.292 HD
ENDBRANCH  17  23
BRANCH  18  25
ATOM     25  O   LIG    1        6.048  -6.943   6.432  0.00  0.00    -0.503 OA
ATOM     26  H   LIG    1        5.427  -6.635   7.115  0.00  0.00    +0.292 HD
ENDBRANCH  18  25
ENDBRANCH  14  15
ENDBRANCH   1  14
TORSDOF 10
