REMARK  Name = *****
REMARK                            x       y       z     vdW  Elec       q    Type
REMARK                         _______ _______ _______ _____ _____    ______ ____
ROOT
ATOM      1  C   LIG    1        9.796  -3.075  -4.383  0.00  0.00    +0.221 A 
ATOM      2  N   LIG    1        9.073  -1.949  -4.316  0.00  0.00    -0.211 NA
ATOM      3  C   LIG    1        9.444  -0.877  -5.065  0.00  0.00    +0.111 A 
ATOM      4  C   LIG    1       10.567  -0.931  -5.856  0.00  0.00    +0.167 A 
ATOM      5  F   LIG    1       11.004   0.115  -6.579  0.00  0.00    -0.202 F 
ATOM      6  C   LIG    1       11.255  -2.112  -5.868  0.00  0.00    +0.155 A 
ATOM      7  N   LIG    1       10.882  -3.203  -5.157  0.00  0.00    -0.220 NA
ENDROOT
BRANCH   3   8
ATOM      8  C   LIG    1        8.559   0.301  -4.943  0.00  0.00    +0.008 A 
ATOM      9  C   LIG    1        8.377   1.203  -6.009  0.00  0.00    +0.050 A 
ATOM     10  C   LIG    1        7.527   2.303  -5.889  0.00  0.00    +0.151 A 
ATOM     11  F   LIG    1        7.389   3.125  -6.941  0.00  0.00    -0.203 F 
ATOM     12  C   LIG    1        6.834   2.535  -4.694  0.00  0.00    +0.124 A 
ATOM     13  N   LIG    1        5.962   3.531  -4.358  0.00  0.00    -0.230 NA
ATOM     14  C   LIG    1        5.575   3.288  -3.123  0.00  0.00    +0.108 A 
ATOM     15  N   LIG    1        6.181   2.140  -2.629  0.00  0.00    -0.325 N 
ATOM     16  C   LIG    1        4.605   4.159  -2.409  0.00  0.00    +0.086 C 
ATOM     17  C   LIG    1        7.001   1.651  -3.634  0.00  0.00    +0.072 A 
ATOM     18  C   LIG    1        7.854   0.539  -3.742  0.00  0.00    +0.038 A 
BRANCH  15  19
ATOM     19  C   LIG    1        5.958   1.516  -1.322  0.00  0.00    +0.083 C 
ATOM     20  C   LIG    1        7.192   1.537  -0.410  0.00  0.00    +0.030 C 
ATOM     21  C   LIG    1        5.434   0.079  -1.439  0.00  0.00    +0.030 C 
ENDBRANCH  15  19
ENDBRANCH   3   8
BRANCH   1  22
ATOM     22  N   LIG    1        9.421  -4.192  -3.635  0.00  0.00    -0.269 N 
ATOM     23  H   LIG    1        9.758  -5.048  -4.045  0.00  0.00    +0.156 HD
BRANCH  22  27
ATOM     24  C   LIG    1        6.010  -4.836  -1.325  0.00  0.00    -0.015 A 
ATOM     25  C   LIG    1        6.708  -5.839  -1.984  0.00  0.00    +0.117 A 
ATOM     26  N   LIG    1        7.838  -5.641  -2.710  0.00  0.00    -0.240 NA
ATOM     27  C   LIG    1        8.319  -4.379  -2.813  0.00  0.00    +0.125 A 
ATOM     28  C   LIG    1        7.726  -3.339  -2.107  0.00  0.00    +0.044 A 
ATOM     29  C   LIG    1        6.565  -3.561  -1.376  0.00  0.00    +0.010 A 
BRANCH  24  30
ATOM     30  C   LIG    1        4.711  -5.074  -0.594  0.00  0.00    +0.121 C 
BRANCH  30  34
ATOM     31  N   LIG    1        1.358  -3.398  -0.896  0.00  0.00    -0.300 NA
ATOM     32  C   LIG    1        1.744  -4.482   0.031  0.00  0.00    +0.100 C 
ATOM     33  C   LIG    1        2.356  -5.712  -0.684  0.00  0.00    +0.100 C 
ATOM     34  N   LIG    1        3.573  -5.402  -1.476  0.00  0.00    -0.296 NA
ATOM     35  C   LIG    1        3.240  -4.287  -2.397  0.00  0.00    +0.100 C 
ATOM     36  C   LIG    1        2.533  -3.069  -1.740  0.00  0.00    +0.100 C 
BRANCH  31  38
ATOM     37  C   LIG    1       -1.063  -4.085  -0.952  0.00  0.00    +0.020 C 
ATOM     38  C   LIG    1        0.199  -3.746  -1.741  0.00  0.00    +0.081 C 
ENDBRANCH  31  38
ENDBRANCH  30  34
ENDBRANCH  24  30
ENDBRANCH  22  27
ENDBRANCH   1  22
TORSDOF 7
