REMARK  Name = *****
REMARK                            x       y       z     vdW  Elec       q    Type
REMARK                         _______ _______ _______ _____ _____    ______ ____
ROOT
ATOM      1  N   LIG    1        4.505  -1.601   0.693  0.00  0.00    -0.311 N 
ATOM      2  C   LIG    1        3.140  -1.857   0.165  0.00  0.00    +0.125 C 
ATOM      3  C   LIG    1        3.036  -3.284  -0.422  0.00  0.00    +0.127 C 
ATOM      4  N   LIG    1        3.447  -4.309   0.544  0.00  0.00    -0.293 N 
ATOM      5  C   LIG    1        2.557  -5.072   1.312  0.00  0.00    +0.263 C 
ATOM      6  O   LIG    1        2.886  -5.541   2.401  0.00  0.00    -0.268 OA
ATOM      7  C   LIG    1        4.812  -4.069   1.031  0.00  0.00    +0.127 C 
ATOM      8  C   LIG    1        4.927  -2.665   1.660  0.00  0.00    +0.125 C 
ENDROOT
BRANCH   5   9
ATOM      9  C   LIG    1        1.217  -5.306   0.787  0.00  0.00    +0.103 C 
ATOM     10  N   LIG    1        0.120  -5.550   1.593  0.00  0.00    -0.351 NA
ATOM     11  H   LIG    1        0.157  -5.573   2.604  0.00  0.00    +0.166 HD
ATOM     12  C   LIG    1       -1.028  -5.688   0.839  0.00  0.00    +0.047 C 
ATOM     13  C   LIG    1       -0.655  -5.539  -0.494  0.00  0.00    +0.002 C 
ATOM     14  C   LIG    1       -1.640  -5.553  -1.499  0.00  0.00    +0.034 C 
ATOM     15  C   LIG    1       -2.974  -5.739  -1.133  0.00  0.00    +0.048 C 
ATOM     16  C   LIG    1       -3.323  -5.946   0.201  0.00  0.00    +0.026 C 
ATOM     17  C   LIG    1       -2.356  -5.927   1.216  0.00  0.00    +0.028 C 
ATOM     18  C   LIG    1        0.753  -5.401  -0.515  0.00  0.00    +0.041 C 
BRANCH  15  19
ATOM     19  N   LIG    1       -3.993  -5.646  -2.130  0.00  0.00    -0.221 NA
ATOM     20  H   LIG    1       -3.736  -6.044  -3.037  0.00  0.00    +0.173 HD
BRANCH  19  21
ATOM     21  S   LIG    1       -4.670  -4.115  -2.413  0.00  0.00    +0.040 S 
ATOM     22  O   LIG    1       -5.221  -4.172  -3.742  0.00  0.00    -0.155 OA
ATOM     23  O   LIG    1       -3.724  -3.074  -2.039  0.00  0.00    -0.155 OA
ATOM     24  C   LIG    1       -6.026  -4.108  -1.262  0.00  0.00    +0.218 C 
ENDBRANCH  19  21
ENDBRANCH  15  19
ENDBRANCH   5   9
BRANCH   1  26
ATOM     25  C   LIG    1        4.798   0.870   0.605  0.00  0.00    +0.068 A 
ATOM     26  C   LIG    1        4.527  -0.323   1.347  0.00  0.00    +0.142 A 
ATOM     27  N   LIG    1        4.344  -0.303   2.695  0.00  0.00    -0.238 NA
ATOM     28  C   LIG    1        4.428   0.872   3.346  0.00  0.00    +0.113 A 
ATOM     29  C   LIG    1        4.690   2.070   2.724  0.00  0.00    +0.022 A 
ATOM     30  C   LIG    1        4.864   2.063   1.344  0.00  0.00    +0.028 A 
BRANCH  25  31
ATOM     31  N   LIG    1        4.925   0.853  -0.800  0.00  0.00    -0.339 N 
ATOM     32  H   LIG    1        5.448   0.016  -1.065  0.00  0.00    +0.146 HD
BRANCH  31  34
ATOM     33  C   LIG    1        6.752   2.249  -1.685  0.00  0.00    +0.027 C 
ATOM     34  C   LIG    1        5.242   2.061  -1.572  0.00  0.00    +0.064 C 
ATOM     35  C   LIG    1        4.633   1.971  -2.971  0.00  0.00    +0.027 C 
ENDBRANCH  31  34
ENDBRANCH  25  31
ENDBRANCH   1  26
TORSDOF 6
