REMARK  Name = *****
REMARK                            x       y       z     vdW  Elec       q    Type
REMARK                         _______ _______ _______ _____ _____    ______ ____
ROOT
ATOM      1  O   LIG    1        1.120 -13.495 -25.048  0.00  0.00    -0.340 OA
ENDROOT
BRANCH   1   3
ATOM      2  C   LIG    1        1.883 -11.143 -24.230  0.00  0.00    +0.178 C 
ATOM      3  C   LIG    1        0.789 -12.161 -24.630  0.00  0.00    +0.184 C 
ATOM      4  C   LIG    1       -0.542 -11.833 -23.927  0.00  0.00    +0.183 C 
ATOM      5  C   LIG    1       -1.022 -10.474 -24.401  0.00  0.00    +0.205 C 
ATOM      6  C   LIG    1        0.122  -9.449 -23.909  0.00  0.00    +0.282 C 
ATOM      7  O   LIG    1        1.345 -10.069 -23.444  0.00  0.00    -0.341 OA
BRANCH   4   8
ATOM      8  O   LIG    1       -0.363 -11.697 -22.516  0.00  0.00    -0.369 OA
BRANCH   8   9
ATOM      9  C   LIG    1       -1.366 -11.835 -21.526  0.00  0.00    +0.191 C 
BRANCH   9  10
ATOM     10  C   LIG    1       -2.595 -10.980 -21.156  0.00  0.00    +0.137 C 
ATOM     11  C   LIG    1       -2.606  -9.482 -21.189  0.00  0.00    +0.040 C 
BRANCH  10  12
ATOM     12  O   LIG    1       -3.220 -11.459 -19.955  0.00  0.00    -0.390 OA
ATOM     13  H   LIG    1       -4.175 -11.589 -20.189  0.00  0.00    +0.210 HD
ENDBRANCH  10  12
ENDBRANCH   9  10
ENDBRANCH   8   9
ENDBRANCH   4   8
BRANCH   6  14
ATOM     14  O   LIG    1        0.453  -8.467 -24.903  0.00  0.00    -0.346 OA
BRANCH  14  15
ATOM     15  C   LIG    1        1.472  -7.537 -24.467  0.00  0.00    +0.194 C 
BRANCH  15  16
ATOM     16  C   LIG    1        1.077  -6.612 -23.289  0.00  0.00    +0.137 C 
ATOM     17  C   LIG    1        2.171  -5.584 -23.002  0.00  0.00    +0.040 C 
BRANCH  16  18
ATOM     18  O   LIG    1        0.832  -7.347 -22.092  0.00  0.00    -0.390 OA
ATOM     19  H   LIG    1        1.570  -7.217 -21.459  0.00  0.00    +0.210 HD
ENDBRANCH  16  18
ENDBRANCH  15  16
ENDBRANCH  14  15
ENDBRANCH   6  14
BRANCH   2  20
ATOM     20  C   LIG    1        3.167 -11.607 -23.530  0.00  0.00    +0.194 C 
BRANCH  20  21
ATOM     21  O   LIG    1        3.852 -12.686 -24.164  0.00  0.00    -0.375 OA
BRANCH  21  22
ATOM     22  C   LIG    1        4.161 -12.440 -25.547  0.00  0.00    +0.190 C 
BRANCH  22  24
ATOM     23  C   LIG    1        6.351 -13.455 -25.435  0.00  0.00    +0.040 C 
ATOM     24  C   LIG    1        5.053 -13.515 -26.187  0.00  0.00    +0.137 C 
BRANCH  24  25
ATOM     25  O   LIG    1        5.309 -13.327 -27.557  0.00  0.00    -0.390 OA
ATOM     26  H   LIG    1        4.714 -13.973 -28.013  0.00  0.00    +0.210 HD
ENDBRANCH  24  25
ENDBRANCH  22  24
ENDBRANCH  21  22
ENDBRANCH  20  21
ENDBRANCH   2  20
BRANCH   5  27
ATOM     27  O   LIG    1       -2.358 -10.271 -23.854  0.00  0.00    -0.366 OA
BRANCH  27  28
ATOM     28  C   LIG    1       -3.482 -11.158 -24.253  0.00  0.00    +0.191 C 
BRANCH  28  29
ATOM     29  C   LIG    1       -3.578 -12.679 -23.689  0.00  0.00    +0.137 C 
ATOM     30  C   LIG    1       -4.337 -13.740 -24.445  0.00  0.00    +0.040 C 
BRANCH  29  31
ATOM     31  O   LIG    1       -4.184 -12.837 -22.386  0.00  0.00    -0.390 OA
ATOM     32  H   LIG    1       -3.626 -13.498 -21.901  0.00  0.00    +0.210 HD
ENDBRANCH  29  31
ENDBRANCH  28  29
ENDBRANCH  27  28
ENDBRANCH   5  27
ENDBRANCH   1   3
BRANCH   1  33
ATOM     33  C   LIG    1        1.067 -14.744 -24.326  0.00  0.00    +0.282 C 
ATOM     34  C   LIG    1        2.030 -14.813 -23.110  0.00  0.00    +0.205 C 
ATOM     35  C   LIG    1        3.254 -15.774 -23.296  0.00  0.00    +0.183 C 
ATOM     36  C   LIG    1        2.848 -17.138 -23.839  0.00  0.00    +0.181 C 
ATOM     37  C   LIG    1        1.704 -17.073 -24.887  0.00  0.00    +0.178 C 
ATOM     38  O   LIG    1        1.412 -15.728 -25.324  0.00  0.00    -0.341 OA
BRANCH  34  39
ATOM     39  O   LIG    1        1.365 -15.178 -21.843  0.00  0.00    -0.366 OA
BRANCH  39  40
ATOM     40  C   LIG    1        0.376 -14.223 -21.422  0.00  0.00    +0.191 C 
BRANCH  40  41
ATOM     41  C   LIG    1       -0.338 -14.470 -20.034  0.00  0.00    +0.137 C 
ATOM     42  C   LIG    1       -0.738 -15.914 -19.915  0.00  0.00    +0.040 C 
BRANCH  41  43
ATOM     43  O   LIG    1       -1.623 -13.796 -19.845  0.00  0.00    -0.390 OA
ATOM     44  H   LIG    1       -1.618 -13.228 -19.151  0.00  0.00    +0.210 HD
ENDBRANCH  41  43
ENDBRANCH  40  41
ENDBRANCH  39  40
ENDBRANCH  34  39
BRANCH  37  45
ATOM     45  C   LIG    1        2.102 -17.822 -26.213  0.00  0.00    +0.194 C 
BRANCH  45  46
ATOM     46  O   LIG    1        2.516 -19.187 -26.057  0.00  0.00    -0.375 OA
BRANCH  46  47
ATOM     47  C   LIG    1        3.939 -19.393 -25.995  0.00  0.00    +0.190 C 
BRANCH  47  48
ATOM     48  C   LIG    1        4.280 -20.887 -25.916  0.00  0.00    +0.137 C 
ATOM     49  C   LIG    1        5.754 -21.142 -25.581  0.00  0.00    +0.040 C 
BRANCH  48  50
ATOM     50  O   LIG    1        3.987 -21.523 -27.158  0.00  0.00    -0.390 OA
ATOM     51  H   LIG    1        3.880 -22.467 -26.961  0.00  0.00    +0.210 HD
ENDBRANCH  48  50
ENDBRANCH  47  48
ENDBRANCH  46  47
ENDBRANCH  45  46
ENDBRANCH  37  45
BRANCH  35  52
ATOM     52  O   LIG    1        4.314 -15.296 -24.151  0.00  0.00    -0.369 OA
BRANCH  52  53
ATOM     53  C   LIG    1        5.646 -15.886 -24.048  0.00  0.00    +0.191 C 
BRANCH  53  54
ATOM     54  C   LIG    1        6.542 -15.135 -23.012  0.00  0.00    +0.137 C 
ATOM     55  C   LIG    1        7.932 -15.704 -22.860  0.00  0.00    +0.040 C 
BRANCH  54  56
ATOM     56  O   LIG    1        5.802 -15.001 -21.810  0.00  0.00    -0.390 OA
ATOM     57  H   LIG    1        5.090 -14.375 -22.078  0.00  0.00    +0.210 HD
ENDBRANCH  54  56
ENDBRANCH  53  54
ENDBRANCH  52  53
ENDBRANCH  35  52
BRANCH  36  58
ATOM     58  O   LIG    1        2.703 -18.175 -22.837  0.00  0.00    -0.369 OA
BRANCH  58  59
ATOM     59  C   LIG    1        3.770 -18.199 -21.850  0.00  0.00    +0.191 C 
BRANCH  59  60
ATOM     60  C   LIG    1        3.992 -19.590 -21.231  0.00  0.00    +0.137 C 
ATOM     61  C   LIG    1        4.458 -20.643 -22.223  0.00  0.00    +0.040 C 
BRANCH  60  62
ATOM     62  O   LIG    1        2.787 -20.046 -20.626  0.00  0.00    -0.390 OA
ATOM     63  H   LIG    1        2.154 -20.180 -21.356  0.00  0.00    +0.210 HD
ENDBRANCH  60  62
ENDBRANCH  59  60
ENDBRANCH  58  59
ENDBRANCH  36  58
ENDBRANCH   1  33
TORSDOF 36
