REMARK  Name = *****
REMARK                            x       y       z     vdW  Elec       q    Type
REMARK                         _______ _______ _______ _____ _____    ______ ____
ROOT
ATOM      1  C   LIG    1        5.077  -2.364  -1.513  0.00  0.00    +0.248 C 
ATOM      2  N   LIG    1        3.744  -2.492  -1.111  0.00  0.00    -0.308 N 
ATOM      3  H   LIG    1        3.190  -3.296  -1.450  0.00  0.00    +0.149 HD
ATOM      4  O   LIG    1        5.793  -1.469  -1.108  0.00  0.00    -0.270 OA
ENDROOT
BRANCH   1   6
ATOM      5  C   LIG    1        4.943  -4.479  -3.073  0.00  0.00    +0.135 A 
ATOM      6  C   LIG    1        5.639  -3.425  -2.431  0.00  0.00    +0.085 A 
ATOM      7  C   LIG    1        7.025  -3.315  -2.670  0.00  0.00    +0.103 A 
ATOM      8  C   LIG    1        7.704  -4.239  -3.481  0.00  0.00    +0.294 A 
ATOM      9  C   LIG    1        7.059  -5.353  -4.021  0.00  0.00    +0.106 A 
ATOM     10  C   LIG    1        5.679  -5.428  -3.817  0.00  0.00    +0.076 A 
BRANCH   8  11
ATOM     11  N   LIG    1        9.128  -4.056  -3.694  0.00  0.00    +0.082 N 
ATOM     12  O   LIG    1        9.846  -4.029  -2.685  0.00  0.00    -0.576 OA
ATOM     13  O   LIG    1        9.530  -3.968  -4.862  0.00  0.00    +0.042 OA
ENDBRANCH   8  11
BRANCH   9  14
ATOM     14  N   LIG    1        7.626  -6.264  -4.916  0.00  0.00    -0.353 N 
ATOM     15  H   LIG    1        8.635  -6.390  -4.870  0.00  0.00    +0.142 HD
ATOM     16  H   LIG    1        7.129  -7.141  -5.035  0.00  0.00    +0.142 HD
ENDBRANCH   9  14
BRANCH   5  17
ATOM     17  O   LIG    1        3.576  -4.613  -2.965  0.00  0.00    -0.491 OA
BRANCH  17  19
ATOM     18  C   LIG    1        2.177  -6.417  -3.894  0.00  0.00    +0.048 C 
ATOM     19  C   LIG    1        2.919  -5.112  -4.154  0.00  0.00    +0.226 C 
ENDBRANCH  17  19
ENDBRANCH   5  17
ENDBRANCH   1   6
BRANCH   2  20
ATOM     20  C   LIG    1        3.142  -1.561  -0.140  0.00  0.00    +0.076 C 
ATOM     21  C   LIG    1        1.632  -1.733   0.033  0.00  0.00    +0.037 C 
ATOM     22  C   LIG    1        1.243  -2.960   0.878  0.00  0.00    +0.086 C 
ATOM     23  N   LIG    1        2.011  -3.191   2.125  0.00  0.00    -0.302 NA
ATOM     24  C   LIG    1        3.454  -2.978   1.923  0.00  0.00    +0.086 C 
ATOM     25  C   LIG    1        3.783  -1.649   1.246  0.00  0.00    +0.037 C 
BRANCH  23  26
ATOM     26  C   LIG    1        1.741  -4.577   2.620  0.00  0.00    +0.088 C 
BRANCH  26  27
ATOM     27  C   LIG    1        2.358  -5.007   3.990  0.00  0.00    +0.007 C 
ATOM     28  C   LIG    1        2.215  -6.530   4.227  0.00  0.00    +0.009 C 
ATOM     29  C   LIG    1        0.772  -6.983   4.486  0.00  0.00    +0.027 C 
ATOM     30  C   LIG    1       -0.018  -6.018   5.317  0.00  0.00    -0.031 C 
ATOM     31  C   LIG    1        0.440  -4.805   5.662  0.00  0.00    -0.031 C 
ATOM     32  C   LIG    1        1.783  -4.285   5.225  0.00  0.00    +0.031 C 
ENDBRANCH  26  27
ENDBRANCH  23  26
ENDBRANCH   2  20
TORSDOF 8
