REMARK  Name = *****
REMARK                            x       y       z     vdW  Elec       q    Type
REMARK                         _______ _______ _______ _____ _____    ______ ____
ROOT
ATOM      1  C   LIG    1        9.480  -5.572   5.165  0.00  0.00    +0.008 C 
ATOM      2  C   LIG    1       10.124  -6.635   4.631  0.00  0.00    +0.056 C 
ATOM      3 CL   LIG    1       10.924  -7.826   5.634  0.00  0.00    -0.082 Cl
ENDROOT
BRANCH   1   7
ATOM      4  C   LIG    1        7.253  -2.832   2.716  0.00  0.00    +0.121 A 
ATOM      5  C   LIG    1        6.634  -3.944   3.284  0.00  0.00    +0.046 A 
ATOM      6  C   LIG    1        7.371  -4.838   4.065  0.00  0.00    +0.012 A 
ATOM      7  C   LIG    1        8.737  -4.635   4.285  0.00  0.00    -0.016 A 
ATOM      8  C   LIG    1        9.361  -3.521   3.719  0.00  0.00    +0.012 A 
ATOM      9  C   LIG    1        8.621  -2.632   2.928  0.00  0.00    +0.046 A 
BRANCH   4  10
ATOM     10  O   LIG    1        6.640  -1.919   1.903  0.00  0.00    -0.491 OA
BRANCH  10  11
ATOM     11  C   LIG    1        5.230  -1.691   2.075  0.00  0.00    +0.244 C 
BRANCH  11  12
ATOM     12  C   LIG    1        5.011  -0.580   3.121  0.00  0.00    +0.125 C 
BRANCH  12  13
ATOM     13  N   LIG    1        3.629  -0.152   3.438  0.00  0.00    -0.300 NA
BRANCH  13  15
ATOM     14  C   LIG    1        3.578   1.456   1.480  0.00  0.00    +0.020 C 
ATOM     15  C   LIG    1        2.876   0.359   2.282  0.00  0.00    +0.081 C 
ENDBRANCH  13  15
BRANCH  13  16
ATOM     16  C   LIG    1        2.901  -1.203   4.174  0.00  0.00    +0.081 C 
ATOM     17  C   LIG    1        1.596  -0.739   4.822  0.00  0.00    +0.020 C 
ENDBRANCH  13  16
ENDBRANCH  12  13
ENDBRANCH  11  12
ENDBRANCH  10  11
ENDBRANCH   4  10
ENDBRANCH   1   7
BRANCH   1  18
ATOM     18  C   LIG    1        9.474  -5.324   6.641  0.00  0.00    -0.016 A 
ATOM     19  C   LIG    1       10.437  -4.485   7.221  0.00  0.00    +0.008 A 
ATOM     20  C   LIG    1       10.408  -4.208   8.592  0.00  0.00    +0.001 A 
ATOM     21  C   LIG    1        9.412  -4.760   9.395  0.00  0.00    +0.000 A 
ATOM     22  C   LIG    1        8.443  -5.586   8.828  0.00  0.00    +0.001 A 
ATOM     23  C   LIG    1        8.474  -5.869   7.458  0.00  0.00    +0.008 A 
ENDBRANCH   1  18
BRANCH   2  24
ATOM     24  C   LIG    1       10.265  -6.947   3.183  0.00  0.00    -0.006 A 
ATOM     25  C   LIG    1       11.410  -6.530   2.485  0.00  0.00    +0.009 A 
ATOM     26  C   LIG    1       11.597  -6.874   1.140  0.00  0.00    +0.001 A 
ATOM     27  C   LIG    1       10.647  -7.649   0.479  0.00  0.00    +0.000 A 
ATOM     28  C   LIG    1        9.509  -8.077   1.162  0.00  0.00    +0.001 A 
ATOM     29  C   LIG    1        9.316  -7.724   2.505  0.00  0.00    +0.009 A 
ENDBRANCH   2  24
TORSDOF 9
