REMARK  Name = *****
REMARK                            x       y       z     vdW  Elec       q    Type
REMARK                         _______ _______ _______ _____ _____    ______ ____
ROOT
ATOM      1  C   LIG    1        2.205   0.547  -1.092  0.00  0.00    +0.111 C 
ENDROOT
BRANCH   1   3
ATOM      2  O   LIG    1        0.906   0.051  -3.080  0.00  0.00    -0.251 OA
ATOM      3  C   LIG    1        1.951  -0.059  -2.468  0.00  0.00    +0.309 C 
BRANCH   3   4
ATOM      4  O   LIG    1        3.006  -0.736  -2.980  0.00  0.00    -0.480 OA
ATOM      5  H   LIG    1        3.632  -1.039  -2.280  0.00  0.00    +0.295 HD
ENDBRANCH   3   4
ENDBRANCH   1   3
BRANCH   1   6
ATOM      6  C   LIG    1        1.763  -0.408   0.026  0.00  0.00    +0.110 C 
BRANCH   6   7
ATOM      7  C   LIG    1        2.518  -1.720   0.030  0.00  0.00    +0.216 C 
ATOM      8  N   LIG    1        2.194  -2.618   1.021  0.00  0.00    -0.301 N 
ATOM      9  C   LIG    1        1.303  -2.413   2.155  0.00  0.00    +0.111 C 
ATOM     10  C   LIG    1        1.844  -3.381   3.208  0.00  0.00    +0.011 C 
ATOM     11  C   LIG    1        2.322  -4.579   2.369  0.00  0.00    +0.011 C 
ATOM     12  C   LIG    1        1.221  -5.603   2.066  0.00  0.00    +0.005 C 
ATOM     13  C   LIG    1        0.425  -5.966   3.314  0.00  0.00    +0.000 C 
ATOM     14  C   LIG    1       -0.207  -4.722   3.924  0.00  0.00    +0.000 C 
ATOM     15  C   LIG    1        0.859  -3.709   4.325  0.00  0.00    +0.005 C 
ATOM     16  C   LIG    1        2.852  -3.914   1.092  0.00  0.00    +0.111 C 
ATOM     17  O   LIG    1        3.396  -1.950  -0.805  0.00  0.00    -0.276 OA
ENDBRANCH   6   7
ENDBRANCH   1   6
BRANCH   1  18
ATOM     18  C   LIG    1        1.433   1.886  -1.022  0.00  0.00    +0.050 C 
BRANCH  18  19
ATOM     19  C   LIG    1        1.626   2.663   0.261  0.00  0.00    -0.047 A 
ATOM     20  C   LIG    1        2.651   3.609   0.377  0.00  0.00    +0.003 A 
ATOM     21  C   LIG    1        2.827   4.319   1.568  0.00  0.00    +0.000 A 
ATOM     22  C   LIG    1        1.988   4.084   2.656  0.00  0.00    +0.000 A 
ATOM     23  C   LIG    1        0.966   3.144   2.554  0.00  0.00    +0.000 A 
ATOM     24  C   LIG    1        0.780   2.444   1.361  0.00  0.00    +0.003 A 
ENDBRANCH  18  19
ENDBRANCH   1  18
TORSDOF 6
