REMARK  Name = *****
REMARK                            x       y       z     vdW  Elec       q    Type
REMARK                         _______ _______ _______ _____ _____    ______ ____
ROOT
ATOM      1  N   LIG    1        6.411  -0.753  -5.717  0.00  0.00    -0.287 NA
ATOM      2  C   LIG    1        6.096  -0.285  -7.074  0.00  0.00    +0.108 C 
ATOM      3  C   LIG    1        6.221  -1.391  -8.149  0.00  0.00    +0.039 C 
ATOM      4  C   LIG    1        5.785  -0.836  -9.516  0.00  0.00    +0.030 C 
ATOM      5  C   LIG    1        5.274  -2.524  -7.733  0.00  0.00    +0.108 C 
ATOM      6  N   LIG    1        5.502  -2.997  -6.373  0.00  0.00    -0.287 NA
ATOM      7  C   LIG    1        5.652  -1.970  -5.341  0.00  0.00    +0.171 C 
ENDROOT
BRANCH   3   8
ATOM      8  N   LIG    1        7.602  -1.915  -8.280  0.00  0.00    -0.323 NA
ATOM      9  H   LIG    1        8.259  -1.164  -8.174  0.00  0.00    +0.119 HD
ATOM     10  H   LIG    1        7.749  -2.504  -7.442  0.00  0.00    +0.119 HD
ENDBRANCH   3   8
BRANCH   1  11
ATOM     11  C   LIG    1        6.153   0.316  -4.699  0.00  0.00    +0.089 C 
BRANCH  11  12
ATOM     12  C   LIG    1        6.729   1.771  -4.885  0.00  0.00    +0.003 C 
BRANCH  12  13
ATOM     13  C   LIG    1        8.271   1.851  -4.975  0.00  0.00    +0.001 C 
ATOM     14  C   LIG    1        8.933   1.195  -6.171  0.00  0.00    +0.004 C 
ENDBRANCH  12  13
BRANCH  12  15
ATOM     15  C   LIG    1        6.256   2.681  -3.688  0.00  0.00    +0.005 C 
BRANCH  15  16
ATOM     16  C   LIG    1        6.531   4.189  -3.882  0.00  0.00    +0.000 C 
BRANCH  16  18
ATOM     17  C   LIG    1        6.773   4.816  -1.410  0.00  0.00    +0.004 C 
ATOM     18  C   LIG    1        6.059   5.085  -2.727  0.00  0.00    -0.003 C 
ENDBRANCH  16  18
ENDBRANCH  15  16
ENDBRANCH  12  15
ENDBRANCH  11  12
ENDBRANCH   1  11
BRANCH   6  19
ATOM     19  C   LIG    1        4.538  -4.067  -6.009  0.00  0.00    +0.089 C 
BRANCH  19  20
ATOM     20  C   LIG    1        3.047  -3.726  -5.637  0.00  0.00    +0.003 C 
BRANCH  20  21
ATOM     21  C   LIG    1        2.324  -5.006  -5.129  0.00  0.00    +0.001 C 
ATOM     22  C   LIG    1        0.987  -4.747  -4.432  0.00  0.00    +0.004 C 
ENDBRANCH  20  21
BRANCH  20  23
ATOM     23  C   LIG    1        2.202  -2.999  -6.716  0.00  0.00    +0.005 C 
BRANCH  23  24
ATOM     24  C   LIG    1        2.001  -3.732  -8.054  0.00  0.00    +0.000 C 
BRANCH  24  25
ATOM     25  C   LIG    1        1.190  -2.918  -9.076  0.00  0.00    -0.003 C 
ATOM     26  C   LIG    1       -0.230  -2.612  -8.620  0.00  0.00    +0.004 C 
ENDBRANCH  24  25
ENDBRANCH  23  24
ENDBRANCH  20  23
ENDBRANCH  19  20
ENDBRANCH   6  19
TORSDOF 13
