REMARK  Name = *****
REMARK                            x       y       z     vdW  Elec       q    Type
REMARK                         _______ _______ _______ _____ _____    ______ ____
ROOT
ATOM      1  C   LIG    1        0.803   0.998   1.323  0.00  0.00    +0.084 C 
ATOM      2  C   LIG    1        0.487   0.736   2.602  0.00  0.00    +0.128 C 
ATOM      3 CL   LIG    1        1.623   0.727   3.897  0.00  0.00    -0.076 Cl
ATOM      4  C   LIG    1       -0.934   0.432   2.943  0.00  0.00    +0.273 C 
ATOM      5  O   LIG    1       -1.306   0.178   4.084  0.00  0.00    -0.266 OA
ATOM      6  N   LIG    1       -1.821   0.456   1.900  0.00  0.00    -0.274 N 
ATOM      7  H   LIG    1       -2.788   0.259   2.108  0.00  0.00    +0.173 HD
ATOM      8  C   LIG    1       -1.504   0.705   0.597  0.00  0.00    +0.327 C 
ATOM      9  O   LIG    1       -2.353   0.687  -0.290  0.00  0.00    -0.247 OA
ATOM     10  N   LIG    1       -0.189   0.974   0.357  0.00  0.00    -0.307 N 
ATOM     11  H   LIG    1        0.083   1.144  -0.619  0.00  0.00    +0.170 HD
ENDROOT
BRANCH   1  12
ATOM     12  C   LIG    1        2.193   1.339   0.826  0.00  0.00    +0.280 C 
BRANCH  12  16
ATOM     13  N   LIG    1        1.488   1.243  -2.055  0.00  0.00    -0.104 NA
ATOM     14  H   LIG    1        1.453   1.064  -3.066  0.00  0.00    +0.363 HD
ATOM     15  C   LIG    1        2.305   0.421  -1.495  0.00  0.00    +0.281 C 
ATOM     16  N   LIG    1        2.602   0.368  -0.165  0.00  0.00    -0.219 N 
ATOM     17  C   LIG    1        3.519  -0.707   0.153  0.00  0.00    +0.226 C 
ATOM     18  C   LIG    1        3.403  -1.602  -1.087  0.00  0.00    +0.056 C 
ATOM     19  C   LIG    1        3.067  -0.647  -2.235  0.00  0.00    +0.131 C 
ENDBRANCH  12  16
ENDBRANCH   1  12
TORSDOF 2
