REMARK  Name = *****
REMARK                            x       y       z     vdW  Elec       q    Type
REMARK                         _______ _______ _______ _____ _____    ______ ____
ROOT
ATOM      1  N   LIG    1       -1.403   0.754   0.566  0.00  0.00    -0.298 N 
ATOM      2  C   LIG    1       -1.551   1.322   1.872  0.00  0.00    +0.049 A 
ATOM      3  C   LIG    1       -2.559   2.253   2.172  0.00  0.00    +0.034 A 
ATOM      4  C   LIG    1       -2.715   2.771   3.476  0.00  0.00    +0.018 A 
ATOM      5  C   LIG    1       -1.860   2.399   4.510  0.00  0.00    +0.018 A 
ATOM      6  C   LIG    1       -0.824   1.521   4.246  0.00  0.00    +0.040 A 
ATOM      7  S   LIG    1       -3.736   2.861   0.992  0.00  0.00    -0.086 S 
ATOM      8  C   LIG    1       -3.202   2.089  -0.513  0.00  0.00    +0.034 A 
ATOM      9  C   LIG    1       -3.928   2.478  -1.660  0.00  0.00    +0.017 A 
ATOM     10  C   LIG    1       -3.649   1.929  -2.905  0.00  0.00    +0.001 A 
ATOM     11  C   LIG    1       -2.640   0.993  -3.011  0.00  0.00    +0.002 A 
ATOM     12  C   LIG    1       -1.905   0.614  -1.875  0.00  0.00    +0.024 A 
ATOM     13  C   LIG    1       -0.695   0.991   2.950  0.00  0.00    +0.041 A 
ATOM     14  C   LIG    1       -2.160   1.142  -0.587  0.00  0.00    +0.048 A 
ENDROOT
BRANCH   6  15
ATOM     15  S   LIG    1        0.270   1.006   5.593  0.00  0.00    +0.051 S 
ATOM     16  C   LIG    1        1.136   2.576   5.870  0.00  0.00    +0.127 C 
ATOM     17  O   LIG    1        1.265   0.059   4.995  0.00  0.00    -0.252 OA
ENDBRANCH   6  15
BRANCH   1  18
ATOM     18  C   LIG    1       -0.458  -0.393   0.406  0.00  0.00    +0.112 C 
BRANCH  18  19
ATOM     19  C   LIG    1        0.941   0.080  -0.036  0.00  0.00    +0.038 C 
BRANCH  19  22
ATOM     20  C   LIG    1        2.510  -1.279   2.168  0.00  0.00    +0.105 C 
ATOM     21  N   LIG    1        2.128  -1.964   0.931  0.00  0.00    -0.302 NA
ATOM     22  C   LIG    1        1.972  -1.065  -0.234  0.00  0.00    +0.058 C 
ATOM     23  C   LIG    1        3.328  -0.482  -0.697  0.00  0.00    +0.019 C 
ATOM     24  C   LIG    1        4.381  -1.567  -0.928  0.00  0.00    +0.003 C 
ATOM     25  C   LIG    1        4.477  -2.524   0.253  0.00  0.00    +0.015 C 
ATOM     26  C   LIG    1        3.093  -3.042   0.645  0.00  0.00    +0.084 C 
ENDBRANCH  19  22
ENDBRANCH  18  19
ENDBRANCH   1  18
TORSDOF 4
