REMARK  Name = *****
REMARK                            x       y       z     vdW  Elec       q    Type
REMARK                         _______ _______ _______ _____ _____    ______ ____
ROOT
ATOM      1  C   LIG    1       -8.360  -8.658  -6.425  0.00  0.00    +0.176 C 
ATOM      2  C   LIG    1       -7.021  -8.370  -7.215  0.00  0.00    +0.156 C 
ATOM      3  C   LIG    1       -6.912  -6.863  -7.548  0.00  0.00    +0.028 C 
ATOM      4  C   LIG    1       -6.627  -6.028  -6.241  0.00  0.00    +0.012 C 
ATOM      5  C   LIG    1       -7.588  -4.897  -5.798  0.00  0.00    +0.019 C 
ATOM      6  C   LIG    1       -9.003  -5.060  -6.325  0.00  0.00    +0.010 C 
ATOM      7  C   LIG    1       -7.714  -4.377  -4.300  0.00  0.00    +0.147 C 
ATOM      8  C   LIG    1       -8.676  -5.251  -3.438  0.00  0.00    +0.004 C 
ATOM      9  C   LIG    1       -8.522  -5.777  -2.201  0.00  0.00    -0.002 C 
ATOM     10  C   LIG    1       -9.388  -6.853  -1.677  0.00  0.00    -0.004 C 
ATOM     11  C   LIG    1       -8.985  -7.673  -0.682  0.00  0.00    -0.023 C 
ATOM     12  C   LIG    1       -9.540  -9.055  -0.331  0.00  0.00    +0.071 C 
ATOM     13  C   LIG    1       -8.558 -10.159  -0.798  0.00  0.00    +0.177 C 
ATOM     14  C   LIG    1       -9.006 -11.589  -0.500  0.00  0.00    +0.052 C 
ATOM     15  O   LIG    1       -8.475 -10.095  -2.232  0.00  0.00    -0.461 OA
ATOM     16  C   LIG    1       -7.338  -9.513  -2.734  0.00  0.00    +0.310 C 
ATOM     17  O   LIG    1       -6.422  -9.071  -2.113  0.00  0.00    -0.251 OA
ATOM     18  C   LIG    1       -7.422  -9.601  -4.236  0.00  0.00    +0.154 C 
ATOM     19  C   LIG    1       -8.284  -8.520  -4.872  0.00  0.00    +0.156 C 
ENDROOT
BRANCH   1  21
ATOM     20  C   LIG    1       -9.253 -10.162  -8.101  0.00  0.00    +0.194 C 
ATOM     21  O   LIG    1       -8.906  -9.966  -6.734  0.00  0.00    -0.375 OA
ENDBRANCH   1  21
BRANCH  19  22
ATOM     22  O   LIG    1       -9.636  -8.531  -4.369  0.00  0.00    -0.389 OA
ATOM     23  H   LIG    1       -9.756  -9.334  -3.831  0.00  0.00    +0.210 HD
ENDBRANCH  19  22
BRANCH   2  24
ATOM     24  O   LIG    1       -5.840  -8.901  -6.584  0.00  0.00    -0.343 OA
BRANCH  24  25
ATOM     25  C   LIG    1       -4.572  -8.898  -7.299  0.00  0.00    +0.281 C 
ATOM     26  C   LIG    1       -4.603  -9.710  -8.617  0.00  0.00    +0.190 C 
ATOM     27  C   LIG    1       -3.522  -9.261  -9.658  0.00  0.00    +0.121 C 
ATOM     28  C   LIG    1       -2.287  -8.580  -8.901  0.00  0.00    +0.169 C 
ATOM     29  C   LIG    1       -2.774  -7.421  -7.976  0.00  0.00    +0.149 C 
ATOM     30  C   LIG    1       -2.669  -6.031  -8.642  0.00  0.00    +0.040 C 
ATOM     31  O   LIG    1       -4.120  -7.568  -7.510  0.00  0.00    -0.343 OA
BRANCH  27  32
ATOM     32  N   LIG    1       -4.106  -8.524 -10.849  0.00  0.00    -0.301 NA
ATOM     33  C   LIG    1       -4.588  -7.183 -10.565  0.00  0.00    +0.105 C 
ATOM     34  C   LIG    1       -5.192  -9.235 -11.529  0.00  0.00    +0.105 C 
ENDBRANCH  27  32
BRANCH  26  35
ATOM     35  O   LIG    1       -4.534 -11.123  -8.360  0.00  0.00    -0.385 OA
ATOM     36  H   LIG    1       -4.455 -11.579  -9.216  0.00  0.00    +0.210 HD
ENDBRANCH  26  35
BRANCH  28  37
ATOM     37  O   LIG    1       -1.563  -9.648  -8.176  0.00  0.00    -0.344 OA
BRANCH  37  38
ATOM     38  C   LIG    1       -0.371  -9.294  -7.421  0.00  0.00    +0.254 C 
ATOM     39  O   LIG    1        0.644  -8.711  -8.242  0.00  0.00    -0.346 OA
ATOM     40  C   LIG    1        1.685  -9.580  -8.733  0.00  0.00    +0.150 C 
ATOM     41  C   LIG    1        2.981  -9.381  -7.932  0.00  0.00    +0.040 C 
ATOM     42  C   LIG    1        1.229 -11.050  -8.852  0.00  0.00    +0.174 C 
ATOM     43  C   LIG    1        0.761 -11.632  -7.500  0.00  0.00    +0.096 C 
ATOM     44  C   LIG    1        1.885 -12.448  -6.829  0.00  0.00    +0.044 C 
ATOM     45  C   LIG    1        0.170 -10.512  -6.617  0.00  0.00    +0.098 C 
BRANCH  42  46
ATOM     46  O   LIG    1        0.119 -11.112  -9.774  0.00  0.00    -0.386 OA
ATOM     47  H   LIG    1       -0.570 -10.511  -9.423  0.00  0.00    +0.210 HD
ENDBRANCH  42  46
BRANCH  43  48
ATOM     48  O   LIG    1       -0.271 -12.614  -7.712  0.00  0.00    -0.386 OA
ATOM     49  H   LIG    1       -0.750 -12.350  -8.520  0.00  0.00    +0.210 HD
ENDBRANCH  43  48
ENDBRANCH  37  38
ENDBRANCH  28  37
ENDBRANCH  24  25
ENDBRANCH   2  24
BRANCH   3  50
ATOM     50  C   LIG    1       -7.907  -6.490  -8.686  0.00  0.00    +0.077 C 
BRANCH  50  51
ATOM     51  C   LIG    1       -7.602  -5.194  -9.412  0.00  0.00    +0.223 C 
ATOM     52  O   LIG    1       -6.664  -4.452  -9.149  0.00  0.00    -0.301 OA
ENDBRANCH  50  51
ENDBRANCH   3  50
BRANCH   7  53
ATOM     53  O   LIG    1       -8.342  -3.048  -4.364  0.00  0.00    -0.344 OA
BRANCH  53  54
ATOM     54  C   LIG    1       -7.603  -1.998  -5.025  0.00  0.00    +0.251 C 
ATOM     55  O   LIG    1       -6.357  -1.736  -4.379  0.00  0.00    -0.347 OA
ATOM     56  C   LIG    1       -6.454  -0.922  -3.186  0.00  0.00    +0.135 C 
ATOM     57  C   LIG    1       -5.809   0.444  -3.475  0.00  0.00    +0.039 C 
ATOM     58  C   LIG    1       -7.923  -0.785  -2.650  0.00  0.00    +0.085 C 
ATOM     59  C   LIG    1       -8.701  -0.056  -3.769  0.00  0.00    +0.026 C 
ATOM     60  C   LIG    1       -8.384  -0.670  -5.139  0.00  0.00    +0.063 C 
BRANCH  58  61
ATOM     61  N   LIG    1       -8.122  -0.167  -1.308  0.00  0.00    -0.303 NA
ATOM     62  C   LIG    1       -9.546  -0.210  -0.917  0.00  0.00    +0.105 C 
ATOM     63  C   LIG    1       -7.375  -0.921  -0.287  0.00  0.00    +0.105 C 
ENDBRANCH  58  61
ENDBRANCH  53  54
ENDBRANCH   7  53
TORSDOF 15
