REMARK  Name = *****
REMARK                            x       y       z     vdW  Elec       q    Type
REMARK                         _______ _______ _______ _____ _____    ______ ____
ROOT
ATOM      1  C   LIG    1        3.203  -0.910   0.987  0.00  0.00    +0.086 C 
ENDROOT
BRANCH   1   2
ATOM      2  C   LIG    1        4.749  -0.946   0.899  0.00  0.00    -0.027 A 
ATOM      3  C   LIG    1        5.551  -0.156   1.750  0.00  0.00    +0.005 A 
ATOM      4  C   LIG    1        6.948  -0.166   1.662  0.00  0.00    +0.000 A 
ATOM      5  C   LIG    1        7.585  -0.993   0.746  0.00  0.00    +0.000 A 
ATOM      6  C   LIG    1        6.824  -1.787  -0.103  0.00  0.00    +0.000 A 
ATOM      7  C   LIG    1        5.425  -1.742  -0.048  0.00  0.00    +0.005 A 
ENDBRANCH   1   2
BRANCH   1   9
ATOM      8  C   LIG    1        3.057   1.674   0.386  0.00  0.00    +0.009 C 
ATOM      9  C   LIG    1        2.600   0.240   0.045  0.00  0.00    +0.007 C 
ATOM     10  C   LIG    1        2.793   0.021  -1.462  0.00  0.00    +0.009 C 
ENDBRANCH   1   9
BRANCH   1  11
ATOM     11  C   LIG    1        2.733  -0.560   2.368  0.00  0.00    +0.074 C 
ATOM     12  N   LIG    1        2.358  -0.255   3.419  0.00  0.00    -0.196 NA
ENDBRANCH   1  11
BRANCH   1  13
ATOM     13  C   LIG    1        2.518  -2.293   0.606  0.00  0.00    +0.045 C 
BRANCH  13  14
ATOM     14  C   LIG    1        2.919  -3.616   1.356  0.00  0.00    +0.055 C 
ATOM     15  C   LIG    1        2.605  -3.604   2.860  0.00  0.00    +0.024 C 
BRANCH  14  16
ATOM     16  N   LIG    1        2.376  -4.822   0.654  0.00  0.00    -0.306 NA
ATOM     17  C   LIG    1        0.942  -4.798   0.368  0.00  0.00    +0.105 C 
ATOM     18  C   LIG    1        2.722  -6.085   1.317  0.00  0.00    +0.105 C 
ENDBRANCH  14  16
ENDBRANCH  13  14
ENDBRANCH   1  13
TORSDOF 6
