REMARK  Name = *****
REMARK                            x       y       z     vdW  Elec       q    Type
REMARK                         _______ _______ _______ _____ _____    ______ ____
ROOT
ATOM      1  C   LIG    1       10.513   7.308  -5.095  0.00  0.00    +0.060 A 
ATOM      2  C   LIG    1       11.504   6.308  -5.303  0.00  0.00    +0.040 A 
ATOM      3  I   LIG    1       10.816   4.431  -6.104  0.00  0.00    -0.042 I 
ATOM      4  C   LIG    1       12.888   6.545  -5.030  0.00  0.00    -0.018 A 
ATOM      5  C   LIG    1       13.216   7.810  -4.488  0.00  0.00    +0.019 A 
ATOM      6  I   LIG    1       15.189   8.469  -4.111  0.00  0.00    -0.043 I 
ATOM      7  C   LIG    1       12.225   8.750  -4.166  0.00  0.00    +0.030 A 
ATOM      8  C   LIG    1       10.884   8.497  -4.452  0.00  0.00    +0.037 A 
ATOM      9  I   LIG    1        9.494   9.888  -3.667  0.00  0.00    -0.042 I 
ENDROOT
BRANCH   1  11
ATOM     10  C   LIG    1        8.602   7.986  -6.460  0.00  0.00    +0.217 C 
ATOM     11  N   LIG    1        9.181   7.097  -5.556  0.00  0.00    -0.284 N 
ATOM     12  H   LIG    1        8.911   6.129  -5.703  0.00  0.00    +0.155 HD
ATOM     13  O   LIG    1        9.169   8.959  -6.948  0.00  0.00    -0.276 OA
BRANCH  10  14
ATOM     14  C   LIG    1        7.189   7.619  -6.865  0.00  0.00    +0.096 C 
BRANCH  14  16
ATOM     15  C   LIG    1        5.735   6.385  -8.504  0.00  0.00    +0.004 C 
ATOM     16  C   LIG    1        7.163   6.724  -8.099  0.00  0.00    +0.006 C 
ENDBRANCH  14  16
ENDBRANCH  10  14
ENDBRANCH   1  11
BRANCH   4  17
ATOM     17  C   LIG    1       13.975   5.523  -5.372  0.00  0.00    +0.052 C 
BRANCH  17  18
ATOM     18  C   LIG    1       14.448   4.563  -4.254  0.00  0.00    +0.102 C 
BRANCH  18  19
ATOM     19  C   LIG    1       15.632   3.674  -4.722  0.00  0.00    +0.011 C 
ATOM     20  C   LIG    1       15.350   2.758  -5.911  0.00  0.00    +0.004 C 
ENDBRANCH  18  19
BRANCH  18  21
ATOM     21  C   LIG    1       13.328   3.696  -3.673  0.00  0.00    +0.308 C 
ATOM     22  O   LIG    1       13.086   2.541  -3.969  0.00  0.00    -0.251 OA
BRANCH  21  23
ATOM     23  O   LIG    1       12.582   4.350  -2.748  0.00  0.00    -0.480 OA
ATOM     24  H   LIG    1       12.834   5.275  -2.607  0.00  0.00    +0.295 HD
ENDBRANCH  21  23
ENDBRANCH  18  21
ENDBRANCH  17  18
ENDBRANCH   4  17
TORSDOF 8
