REMARK  Name = *****
REMARK                            x       y       z     vdW  Elec       q    Type
REMARK                         _______ _______ _______ _____ _____    ______ ____
ROOT
ATOM      1  C   LIG    1        2.698  -0.929   0.784  0.00  0.00    +0.162 A 
ATOM      2  C   LIG    1        2.545  -2.295   0.879  0.00  0.00    +0.167 A 
ATOM      3  O   LIG    1        2.075  -3.206  -0.094  0.00  0.00    -0.481 OA
ATOM      4  C   LIG    1        2.915  -4.404   0.170  0.00  0.00    +0.213 C 
ATOM      5  C   LIG    1        3.013  -4.330   1.858  0.00  0.00    +0.044 C 
ATOM      6  C   LIG    1        3.356  -5.360   3.171  0.00  0.00    +0.021 C 
ATOM      7  C   LIG    1        4.800  -4.995   3.335  0.00  0.00    +0.065 C 
ATOM      8  N   LIG    1        5.265  -5.359   2.001  0.00  0.00    -0.302 NA
ATOM      9  C   LIG    1        4.135  -6.031   1.222  0.00  0.00    +0.085 C 
ATOM     10  C   LIG    1        6.491  -6.144   2.009  0.00  0.00    +0.105 C 
ATOM     11  C   LIG    1        4.914  -3.408   3.658  0.00  0.00    +0.054 C 
ATOM     12  C   LIG    1        4.057  -2.419   2.838  0.00  0.00    -0.038 A 
ATOM     13  C   LIG    1        4.226  -1.045   2.753  0.00  0.00    +0.008 A 
ATOM     14  C   LIG    1        2.883  -7.166   2.745  0.00  0.00    +0.009 C 
ATOM     15  C   LIG    1        2.264  -7.471   0.959  0.00  0.00    +0.035 C 
ATOM     16  C   LIG    1        2.255  -5.426   1.647  0.00  0.00    +0.031 C 
ATOM     17  C   LIG    1        2.337  -6.134  -0.392  0.00  0.00    +0.156 C 
ATOM     18  C   LIG    1        3.105  -2.935   1.980  0.00  0.00    +0.011 A 
ATOM     19  C   LIG    1        3.523  -0.310   1.757  0.00  0.00    +0.050 A 
ENDROOT
BRANCH   1  21
ATOM     20  C   LIG    1        1.304  -0.661  -1.109  0.00  0.00    +0.277 C 
ATOM     21  O   LIG    1        2.212  -0.091  -0.175  0.00  0.00    -0.491 OA
ENDBRANCH   1  21
BRANCH  17  22
ATOM     22  O   LIG    1        3.143  -6.616  -1.466  0.00  0.00    -0.388 OA
ATOM     23  H   LIG    1        2.737  -7.441  -1.784  0.00  0.00    +0.210 HD
ENDBRANCH  17  22
TORSDOF 2
