REMARK  Name = *****
REMARK                            x       y       z     vdW  Elec       q    Type
REMARK                         _______ _______ _______ _____ _____    ______ ____
ROOT
ATOM      1  N   LIG    1        5.567  -1.373  -0.268  0.00  0.00    -0.295 N 
ATOM      2  C   LIG    1        6.800  -1.876  -0.598  0.00  0.00    +0.154 A 
ATOM      3  C   LIG    1        7.995  -1.240  -1.032  0.00  0.00    +0.283 C 
ATOM      4  N   LIG    1        9.005  -2.143  -1.366  0.00  0.00    -0.252 N 
ATOM      5  C   LIG    1        8.892  -3.542  -1.334  0.00  0.00    +0.334 C 
ATOM      6  N   LIG    1        7.713  -4.074  -0.805  0.00  0.00    -0.280 N 
ATOM      7  C   LIG    1        7.550  -5.512  -0.698  0.00  0.00    +0.155 C 
ATOM      8  O   LIG    1        9.803  -4.266  -1.747  0.00  0.00    -0.246 OA
ATOM      9  O   LIG    1        8.119  -0.021  -1.109  0.00  0.00    -0.265 OA
ATOM     10  C   LIG    1        6.675  -3.226  -0.488  0.00  0.00    +0.170 A 
ATOM     11  N   LIG    1        5.421  -3.588  -0.097  0.00  0.00    -0.196 NA
ATOM     12  C   LIG    1        4.751  -2.456   0.028  0.00  0.00    +0.202 A 
ENDROOT
BRANCH  12  13
ATOM     13  N   LIG    1        3.415  -2.307   0.287  0.00  0.00    -0.299 N 
ATOM     14  C   LIG    1        3.077  -1.825   1.646  0.00  0.00    +0.126 C 
ATOM     15  C   LIG    1        1.599  -1.367   1.686  0.00  0.00    +0.068 C 
ATOM     16  C   LIG    1        0.691  -2.542   1.307  0.00  0.00    +0.021 C 
ATOM     17  C   LIG    1        1.103  -3.106  -0.052  0.00  0.00    +0.020 C 
ATOM     18  C   LIG    1        2.590  -3.475  -0.091  0.00  0.00    +0.108 C 
BRANCH  15  19
ATOM     19  N   LIG    1        1.214  -0.837   3.000  0.00  0.00    -0.326 NA
ATOM     20  H   LIG    1        0.240  -0.534   2.971  0.00  0.00    +0.118 HD
ATOM     21  H   LIG    1        1.762   0.001   3.196  0.00  0.00    +0.118 HD
ENDBRANCH  15  19
ENDBRANCH  12  13
BRANCH   1  22
ATOM     22  C   LIG    1        5.168   0.020  -0.378  0.00  0.00    +0.214 C 
BRANCH  22  25
ATOM     23  C   LIG    1        5.472   1.840   3.318  0.00  0.00    +0.106 C 
ATOM     24  C   LIG    1        5.417   1.270   1.973  0.00  0.00    -0.104 C 
ATOM     25  C   LIG    1        5.330   0.739   0.889  0.00  0.00    -0.081 C 
ENDBRANCH  22  25
ENDBRANCH   1  22
BRANCH   4  26
ATOM     26  C   LIG    1       10.204  -1.582  -1.978  0.00  0.00    +0.206 C 
BRANCH  26  27
ATOM     27  C   LIG    1       10.098  -1.435  -3.487  0.00  0.00    +0.150 A 
ATOM     28  N   LIG    1       11.160  -0.912  -4.129  0.00  0.00    -0.230 NA
ATOM     29  C   LIG    1       11.074  -0.767  -5.458  0.00  0.00    +0.075 A 
ATOM     30  C   LIG    1        9.938  -1.136  -6.192  0.00  0.00    +0.021 A 
ATOM     31  C   LIG    1        9.919  -0.951  -7.597  0.00  0.00    +0.012 A 
ATOM     32  C   LIG    1       11.016  -0.402  -8.258  0.00  0.00    +0.001 A 
ATOM     33  C   LIG    1       12.138  -0.037  -7.528  0.00  0.00    +0.002 A 
ATOM     34  C   LIG    1        8.889  -1.670  -5.434  0.00  0.00    +0.050 A 
ATOM     35  C   LIG    1        7.602  -2.121  -6.060  0.00  0.00    +0.066 C 
ATOM     36  C   LIG    1       12.155  -0.224  -6.142  0.00  0.00    +0.028 A 
ATOM     37  N   LIG    1        8.957  -1.814  -4.094  0.00  0.00    -0.235 NA
ENDBRANCH  26  27
ENDBRANCH   4  26
TORSDOF 6
