REMARK  Name = *****
REMARK                            x       y       z     vdW  Elec       q    Type
REMARK                         _______ _______ _______ _____ _____    ______ ____
ROOT
ATOM      1  C   LIG    1        4.832  -2.970  -0.623  0.00  0.00    +0.079 C 
ATOM      2  C   LIG    1        3.459  -2.364  -0.199  0.00  0.00    +0.137 C 
ATOM      3  C   LIG    1        3.646  -0.832  -0.185  0.00  0.00    +0.130 C 
ATOM      4  C   LIG    1        5.165  -0.610  -0.230  0.00  0.00    +0.062 C 
ATOM      5  C   LIG    1        5.766  -1.974   0.128  0.00  0.00    +0.196 C 
ENDROOT
BRANCH   2   6
ATOM      6  O   LIG    1        2.367  -2.773  -0.996  0.00  0.00    -0.391 OA
ATOM      7  H   LIG    1        1.558  -2.422  -0.576  0.00  0.00    +0.210 HD
ENDBRANCH   2   6
BRANCH   3   8
ATOM      8  C   LIG    1        2.948  -0.196   1.004  0.00  0.00    +0.310 C 
ATOM      9  O   LIG    1        1.767   0.178   0.958  0.00  0.00    -0.251 OA
BRANCH   8  10
ATOM     10  O   LIG    1        3.660  -0.099   2.147  0.00  0.00    -0.480 OA
ATOM     11  H   LIG    1        4.532  -0.565   2.113  0.00  0.00    +0.295 HD
ENDBRANCH   8  10
ENDBRANCH   3   8
BRANCH   5  12
ATOM     12  N   LIG    1        5.614  -2.105   1.603  0.00  0.00    -0.110 NA
ATOM     13  C   LIG    1        6.345  -2.935   2.249  0.00  0.00    +0.377 C 
BRANCH  13  14
ATOM     14  N   LIG    1        6.188  -3.102   3.583  0.00  0.00    -0.289 N 
ATOM     15  H   LIG    1        6.204  -4.067   3.891  0.00  0.00    +0.255 HD
ATOM     16  H   LIG    1        5.367  -2.627   3.944  0.00  0.00    +0.255 HD
ENDBRANCH  13  14
BRANCH  13  17
ATOM     17  N   LIG    1        7.351  -3.723   1.812  0.00  0.00    -0.289 N 
ATOM     18  H   LIG    1        7.952  -4.045   2.561  0.00  0.00    +0.255 HD
ATOM     19  H   LIG    1        7.910  -3.284   1.090  0.00  0.00    +0.255 HD
ENDBRANCH  13  17
ENDBRANCH   5  12
BRANCH   1  20
ATOM     20  C   LIG    1        5.144  -3.133  -2.192  0.00  0.00    +0.085 C 
BRANCH  20  21
ATOM     21  N   LIG    1        6.594  -3.386  -2.444  0.00  0.00    -0.312 N 
ATOM     22  H   LIG    1        6.879  -4.355  -2.537  0.00  0.00    +0.149 HD
ATOM     23  C   LIG    1        7.437  -2.458  -3.015  0.00  0.00    +0.210 C 
ATOM     24  O   LIG    1        7.081  -1.299  -3.286  0.00  0.00    -0.276 OA
ATOM     25  C   LIG    1        8.851  -2.906  -3.283  0.00  0.00    +0.109 C 
ENDBRANCH  20  21
BRANCH  20  26
ATOM     26  C   LIG    1        4.291  -4.184  -3.030  0.00  0.00    +0.009 C 
BRANCH  26  28
ATOM     27  C   LIG    1        5.769  -4.280  -5.234  0.00  0.00    +0.004 C 
ATOM     28  C   LIG    1        4.423  -3.948  -4.586  0.00  0.00    +0.002 C 
ENDBRANCH  26  28
BRANCH  26  29
ATOM     29  C   LIG    1        4.531  -5.697  -2.762  0.00  0.00    +0.002 C 
ATOM     30  C   LIG    1        4.380  -6.214  -1.346  0.00  0.00    +0.004 C 
ENDBRANCH  26  29
ENDBRANCH  20  26
ENDBRANCH   1  20
TORSDOF 11
