REMARK  Name = *****
REMARK                            x       y       z     vdW  Elec       q    Type
REMARK                         _______ _______ _______ _____ _____    ______ ____
ROOT
ATOM      1  N   LIG    1        3.577   4.147  -7.290  0.00  0.00    -0.287 NA
ATOM      2  C   LIG    1        3.997   4.009  -8.695  0.00  0.00    +0.108 C 
ATOM      3  C   LIG    1        4.579   5.338  -9.264  0.00  0.00    +0.039 C 
ATOM      4  C   LIG    1        3.518   6.455  -9.292  0.00  0.00    +0.030 C 
ATOM      5  C   LIG    1        5.783   5.710  -8.369  0.00  0.00    +0.108 C 
ATOM      6  N   LIG    1        5.434   5.835  -6.949  0.00  0.00    -0.287 NA
ATOM      7  C   LIG    1        4.690   4.654  -6.453  0.00  0.00    +0.171 C 
ENDROOT
BRANCH   3   8
ATOM      8  N   LIG    1        5.039   5.127 -10.659  0.00  0.00    -0.323 NA
ATOM      9  H   LIG    1        4.254   4.865 -11.234  0.00  0.00    +0.119 HD
ATOM     10  H   LIG    1        5.363   6.038 -11.037  0.00  0.00    +0.119 HD
ENDBRANCH   3   8
BRANCH   1  11
ATOM     11  C   LIG    1        3.148   2.841  -6.694  0.00  0.00    +0.089 C 
BRANCH  11  12
ATOM     12  C   LIG    1        2.008   2.003  -7.335  0.00  0.00    +0.003 C 
BRANCH  12  13
ATOM     13  C   LIG    1        0.715   2.811  -7.614  0.00  0.00    +0.001 C 
ATOM     14  C   LIG    1       -0.064   3.314  -6.403  0.00  0.00    +0.004 C 
ENDBRANCH  12  13
BRANCH  12  15
ATOM     15  C   LIG    1        1.656   0.711  -6.514  0.00  0.00    +0.005 C 
BRANCH  15  16
ATOM     16  C   LIG    1        2.797  -0.288  -6.245  0.00  0.00    +0.000 C 
BRANCH  16  18
ATOM     17  C   LIG    1        1.290  -2.386  -5.977  0.00  0.00    +0.004 C 
ATOM     18  C   LIG    1        2.390  -1.510  -5.391  0.00  0.00    -0.003 C 
ENDBRANCH  16  18
ENDBRANCH  15  16
ENDBRANCH  12  15
ENDBRANCH  11  12
ENDBRANCH   1  11
BRANCH   6  19
ATOM     19  C   LIG    1        6.663   5.969  -6.112  0.00  0.00    +0.089 C 
BRANCH  19  20
ATOM     20  C   LIG    1        7.696   7.128  -6.333  0.00  0.00    +0.003 C 
BRANCH  20  21
ATOM     21  C   LIG    1        7.140   8.544  -6.095  0.00  0.00    +0.001 C 
ATOM     22  C   LIG    1        6.013   8.965  -7.021  0.00  0.00    +0.004 C 
ENDBRANCH  20  21
BRANCH  20  23
ATOM     23  C   LIG    1        8.899   6.854  -5.370  0.00  0.00    +0.005 C 
BRANCH  23  24
ATOM     24  C   LIG    1       10.080   7.838  -5.425  0.00  0.00    +0.000 C 
BRANCH  24  25
ATOM     25  C   LIG    1       11.205   7.483  -4.438  0.00  0.00    -0.003 C 
ATOM     26  C   LIG    1       11.854   6.132  -4.699  0.00  0.00    +0.004 C 
ENDBRANCH  24  25
ENDBRANCH  23  24
ENDBRANCH  20  23
ENDBRANCH  19  20
ENDBRANCH   6  19
TORSDOF 13
