REMARK  Name = *****
REMARK                            x       y       z     vdW  Elec       q    Type
REMARK                         _______ _______ _______ _____ _____    ______ ____
ROOT
ATOM      1  C   LIG    1        0.984  -0.130  -0.045  0.00  0.00    +0.048 C 
ATOM      2  C   LIG    1        2.481  -0.132  -0.046  0.00  0.00    +0.000 C 
ATOM      3  C   LIG    1        3.142   1.201  -0.046  0.00  0.00    +0.190 C 
ATOM      4  O   LIG    1        2.483   2.235  -0.046  0.00  0.00    -0.287 OA
ATOM      5  C   LIG    1        4.618   1.245  -0.047  0.00  0.00    +0.033 A 
ATOM      6  C   LIG    1        5.364   0.069  -0.047  0.00  0.00    +0.033 A 
ATOM      7  C   LIG    1        6.764   0.126  -0.048  0.00  0.00    +0.012 A 
ATOM      8  C   LIG    1        7.411   1.363  -0.048  0.00  0.00    +0.001 A 
ATOM      9  C   LIG    1        6.665   2.542  -0.048  0.00  0.00    +0.001 A 
ATOM     10  C   LIG    1        4.688  -1.241  -0.048  0.00  0.00    +0.187 C 
ATOM     11  O   LIG    1        5.314  -2.293  -0.049  0.00  0.00    -0.287 OA
ATOM     12  C   LIG    1        5.270   2.486  -0.047  0.00  0.00    +0.012 A 
ATOM     13  C   LIG    1        3.213  -1.253  -0.046  0.00  0.00    +0.058 C 
ENDROOT
TORSDOF 0
