REMARK  Name = *****
REMARK                            x       y       z     vdW  Elec       q    Type
REMARK                         _______ _______ _______ _____ _____    ______ ____
ROOT
ATOM      1  N   LIG    1        2.991  -1.076   0.813  0.00  0.00    -0.346 NA
ATOM      2  C   LIG    1        3.726  -0.931   2.013  0.00  0.00    +0.053 C 
ATOM      3  C   LIG    1        4.008  -2.067   2.795  0.00  0.00    +0.046 C 
ATOM      4  C   LIG    1        4.731  -1.975   3.989  0.00  0.00    +0.014 C 
ATOM      5  C   LIG    1        5.203  -0.737   4.424  0.00  0.00    +0.009 C 
ATOM      6  C   LIG    1        4.954   0.433   3.690  0.00  0.00    -0.016 C 
ATOM      7  C   LIG    1        3.537  -3.402   2.353  0.00  0.00    +0.203 C 
ATOM      8  O   LIG    1        3.743  -4.416   3.017  0.00  0.00    -0.286 OA
ATOM      9  C   LIG    1        2.806  -3.496   1.074  0.00  0.00    +0.122 C 
ATOM     10  C   LIG    1        4.206   0.303   2.494  0.00  0.00    +0.035 C 
ATOM     11  C   LIG    1        2.599  -2.348   0.413  0.00  0.00    +0.105 C 
ENDROOT
BRANCH   6  12
ATOM     12  C   LIG    1        5.454   1.757   4.145  0.00  0.00    -0.015 C 
ATOM     13  C   LIG    1        5.589   2.070   5.506  0.00  0.00    +0.028 C 
ATOM     14  C   LIG    1        6.057   3.323   5.879  0.00  0.00    +0.111 C 
ATOM     15  N   LIG    1        6.392   4.291   5.005  0.00  0.00    -0.263 NA
ATOM     16  C   LIG    1        6.261   3.989   3.700  0.00  0.00    +0.111 C 
ATOM     17  C   LIG    1        5.814   2.761   3.232  0.00  0.00    +0.028 C 
ENDBRANCH   6  12
BRANCH   1  19
ATOM     18  C   LIG    1        3.763   0.367  -1.041  0.00  0.00    +0.027 C 
ATOM     19  C   LIG    1        2.666   0.097  -0.021  0.00  0.00    +0.118 C 
ENDBRANCH   1  19
BRANCH   9  20
ATOM     20  C   LIG    1        2.300  -4.763   0.512  0.00  0.00    +0.342 C 
ATOM     21  O   LIG    1        1.703  -4.833  -0.557  0.00  0.00    -0.245 OA
BRANCH  20  22
ATOM     22  O   LIG    1        2.539  -5.853   1.272  0.00  0.00    -0.477 OA
ATOM     23  H   LIG    1        3.028  -5.657   2.108  0.00  0.00    +0.295 HD
ENDBRANCH  20  22
ENDBRANCH   9  20
TORSDOF 4
