REMARK  Name = *****
REMARK                            x       y       z     vdW  Elec       q    Type
REMARK                         _______ _______ _______ _____ _____    ______ ____
ROOT
ATOM      1  N   LIG    1        4.841  -0.482   0.496  0.00  0.00    -0.186 N 
ATOM      2  H   LIG    1        5.305  -0.923   1.274  0.00  0.00    +0.271 HD
ENDROOT
BRANCH   1   3
ATOM      3  C   LIG    1        3.491  -0.700   0.432  0.00  0.00    +0.390 C 
ATOM      4  N   LIG    1        2.824  -0.311  -0.609  0.00  0.00    -0.129 NA
ATOM      5  H   LIG    1        1.843  -0.561  -0.514  0.00  0.00    +0.306 HD
BRANCH   3   7
ATOM      6  C   LIG    1        3.442  -1.233   2.862  0.00  0.00    +0.241 C 
ATOM      7  N   LIG    1        2.936  -1.380   1.498  0.00  0.00    -0.268 N 
ATOM      8  C   LIG    1        1.604  -1.972   1.419  0.00  0.00    +0.241 C 
ENDBRANCH   3   7
ENDBRANCH   1   3
BRANCH   1   9
ATOM      9  C   LIG    1        5.697   0.191  -0.305  0.00  0.00    +0.386 C 
ATOM     10  N   LIG    1        5.401   1.048  -1.224  0.00  0.00    -0.129 NA
ATOM     11  H   LIG    1        4.368   1.085  -1.230  0.00  0.00    +0.306 HD
BRANCH   9  12
ATOM     12  N   LIG    1        7.000  -0.116  -0.102  0.00  0.00    -0.289 N 
ATOM     13  H   LIG    1        7.538   0.376  -0.813  0.00  0.00    +0.255 HD
ATOM     14  H   LIG    1        7.166  -1.113  -0.220  0.00  0.00    +0.255 HD
ENDBRANCH   9  12
ENDBRANCH   1   9
TORSDOF 4
