REMARK  Name = *****
REMARK                            x       y       z     vdW  Elec       q    Type
REMARK                         _______ _______ _______ _____ _____    ______ ____
ROOT
ATOM      1  C   LIG    1        9.909  10.596   5.362  0.00  0.00    +0.061 A 
ATOM      2  C   LIG    1        8.541  10.582   5.681  0.00  0.00    +0.049 A 
ATOM      3  I   LIG    1        7.447  12.422   5.556  0.00  0.00    -0.041 I 
ATOM      4  C   LIG    1        7.970   9.410   6.194  0.00  0.00    +0.066 A 
ATOM      5  C   LIG    1        8.840   8.447   6.724  0.00  0.00    +0.040 A 
ATOM      6  I   LIG    1        8.370   7.785   8.714  0.00  0.00    -0.042 I 
ATOM      7  C   LIG    1       10.181   8.346   6.290  0.00  0.00    +0.065 A 
ATOM      8  C   LIG    1       10.654   9.392   5.481  0.00  0.00    +0.049 A 
ATOM      9  I   LIG    1       12.130   9.029   3.980  0.00  0.00    -0.041 I 
ENDROOT
BRANCH   1  11
ATOM     10  C   LIG    1       11.611  12.362   5.373  0.00  0.00    +0.243 C 
ATOM     11  N   LIG    1       10.470  11.786   4.822  0.00  0.00    -0.282 N 
ATOM     12  H   LIG    1        9.807  12.450   4.431  0.00  0.00    +0.155 HD
ATOM     13  O   LIG    1       12.198  11.914   6.357  0.00  0.00    -0.273 OA
BRANCH  10  14
ATOM     14  C   LIG    1       12.050  13.648   4.663  0.00  0.00    +0.255 C 
BRANCH  14  16
ATOM     15  C   LIG    1       13.394  14.526   2.940  0.00  0.00    +0.194 C 
ATOM     16  O   LIG    1       12.948  13.350   3.603  0.00  0.00    -0.374 OA
ENDBRANCH  14  16
ENDBRANCH  10  14
ENDBRANCH   1  11
BRANCH   4  17
ATOM     17  C   LIG    1        6.564   9.067   5.778  0.00  0.00    +0.248 C 
ATOM     18  N   LIG    1        6.270   7.899   5.046  0.00  0.00    -0.298 N 
ATOM     19  C   LIG    1        7.154   6.767   4.787  0.00  0.00    +0.132 C 
ATOM     20  O   LIG    1        5.684   9.908   5.946  0.00  0.00    -0.270 OA
BRANCH  18  21
ATOM     21  C   LIG    1        4.929   7.799   4.430  0.00  0.00    +0.141 C 
BRANCH  21  22
ATOM     22  C   LIG    1        4.907   8.357   2.983  0.00  0.00    +0.157 C 
BRANCH  22  23
ATOM     23  O   LIG    1        5.336   9.723   2.928  0.00  0.00    -0.388 OA
ATOM     24  H   LIG    1        5.239  10.095   3.829  0.00  0.00    +0.210 HD
ENDBRANCH  22  23
BRANCH  22  25
ATOM     25  C   LIG    1        3.507   8.250   2.361  0.00  0.00    +0.188 C 
BRANCH  25  26
ATOM     26  O   LIG    1        3.023   6.912   2.376  0.00  0.00    -0.392 OA
ATOM     27  H   LIG    1        3.551   6.402   1.738  0.00  0.00    +0.209 HD
ENDBRANCH  25  26
ENDBRANCH  22  25
ENDBRANCH  21  22
ENDBRANCH  18  21
ENDBRANCH   4  17
BRANCH   7  28
ATOM     28  C   LIG    1       10.878   7.038   6.521  0.00  0.00    +0.246 C 
ATOM     29  N   LIG    1       12.212   7.018   6.848  0.00  0.00    -0.309 N 
ATOM     30  H   LIG    1       12.718   7.893   6.946  0.00  0.00    +0.149 HD
ATOM     31  O   LIG    1       10.197   5.993   6.458  0.00  0.00    -0.270 OA
BRANCH  29  32
ATOM     32  C   LIG    1       12.975   5.767   7.061  0.00  0.00    +0.138 C 
BRANCH  32  33
ATOM     33  C   LIG    1       12.577   5.027   8.353  0.00  0.00    +0.157 C 
BRANCH  33  34
ATOM     34  O   LIG    1       12.683   5.927   9.464  0.00  0.00    -0.388 OA
ATOM     35  H   LIG    1       12.190   6.723   9.195  0.00  0.00    +0.210 HD
ENDBRANCH  33  34
BRANCH  33  36
ATOM     36  C   LIG    1       13.466   3.804   8.623  0.00  0.00    +0.188 C 
BRANCH  36  37
ATOM     37  O   LIG    1       13.437   2.888   7.536  0.00  0.00    -0.392 OA
ATOM     38  H   LIG    1       13.975   2.119   7.796  0.00  0.00    +0.209 HD
ENDBRANCH  36  37
ENDBRANCH  33  36
ENDBRANCH  32  33
ENDBRANCH  29  32
ENDBRANCH   7  28
TORSDOF 15
