REMARK  Name = *****
REMARK                            x       y       z     vdW  Elec       q    Type
REMARK                         _______ _______ _______ _____ _____    ______ ____
ROOT
ATOM      1  C   LIG    1        9.236   0.770   4.502  0.00  0.00    -0.004 C 
ATOM      2  C   LIG    1        9.607  -0.499   4.908  0.00  0.00    -0.016 C 
ATOM      3  C   LIG    1        8.755  -1.684   4.868  0.00  0.00    +0.015 C 
ATOM      4  C   LIG    1        9.171  -2.767   4.194  0.00  0.00    +0.078 C 
ATOM      5  C   LIG    1       10.608  -2.758   3.740  0.00  0.00    +0.203 C 
ATOM      6  N   LIG    1       11.040  -3.318   2.645  0.00  0.00    -0.225 N 
ATOM      7  C   LIG    1       11.471  -2.036   4.743  0.00  0.00    +0.078 C 
ATOM      8  C   LIG    1       10.947  -0.934   5.322  0.00  0.00    +0.015 C 
ENDROOT
BRANCH   1  12
ATOM      9  C   LIG    1        4.999   1.710   3.288  0.00  0.00    +0.030 A 
ATOM     10  C   LIG    1        5.412   0.431   3.612  0.00  0.00    +0.024 A 
ATOM     11  C   LIG    1        6.740   0.130   3.940  0.00  0.00    +0.010 A 
ATOM     12  C   LIG    1        7.779   1.064   4.017  0.00  0.00    -0.017 A 
ATOM     13  C   LIG    1        7.374   2.325   3.564  0.00  0.00    +0.010 A 
ATOM     14  C   LIG    1        6.038   2.641   3.229  0.00  0.00    +0.024 A 
BRANCH   9  15
ATOM     15  N   LIG    1        3.672   2.021   2.961  0.00  0.00    -0.326 N 
BRANCH  15  17
ATOM     16  C   LIG    1        2.148   3.919   2.443  0.00  0.00    +0.024 C 
ATOM     17  C   LIG    1        3.216   3.369   3.374  0.00  0.00    +0.102 C 
ENDBRANCH  15  17
BRANCH  15  18
ATOM     18  C   LIG    1        2.654   0.941   3.058  0.00  0.00    +0.140 C 
BRANCH  18  19
ATOM     19  C   LIG    1        2.412   0.189   1.753  0.00  0.00    -0.028 A 
ATOM     20  C   LIG    1        1.897  -1.123   1.794  0.00  0.00    +0.034 A 
ATOM     21  C   LIG    1        1.557  -1.796   0.609  0.00  0.00    +0.117 A 
ATOM     22  C   LIG    1        1.679  -1.164  -0.628  0.00  0.00    +0.029 A 
ATOM     23  C   LIG    1        2.208   0.124  -0.682  0.00  0.00    +0.002 A 
ATOM     24  C   LIG    1        2.577   0.789   0.495  0.00  0.00    +0.005 A 
BRANCH  21  25
ATOM     25  S   LIG    1        0.941  -3.459   0.671  0.00  0.00    +0.110 S 
ATOM     26  O   LIG    1        0.304  -3.780  -0.571  0.00  0.00    -0.142 OA
ATOM     27  O   LIG    1        0.247  -3.640   1.937  0.00  0.00    -0.142 OA
BRANCH  25  28
ATOM     28  O   LIG    1        2.276  -4.364   0.762  0.00  0.00    -0.250 OA
ATOM     29  H   LIG    1        1.993  -5.303   0.777  0.00  0.00    +0.245 HD
ENDBRANCH  25  28
ENDBRANCH  21  25
ENDBRANCH  18  19
ENDBRANCH  15  18
ENDBRANCH   9  15
ENDBRANCH   1  12
BRANCH   1  30
ATOM     30  C   LIG    1       10.312   1.897   4.498  0.00  0.00    -0.017 A 
ATOM     31  C   LIG    1       11.650   1.664   4.116  0.00  0.00    +0.010 A 
ATOM     32  C   LIG    1       12.621   2.679   4.084  0.00  0.00    +0.030 A 
ATOM     33  C   LIG    1       12.259   3.992   4.363  0.00  0.00    +0.117 A 
ATOM     34  C   LIG    1       10.947   4.284   4.709  0.00  0.00    +0.030 A 
ATOM     35  C   LIG    1       10.008   3.242   4.814  0.00  0.00    +0.010 A 
BRANCH  33  36
ATOM     36  S   LIG    1       13.482   5.275   4.353  0.00  0.00    +0.110 S 
ATOM     37  O   LIG    1       14.638   4.767   5.061  0.00  0.00    -0.142 OA
ATOM     38  O   LIG    1       12.864   6.527   4.712  0.00  0.00    -0.142 OA
BRANCH  36  39
ATOM     39  O   LIG    1       13.911   5.413   2.804  0.00  0.00    -0.250 OA
ATOM     40  H   LIG    1       14.332   6.295   2.694  0.00  0.00    +0.245 HD
ENDBRANCH  36  39
ENDBRANCH  33  36
ENDBRANCH   1  30
BRANCH   6  41
ATOM     41  C   LIG    1       10.045  -3.963   1.699  0.00  0.00    +0.348 C 
ATOM     42  C   LIG    1        9.613  -5.325   2.221  0.00  0.00    +0.082 C 
ENDBRANCH   6  41
BRANCH   6  43
ATOM     43  C   LIG    1       12.455  -3.082   2.096  0.00  0.00    +0.387 C 
BRANCH  43  44
ATOM     44  C   LIG    1       13.365  -4.288   1.915  0.00  0.00    +0.019 A 
ATOM     45  C   LIG    1       13.826  -5.037   3.010  0.00  0.00    +0.039 A 
ATOM     46  C   LIG    1       14.728  -6.099   2.821  0.00  0.00    +0.117 A 
ATOM     47  C   LIG    1       15.221  -6.428   1.555  0.00  0.00    +0.029 A 
ATOM     48  C   LIG    1       14.814  -5.659   0.468  0.00  0.00    +0.002 A 
ATOM     49  C   LIG    1       13.913  -4.597   0.647  0.00  0.00    +0.010 A 
BRANCH  46  50
ATOM     50  S   LIG    1       15.322  -7.057   4.194  0.00  0.00    +0.110 S 
ATOM     51  O   LIG    1       14.667  -8.313   4.169  0.00  0.00    -0.142 OA
ATOM     52  O   LIG    1       15.261  -6.179   5.364  0.00  0.00    -0.142 OA
BRANCH  50  53
ATOM     53  O   LIG    1       16.889  -7.283   3.900  0.00  0.00    -0.250 OA
ATOM     54  H   LIG    1       17.294  -7.778   4.637  0.00  0.00    +0.245 HD
ENDBRANCH  50  53
ENDBRANCH  46  50
ENDBRANCH  43  44
ENDBRANCH   6  43
TORSDOF 15
