REMARK  Name = *****
REMARK                            x       y       z     vdW  Elec       q    Type
REMARK                         _______ _______ _______ _____ _____    ______ ____
ROOT
ATOM      1  C   LIG    1       10.765  -5.731   3.146  0.00  0.00    +0.131 A 
ATOM      2  C   LIG    1        9.885  -6.853   3.080  0.00  0.00    +0.059 A 
ATOM      3  C   LIG    1       10.088  -7.935   3.963  0.00  0.00    +0.015 A 
ATOM      4  C   LIG    1       11.109  -7.937   4.904  0.00  0.00    +0.001 A 
ATOM      5  C   LIG    1       11.953  -6.842   4.983  0.00  0.00    +0.004 A 
ATOM      6  C   LIG    1       11.788  -5.764   4.107  0.00  0.00    +0.046 A 
ENDROOT
BRANCH   2   7
ATOM      7  C   LIG    1        8.727  -7.051   2.154  0.00  0.00    +0.167 C 
ATOM      8  O   LIG    1        8.402  -8.187   1.802  0.00  0.00    -0.292 OA
BRANCH   7   9
ATOM      9  C   LIG    1        7.895  -5.817   1.776  0.00  0.00    +0.084 C 
BRANCH   9  10
ATOM     10  C   LIG    1        6.440  -6.211   1.480  0.00  0.00    +0.043 C 
BRANCH  10  11
ATOM     11  C   LIG    1        5.602  -5.051   1.000  0.00  0.00    -0.047 A 
ATOM     12  C   LIG    1        5.899  -4.404  -0.209  0.00  0.00    +0.003 A 
ATOM     13  C   LIG    1        5.124  -3.328  -0.646  0.00  0.00    +0.000 A 
ATOM     14  C   LIG    1        4.038  -2.896   0.112  0.00  0.00    +0.000 A 
ATOM     15  C   LIG    1        3.724  -3.542   1.306  0.00  0.00    +0.000 A 
ATOM     16  C   LIG    1        4.501  -4.614   1.748  0.00  0.00    +0.003 A 
ENDBRANCH  10  11
ENDBRANCH   9  10
ENDBRANCH   7   9
ENDBRANCH   2   7
BRANCH   1  17
ATOM     17  O   LIG    1       10.675  -4.727   2.208  0.00  0.00    -0.489 OA
BRANCH  17  18
ATOM     18  C   LIG    1       11.178  -3.416   2.556  0.00  0.00    +0.261 C 
BRANCH  18  19
ATOM     19  C   LIG    1       11.658  -2.590   1.334  0.00  0.00    +0.166 C 
BRANCH  19  20
ATOM     20  O   LIG    1       10.541  -2.294   0.494  0.00  0.00    -0.387 OA
ATOM     21  H   LIG    1       10.922  -2.042  -0.368  0.00  0.00    +0.210 HD
ENDBRANCH  19  20
BRANCH  19  22
ATOM     22  C   LIG    1       12.795  -3.257   0.509  0.00  0.00    +0.115 C 
BRANCH  22  23
ATOM     23  N   LIG    1       13.279  -2.387  -0.606  0.00  0.00    -0.313 NA
ATOM     24  H   LIG    1       13.648  -1.517  -0.220  0.00  0.00    +0.122 HD
BRANCH  23  25
ATOM     25  C   LIG    1       14.355  -3.058  -1.365  0.00  0.00    +0.081 C 
BRANCH  25  27
ATOM     26  C   LIG    1       15.606  -0.967  -2.305  0.00  0.00    +0.005 C 
ATOM     27  C   LIG    1       14.894  -2.284  -2.586  0.00  0.00    +0.012 C 
ENDBRANCH  25  27
ENDBRANCH  23  25
ENDBRANCH  22  23
ENDBRANCH  19  22
ENDBRANCH  18  19
ENDBRANCH  17  18
ENDBRANCH   1  17
TORSDOF 12
