REMARK  Name = *****
REMARK                            x       y       z     vdW  Elec       q    Type
REMARK                         _______ _______ _______ _____ _____    ______ ____
ROOT
ATOM      1  C   LIG    1        7.273   2.964   3.773  0.00  0.00    +0.151 C 
ENDROOT
BRANCH   1   2
ATOM      2  O   LIG    1        8.591   3.206   3.259  0.00  0.00    -0.389 OA
ATOM      3  H   LIG    1        9.054   2.374   3.093  0.00  0.00    +0.210 HD
ENDBRANCH   1   2
BRANCH   1   4
ATOM      4  C   LIG    1        6.261   3.707   2.879  0.00  0.00    +0.142 C 
BRANCH   4   5
ATOM      5  N   LIG    1        6.411   5.194   2.770  0.00  0.00    -0.174 NA
BRANCH   5   6
ATOM      6  S   LIG    1        7.478   6.137   3.720  0.00  0.00    +0.061 S 
ATOM      7  O   LIG    1        8.268   6.963   2.834  0.00  0.00    -0.153 OA
ATOM      8  O   LIG    1        8.104   5.375   4.783  0.00  0.00    -0.153 OA
BRANCH   6   9
ATOM      9  C   LIG    1        6.365   7.231   4.582  0.00  0.00    +0.106 A 
ATOM     10  C   LIG    1        5.751   6.787   5.752  0.00  0.00    +0.030 A 
ATOM     11  C   LIG    1        4.723   7.547   6.304  0.00  0.00    +0.024 A 
ATOM     12  C   LIG    1        4.374   8.787   5.758  0.00  0.00    +0.025 A 
ATOM     13  C   LIG    1        5.067   9.256   4.636  0.00  0.00    +0.024 A 
ATOM     14  C   LIG    1        6.079   8.491   4.054  0.00  0.00    +0.030 A 
BRANCH  12  15
ATOM     15  N   LIG    1        3.188   9.412   6.158  0.00  0.00    -0.358 N 
ATOM     16  H   LIG    1        2.866   9.150   7.083  0.00  0.00    +0.142 HD
ATOM     17  H   LIG    1        3.173  10.415   6.006  0.00  0.00    +0.142 HD
ENDBRANCH  12  15
ENDBRANCH   6   9
ENDBRANCH   5   6
BRANCH   5  18
ATOM     18  C   LIG    1        5.393   5.864   1.889  0.00  0.00    +0.112 C 
BRANCH  18  20
ATOM     19  C   LIG    1        4.441   6.248  -0.439  0.00  0.00    +0.008 C 
ATOM     20  C   LIG    1        5.543   5.559   0.382  0.00  0.00    -0.002 C 
ATOM     21  C   LIG    1        6.878   6.011  -0.203  0.00  0.00    +0.008 C 
ENDBRANCH  18  20
ENDBRANCH   5  18
ENDBRANCH   4   5
ENDBRANCH   1   4
BRANCH   1  22
ATOM     22  C   LIG    1        6.988   1.446   3.894  0.00  0.00    +0.110 C 
BRANCH  22  23
ATOM     23  N   LIG    1        7.127   0.779   2.607  0.00  0.00    -0.275 N 
ATOM     24  H   LIG    1        7.999   0.809   2.096  0.00  0.00    +0.152 HD
ATOM     25  C   LIG    1        6.263  -0.170   2.176  0.00  0.00    +0.401 C 
ATOM     26  O   LIG    1        5.124  -0.369   2.608  0.00  0.00    -0.227 OA
BRANCH  25  27
ATOM     27  O   LIG    1        6.817  -0.798   1.129  0.00  0.00    -0.445 OA
BRANCH  27  28
ATOM     28  C   LIG    1        5.962  -0.931  -0.015  0.00  0.00    +0.206 C 
ATOM     29  C   LIG    1        5.890  -2.365  -0.512  0.00  0.00    +0.204 C 
ATOM     30  O   LIG    1        7.008  -2.571  -1.399  0.00  0.00    -0.376 OA
ATOM     31  C   LIG    1        7.689  -1.321  -1.553  0.00  0.00    +0.163 C 
ATOM     32  C   LIG    1        6.707  -0.244  -1.137  0.00  0.00    +0.075 C 
ENDBRANCH  27  28
ENDBRANCH  25  27
ENDBRANCH  22  23
BRANCH  22  33
ATOM     33  C   LIG    1        7.937   0.796   4.934  0.00  0.00    +0.060 C 
BRANCH  33  34
ATOM     34  C   LIG    1        7.649  -0.668   5.165  0.00  0.00    -0.045 A 
ATOM     35  C   LIG    1        8.280  -1.649   4.385  0.00  0.00    +0.003 A 
ATOM     36  C   LIG    1        7.977  -2.997   4.563  0.00  0.00    +0.000 A 
ATOM     37  C   LIG    1        7.054  -3.379   5.534  0.00  0.00    +0.000 A 
ATOM     38  C   LIG    1        6.423  -2.412   6.316  0.00  0.00    +0.000 A 
ATOM     39  C   LIG    1        6.711  -1.061   6.127  0.00  0.00    +0.003 A 
ENDBRANCH  33  34
ENDBRANCH  22  33
ENDBRANCH   1  22
TORSDOF 14
