REMARK  Name = *****
REMARK                            x       y       z     vdW  Elec       q    Type
REMARK                         _______ _______ _______ _____ _____    ______ ____
ROOT
ATOM      1  C   LIG    1        5.292  -6.658  -1.815  0.00  0.00    +0.234 C 
ENDROOT
BRANCH   1   2
ATOM      2  C   LIG    1        4.559  -7.968  -2.239  0.00  0.00    +0.177 C 
ATOM      3  O   LIG    1        4.845  -8.265  -3.629  0.00  0.00    -0.370 OA
ATOM      4  C   LIG    1        4.223  -9.495  -4.014  0.00  0.00    +0.175 C 
ATOM      5  C   LIG    1        2.701  -9.365  -3.911  0.00  0.00    +0.109 C 
ATOM      6  N   LIG    1        2.280  -9.016  -2.544  0.00  0.00    -0.311 NA
ATOM      7  H   LIG    1        1.281  -8.812  -2.542  0.00  0.00    +0.122 HD
ATOM      8  C   LIG    1        3.023  -7.824  -2.077  0.00  0.00    +0.116 C 
ENDBRANCH   1   2
BRANCH   1   9
ATOM      9  C   LIG    1        6.781  -6.757  -2.145  0.00  0.00    -0.005 A 
ATOM     10  C   LIG    1        7.225  -6.386  -3.428  0.00  0.00    +0.007 A 
ATOM     11  C   LIG    1        8.555  -6.567  -3.807  0.00  0.00    +0.000 A 
ATOM     12  C   LIG    1        9.464  -7.111  -2.905  0.00  0.00    +0.000 A 
ATOM     13  C   LIG    1        9.045  -7.465  -1.622  0.00  0.00    +0.000 A 
ATOM     14  C   LIG    1        7.711  -7.292  -1.244  0.00  0.00    +0.007 A 
ENDBRANCH   1   9
BRANCH   1  15
ATOM     15  O   LIG    1        5.081  -6.437  -0.408  0.00  0.00    -0.478 OA
BRANCH  15  17
ATOM     16  C   LIG    1        5.591  -4.895   1.342  0.00  0.00    +0.162 A 
ATOM     17  C   LIG    1        5.056  -5.145   0.059  0.00  0.00    +0.163 A 
ATOM     18  C   LIG    1        4.454  -4.094  -0.642  0.00  0.00    +0.049 A 
ATOM     19  C   LIG    1        4.417  -2.805  -0.107  0.00  0.00    +0.004 A 
ATOM     20  C   LIG    1        4.938  -2.561   1.159  0.00  0.00    +0.004 A 
ATOM     21  C   LIG    1        5.503  -3.606   1.888  0.00  0.00    +0.049 A 
BRANCH  16  22
ATOM     22  O   LIG    1        6.168  -5.954   2.002  0.00  0.00    -0.489 OA
BRANCH  22  24
ATOM     23  C   LIG    1        7.945  -6.825   3.351  0.00  0.00    +0.048 C 
ATOM     24  C   LIG    1        7.075  -5.618   3.056  0.00  0.00    +0.226 C 
ENDBRANCH  22  24
ENDBRANCH  16  22
ENDBRANCH  15  17
ENDBRANCH   1  15
TORSDOF 6
