REMARK  Name = *****
REMARK                            x       y       z     vdW  Elec       q    Type
REMARK                         _______ _______ _______ _____ _____    ______ ____
ROOT
ATOM      1  C   LIG    1        0.991   0.005   0.006  0.00  0.00    +0.067 C 
ATOM      2  C   LIG    1        2.501   0.099  -0.069  0.00  0.00    +0.061 C 
ATOM      3  N   LIG    1        3.215  -1.120  -0.185  0.00  0.00    -0.351 NA
ATOM      4  C   LIG    1        2.532  -2.423  -0.178  0.00  0.00    +0.149 C 
ATOM      5  C   LIG    1        4.592  -1.078  -0.352  0.00  0.00    +0.089 C 
ATOM      6  C   LIG    1        5.324   0.036  -0.399  0.00  0.00    +0.072 C 
ATOM      7  C   LIG    1        4.628   1.329  -0.251  0.00  0.00    +0.223 C 
ATOM      8  O   LIG    1        5.273   2.372  -0.278  0.00  0.00    -0.284 OA
ATOM      9  C   LIG    1        3.134   1.301  -0.064  0.00  0.00    +0.183 C 
ENDROOT
BRANCH   9  10
ATOM     10  O   LIG    1        2.510   2.525   0.092  0.00  0.00    -0.502 OA
ATOM     11  H   LIG    1        1.680   2.399   0.574  0.00  0.00    +0.292 HD
ENDBRANCH   9  10
TORSDOF 1
