REMARK  Name = *****
REMARK                            x       y       z     vdW  Elec       q    Type
REMARK                         _______ _______ _______ _____ _____    ______ ____
ROOT
ATOM      1  C   LIG    1        9.738   6.720  -2.816  0.00  0.00    +0.050 C 
ATOM      2  C   LIG    1        9.564   7.180  -1.355  0.00  0.00    +0.065 C 
ATOM      3  C   LIG    1        9.878   8.656  -1.482  0.00  0.00    +0.140 C 
ATOM      4  O   LIG    1        9.540   9.498  -0.658  0.00  0.00    -0.297 OA
ATOM      5  C   LIG    1       10.658   8.988  -2.728  0.00  0.00    +0.106 C 
ATOM      6  C   LIG    1       10.850   7.622  -3.382  0.00  0.00    +0.129 C 
ENDROOT
BRANCH   6   7
ATOM      7  O   LIG    1       12.135   7.105  -3.048  0.00  0.00    -0.391 OA
ATOM      8  H   LIG    1       12.271   6.292  -3.567  0.00  0.00    +0.210 HD
ENDBRANCH   6   7
BRANCH   1  10
ATOM      9  C   LIG    1        7.546   5.918  -3.756  0.00  0.00    -0.028 C 
ATOM     10  C   LIG    1        8.447   6.900  -3.591  0.00  0.00    -0.024 C 
BRANCH   9  11
ATOM     11  C   LIG    1        6.228   6.095  -4.468  0.00  0.00    +0.061 C 
BRANCH  11  12
ATOM     12  C   LIG    1        4.971   5.837  -3.592  0.00  0.00    +0.067 C 
ATOM     13  C   LIG    1        3.713   6.113  -4.428  0.00  0.00    +0.041 C 
BRANCH  12  14
ATOM     14  O   LIG    1        4.960   6.781  -2.506  0.00  0.00    -0.389 OA
ATOM     15  H   LIG    1        4.854   7.675  -2.874  0.00  0.00    +0.210 HD
ENDBRANCH  12  14
BRANCH  12  16
ATOM     16  C   LIG    1        4.919   4.434  -2.936  0.00  0.00    +0.035 C 
BRANCH  16  17
ATOM     17  C   LIG    1        4.827   3.237  -3.895  0.00  0.00    +0.002 C 
BRANCH  17  19
ATOM     18  C   LIG    1        4.706   0.693  -4.050  0.00  0.00    +0.004 C 
ATOM     19  C   LIG    1        4.849   1.903  -3.133  0.00  0.00    -0.003 C 
ENDBRANCH  17  19
ENDBRANCH  16  17
ENDBRANCH  12  16
ENDBRANCH  11  12
ENDBRANCH   9  11
ENDBRANCH   1  10
BRANCH   2  20
ATOM     20  C   LIG    1       10.536   6.570  -0.335  0.00  0.00    +0.011 C 
BRANCH  20  21
ATOM     21  C   LIG    1       10.326   5.069  -0.096  0.00  0.00    +0.001 C 
BRANCH  21  22
ATOM     22  C   LIG    1       11.316   4.462   0.913  0.00  0.00    +0.000 C 
BRANCH  22  23
ATOM     23  C   LIG    1       11.234   5.099   2.301  0.00  0.00    +0.000 C 
BRANCH  23  24
ATOM     24  C   LIG    1       12.283   4.526   3.267  0.00  0.00    +0.011 C 
BRANCH  24  25
ATOM     25  C   LIG    1       12.229   5.148   4.668  0.00  0.00    +0.120 C 
BRANCH  25  26
ATOM     26  C   LIG    1       12.569   6.636   4.751  0.00  0.00    +0.307 C 
ATOM     27  O   LIG    1       12.504   7.267   5.780  0.00  0.00    -0.251 OA
BRANCH  26  28
ATOM     28  O   LIG    1       12.926   7.135   3.532  0.00  0.00    -0.468 OA
ATOM     29  C   LIG    1       13.083   8.548   3.466  0.00  0.00    +0.280 C 
ENDBRANCH  26  28
ENDBRANCH  25  26
ENDBRANCH  24  25
ENDBRANCH  23  24
ENDBRANCH  22  23
ENDBRANCH  21  22
ENDBRANCH  20  21
ENDBRANCH   2  20
TORSDOF 16
