REMARK  Name = *****
REMARK                            x       y       z     vdW  Elec       q    Type
REMARK                         _______ _______ _______ _____ _____    ______ ____
ROOT
ATOM      1  C   LIG    1        6.351  -1.375   2.211  0.00  0.00    -0.017 C 
ATOM      2  C   LIG    1        7.495  -1.661   2.868  0.00  0.00    -0.013 C 
ATOM      3  C   LIG    1        8.819  -1.126   2.455  0.00  0.00    -0.003 A 
ATOM      4  C   LIG    1        9.889  -2.028   2.291  0.00  0.00    +0.021 A 
ATOM      5  C   LIG    1       11.146  -1.555   1.891  0.00  0.00    +0.017 A 
ATOM      6  C   LIG    1       11.354  -0.188   1.700  0.00  0.00    +0.021 A 
ATOM      7  C   LIG    1       10.310   0.707   1.924  0.00  0.00    +0.042 A 
ATOM      8 CL   LIG    1       10.578   2.396   1.730  0.00  0.00    -0.084 Cl
ATOM      9  S   LIG    1        9.706  -3.782   2.626  0.00  0.00    -0.088 S 
ATOM     10  C   LIG    1        8.420  -3.742   3.880  0.00  0.00    +0.021 A 
ATOM     11  C   LIG    1        8.400  -4.751   4.850  0.00  0.00    +0.015 A 
ATOM     12  C   LIG    1        7.434  -4.740   5.858  0.00  0.00    +0.001 A 
ATOM     13  C   LIG    1        6.485  -3.721   5.904  0.00  0.00    +0.001 A 
ATOM     14  C   LIG    1        6.489  -2.716   4.935  0.00  0.00    +0.009 A 
ATOM     15  C   LIG    1        9.051   0.248   2.308  0.00  0.00    +0.029 A 
ATOM     16  C   LIG    1        7.444  -2.726   3.908  0.00  0.00    -0.004 A 
ENDROOT
BRANCH   1  17
ATOM     17  C   LIG    1        6.144  -0.497   0.998  0.00  0.00    +0.043 C 
BRANCH  17  18
ATOM     18  C   LIG    1        5.202   0.678   1.314  0.00  0.00    +0.088 C 
BRANCH  18  20
ATOM     19  C   LIG    1        3.969   2.599   0.560  0.00  0.00    +0.104 C 
ATOM     20  N   LIG    1        4.949   1.580   0.173  0.00  0.00    -0.308 NA
ATOM     21  C   LIG    1        6.173   2.231  -0.301  0.00  0.00    +0.104 C 
ENDBRANCH  18  20
ENDBRANCH  17  18
ENDBRANCH   1  17
TORSDOF 3
