REMARK  Name = *****
REMARK                            x       y       z     vdW  Elec       q    Type
REMARK                         _______ _______ _______ _____ _____    ______ ____
ROOT
ATOM      1  C   LIG    1       -6.807  -0.944  -3.202  0.00  0.00    +0.186 C 
ATOM      2  O   LIG    1       -6.200   0.366  -3.476  0.00  0.00    -0.459 OA
ATOM      3  C   LIG    1       -5.179   0.393  -4.386  0.00  0.00    +0.328 C 
ATOM      4  O   LIG    1       -4.795  -0.602  -5.027  0.00  0.00    -0.249 OA
ATOM      5  C   LIG    1       -4.392   1.721  -4.483  0.00  0.00    +0.185 C 
ATOM      6  N   LIG    1       -5.114   2.914  -4.979  0.00  0.00    -0.281 N 
ATOM      7  C   LIG    1       -4.534   4.229  -4.680  0.00  0.00    +0.109 C 
ATOM      8  C   LIG    1       -3.906   4.384  -3.306  0.00  0.00    +0.019 C 
ATOM      9  C   LIG    1       -2.959   3.234  -3.023  0.00  0.00    +0.004 C 
ATOM     10  C   LIG    1       -5.681   2.903  -6.282  0.00  0.00    +0.288 C 
ATOM     11  O   LIG    1       -6.045   3.937  -6.865  0.00  0.00    -0.267 OA
ATOM     12  C   LIG    1       -5.726   1.624  -7.087  0.00  0.00    +0.276 C 
ATOM     13  O   LIG    1       -4.698   1.279  -7.682  0.00  0.00    -0.281 OA
ATOM     14  C   LIG    1       -7.072   0.890  -7.119  0.00  0.00    +0.240 C 
ATOM     15  O   LIG    1       -6.778  -0.509  -6.973  0.00  0.00    -0.339 OA
ATOM     16  C   LIG    1       -7.077  -1.332  -8.090  0.00  0.00    +0.125 C 
ATOM     17  C   LIG    1       -8.554  -1.252  -8.435  0.00  0.00    +0.032 C 
ATOM     18  C   LIG    1       -9.037   0.196  -8.534  0.00  0.00    +0.011 C 
ATOM     19  C   LIG    1       -6.525  -2.749  -7.898  0.00  0.00    +0.067 C 
ATOM     20  C   LIG    1       -6.835  -3.633  -6.651  0.00  0.00    +0.146 C 
ATOM     21  C   LIG    1       -8.226  -4.266  -6.550  0.00  0.00    -0.044 C 
ATOM     22  C   LIG    1       -8.811  -4.753  -7.863  0.00  0.00    +0.041 C 
ATOM     23  C   LIG    1       -8.928  -4.539  -5.422  0.00  0.00    +0.001 C 
ATOM     24  C   LIG    1       -8.629  -4.310  -4.007  0.00  0.00    +0.000 C 
ATOM     25  C   LIG    1       -9.585  -4.508  -3.074  0.00  0.00    -0.000 C 
ATOM     26  C   LIG    1       -9.581  -4.155  -1.653  0.00  0.00    -0.004 C 
ATOM     27  C   LIG    1      -10.730  -3.706  -1.103  0.00  0.00    -0.024 C 
ATOM     28  C   LIG    1      -11.071  -3.163   0.270  0.00  0.00    +0.009 C 
ATOM     29  C   LIG    1      -11.051  -1.629   0.213  0.00  0.00    +0.012 C 
ATOM     30  C   LIG    1      -12.453  -3.573   0.896  0.00  0.00    +0.018 C 
ATOM     31  C   LIG    1      -13.351  -4.528   0.103  0.00  0.00    +0.056 C 
ATOM     32  C   LIG    1      -14.444  -5.141   0.991  0.00  0.00    +0.015 C 
ATOM     33  C   LIG    1      -14.084  -3.877  -1.080  0.00  0.00    +0.167 C 
ATOM     34  O   LIG    1      -14.866  -2.936  -0.888  0.00  0.00    -0.294 OA
ATOM     35  C   LIG    1      -13.867  -4.412  -2.525  0.00  0.00    +0.216 C 
ATOM     36  C   LIG    1      -13.494  -3.093  -3.350  0.00  0.00    +0.176 C 
ATOM     37  C   LIG    1      -12.540  -3.098  -4.541  0.00  0.00    -0.045 C 
ATOM     38  C   LIG    1      -12.932  -4.014  -5.679  0.00  0.00    +0.041 C 
ATOM     39  C   LIG    1      -11.455  -2.287  -4.695  0.00  0.00    -0.015 C 
ATOM     40  C   LIG    1      -10.806  -1.273  -3.747  0.00  0.00    +0.075 C 
ATOM     41  C   LIG    1      -11.479   0.090  -3.862  0.00  0.00    +0.019 C 
ATOM     42  C   LIG    1       -9.287  -1.075  -4.043  0.00  0.00    +0.143 C 
ATOM     43  O   LIG    1       -8.882  -1.026  -5.207  0.00  0.00    -0.297 OA
ATOM     44  C   LIG    1       -7.893   1.213  -8.391  0.00  0.00    +0.054 C 
ATOM     45  C   LIG    1       -8.472   2.630  -8.421  0.00  0.00    +0.013 C 
ATOM     46  C   LIG    1       -3.739   1.933  -3.103  0.00  0.00    +0.034 C 
ATOM     47  C   LIG    1       -8.329  -0.799  -2.870  0.00  0.00    +0.119 C 
ENDROOT
BRANCH   1  48
ATOM     48  C   LIG    1       -6.013  -1.697  -2.055  0.00  0.00    +0.027 C 
ATOM     49  C   LIG    1       -4.522  -1.829  -2.398  0.00  0.00    +0.011 C 
BRANCH  48  50
ATOM     50  C   LIG    1       -6.215  -1.095  -0.632  0.00  0.00    +0.010 C 
BRANCH  50  55
ATOM     51  C   LIG    1       -5.984  -1.951   3.132  0.00  0.00    +0.147 C 
ATOM     52  C   LIG    1       -5.024  -3.154   3.111  0.00  0.00    +0.147 C 
ATOM     53  C   LIG    1       -5.332  -4.037   1.897  0.00  0.00    +0.034 C 
ATOM     54  C   LIG    1       -5.676  -3.303   0.593  0.00  0.00    +0.006 C 
ATOM     55  C   LIG    1       -5.454  -1.784   0.556  0.00  0.00    -0.008 C 
ATOM     56  C   LIG    1       -5.772  -1.062   1.893  0.00  0.00    +0.037 C 
BRANCH  51  58
ATOM     57  C   LIG    1       -7.744  -2.989   4.387  0.00  0.00    +0.194 C 
ATOM     58  O   LIG    1       -7.366  -2.345   3.172  0.00  0.00    -0.377 OA
ENDBRANCH  51  58
BRANCH  52  59
ATOM     59  O   LIG    1       -3.633  -2.777   3.097  0.00  0.00    -0.372 OA
BRANCH  59  60
ATOM     60  C   LIG    1       -3.243  -2.078   4.285  0.00  0.00    +0.188 C 
BRANCH  60  61
ATOM     61  C   LIG    1       -1.733  -1.877   4.347  0.00  0.00    +0.184 C 
BRANCH  61  62
ATOM     62  O   LIG    1       -1.409  -1.169   5.541  0.00  0.00    -0.393 OA
ATOM     63  H   LIG    1       -0.444  -1.220   5.653  0.00  0.00    +0.209 HD
ENDBRANCH  61  62
ENDBRANCH  60  61
ENDBRANCH  59  60
ENDBRANCH  52  59
ENDBRANCH  50  55
ENDBRANCH  48  50
ENDBRANCH   1  48
BRANCH  14  64
ATOM     64  O   LIG    1       -7.841   1.212  -5.976  0.00  0.00    -0.358 OA
ATOM     65  H   LIG    1       -8.212   0.332  -5.745  0.00  0.00    +0.213 HD
ENDBRANCH  14  64
BRANCH  20  66
ATOM     66  O   LIG    1       -5.968  -4.801  -6.689  0.00  0.00    -0.375 OA
ATOM     67  C   LIG    1       -4.575  -4.520  -6.754  0.00  0.00    +0.194 C 
ENDBRANCH  20  66
BRANCH  35  68
ATOM     68  O   LIG    1      -12.918  -5.470  -2.629  0.00  0.00    -0.369 OA
ATOM     69  C   LIG    1      -13.351  -6.737  -2.119  0.00  0.00    +0.195 C 
ENDBRANCH  35  68
BRANCH  36  70
ATOM     70  O   LIG    1      -14.723  -2.525  -3.849  0.00  0.00    -0.385 OA
ATOM     71  H   LIG    1      -15.236  -2.252  -3.065  0.00  0.00    +0.210 HD
ENDBRANCH  36  70
TORSDOF 12
