REMARK  Name = *****
REMARK                            x       y       z     vdW  Elec       q    Type
REMARK                         _______ _______ _______ _____ _____    ______ ____
ROOT
ATOM      1  C   LIG    1        5.969   3.040  -0.031  0.00  0.00    +0.253 C 
ATOM      2  C   LIG    1        6.392   4.475   0.306  0.00  0.00    +0.195 C 
ATOM      3  C   LIG    1        7.896   4.297   0.429  0.00  0.00    +0.178 C 
ATOM      4  C   LIG    1        8.018   2.914   1.088  0.00  0.00    +0.178 C 
ATOM      5  O   LIG    1        6.837   2.162   0.730  0.00  0.00    -0.346 OA
ENDROOT
BRANCH   1  10
ATOM      6  C   LIG    1        1.158   2.973  -0.470  0.00  0.00    +0.150 A 
ATOM      7  C   LIG    1        2.405   2.603   0.061  0.00  0.00    +0.147 A 
ATOM      8  N   LIG    1        2.779   1.642   0.974  0.00  0.00    -0.231 NA
ATOM      9  C   LIG    1        4.089   1.755   1.063  0.00  0.00    +0.203 A 
ATOM     10  N   LIG    1        4.581   2.723   0.228  0.00  0.00    -0.285 N 
ATOM     11  C   LIG    1        3.510   3.292  -0.411  0.00  0.00    +0.170 A 
ATOM     12  N   LIG    1        3.520   4.286  -1.313  0.00  0.00    -0.182 NA
ATOM     13  C   LIG    1        2.268   4.570  -1.735  0.00  0.00    +0.313 A 
ATOM     14  F   LIG    1        2.161   5.573  -2.622  0.00  0.00    -0.161 F 
ATOM     15  N   LIG    1        1.112   3.967  -1.381  0.00  0.00    -0.185 NA
BRANCH   6  16
ATOM     16  N   LIG    1       -0.030   2.341  -0.122  0.00  0.00    -0.341 N 
ATOM     17  H   LIG    1        0.110   1.415   0.270  0.00  0.00    +0.144 HD
ATOM     18  H   LIG    1       -0.742   2.442  -0.833  0.00  0.00    +0.144 HD
ENDBRANCH   6  16
ENDBRANCH   1  10
BRANCH   2  19
ATOM     19  O   LIG    1        5.870   4.924   1.560  0.00  0.00    -0.385 OA
ATOM     20  H   LIG    1        6.090   5.869   1.646  0.00  0.00    +0.210 HD
ENDBRANCH   2  19
BRANCH   3  21
ATOM     21  O   LIG    1        8.461   4.283  -0.886  0.00  0.00    -0.386 OA
ATOM     22  H   LIG    1        9.429   4.221  -0.791  0.00  0.00    +0.210 HD
ENDBRANCH   3  21
BRANCH   4  23
ATOM     23  C   LIG    1        8.122   2.969   2.615  0.00  0.00    +0.206 C 
BRANCH  23  24
ATOM     24  O   LIG    1        9.247   3.742   3.002  0.00  0.00    -0.284 OA
BRANCH  24  25
ATOM     25  P   LIG    1        9.505   3.885   4.576  0.00  0.00    +0.472 P 
ATOM     26  O   LIG    1        9.662   2.633   5.357  0.00  0.00    -0.228 OA
BRANCH  25  27
ATOM     27  O   LIG    1        8.291   4.779   5.103  0.00  0.00    -0.303 OA
ATOM     28  H   LIG    1        8.122   4.580   6.044  0.00  0.00    +0.222 HD
ENDBRANCH  25  27
BRANCH  25  29
ATOM     29  O   LIG    1       10.697   4.937   4.691  0.00  0.00    -0.303 OA
ATOM     30  H   LIG    1       10.453   5.793   4.303  0.00  0.00    +0.222 HD
ENDBRANCH  25  29
ENDBRANCH  24  25
ENDBRANCH  23  24
ENDBRANCH   4  23
TORSDOF 9
