REMARK  Name = *****
REMARK                            x       y       z     vdW  Elec       q    Type
REMARK                         _______ _______ _______ _____ _____    ______ ____
ROOT
ATOM      1  O   LIG    1        6.286  -4.875  -0.783  0.00  0.00    -0.489 OA
ENDROOT
BRANCH   1   2
ATOM      2  C   LIG    1        7.607  -4.675  -1.137  0.00  0.00    +0.124 A 
ATOM      3  C   LIG    1        8.502  -5.777  -1.143  0.00  0.00    -0.003 A 
ATOM      4  C   LIG    1        9.847  -5.515  -1.447  0.00  0.00    +0.007 A 
ATOM      5  C   LIG    1       10.328  -4.239  -1.724  0.00  0.00    +0.001 A 
ATOM      6  C   LIG    1        9.439  -3.179  -1.768  0.00  0.00    +0.004 A 
ATOM      7  C   LIG    1        8.097  -3.405  -1.504  0.00  0.00    +0.046 A 
BRANCH   3   8
ATOM      8  C   LIG    1        8.081  -7.224  -0.842  0.00  0.00    +0.023 C 
ATOM      9  C   LIG    1        7.699  -8.030  -2.112  0.00  0.00    +0.008 C 
ATOM     10  C   LIG    1        8.038  -9.480  -1.779  0.00  0.00    +0.001 C 
ATOM     11  C   LIG    1        9.355  -9.354  -1.041  0.00  0.00    +0.001 C 
ATOM     12  C   LIG    1        9.158  -8.126  -0.152  0.00  0.00    +0.008 C 
ENDBRANCH   3   8
ENDBRANCH   1   2
BRANCH   1  13
ATOM     13  C   LIG    1        5.622  -3.683  -0.271  0.00  0.00    +0.261 C 
BRANCH  13  14
ATOM     14  C   LIG    1        4.137  -3.897   0.059  0.00  0.00    +0.166 C 
BRANCH  14  15
ATOM     15  O   LIG    1        3.412  -4.252  -1.122  0.00  0.00    -0.387 OA
ATOM     16  H   LIG    1        2.797  -4.962  -0.853  0.00  0.00    +0.210 HD
ENDBRANCH  14  15
BRANCH  14  17
ATOM     17  C   LIG    1        3.959  -4.958   1.149  0.00  0.00    +0.116 C 
BRANCH  17  18
ATOM     18  N   LIG    1        2.534  -5.172   1.470  0.00  0.00    -0.309 NA
ATOM     19  H   LIG    1        2.107  -4.278   1.722  0.00  0.00    +0.122 HD
BRANCH  18  21
ATOM     20  C   LIG    1        0.788  -6.268   2.784  0.00  0.00    +0.027 C 
ATOM     21  C   LIG    1        2.309  -6.139   2.568  0.00  0.00    +0.011 C 
ATOM     22  C   LIG    1        2.867  -7.525   2.203  0.00  0.00    +0.027 C 
ATOM     23  C   LIG    1        2.934  -5.649   3.886  0.00  0.00    +0.027 C 
ENDBRANCH  18  21
ENDBRANCH  17  18
ENDBRANCH  14  17
ENDBRANCH  13  14
ENDBRANCH   1  13
TORSDOF 8
