REMARK  Name = *****
REMARK                            x       y       z     vdW  Elec       q    Type
REMARK                         _______ _______ _______ _____ _____    ______ ____
ROOT
ATOM      1  C   LIG    1        2.953   1.191  -0.963  0.00  0.00    +0.072 C 
ATOM      2  C   LIG    1        1.695   1.970  -1.412  0.00  0.00    +0.230 C 
ATOM      3  O   LIG    1        0.867   1.533  -2.212  0.00  0.00    -0.274 OA
ATOM      4  N   LIG    1        1.449   3.180  -0.806  0.00  0.00    -0.256 N 
ATOM      5  H   LIG    1        0.594   3.639  -1.091  0.00  0.00    +0.158 HD
ATOM      6  C   LIG    1        2.144   3.802   0.198  0.00  0.00    +0.219 C 
ATOM      7  O   LIG    1        1.716   4.822   0.727  0.00  0.00    -0.275 OA
ATOM      8  C   LIG    1        3.404   3.121   0.664  0.00  0.00    +0.097 C 
ATOM      9  C   LIG    1        3.982   2.221  -0.418  0.00  0.00    +0.030 C 
ENDROOT
BRANCH   1  10
ATOM     10  C   LIG    1        3.669   0.459  -2.122  0.00  0.00    -0.032 A 
ATOM     11  C   LIG    1        4.470  -0.676  -1.886  0.00  0.00    +0.005 A 
ATOM     12  C   LIG    1        5.123  -1.339  -2.928  0.00  0.00    +0.000 A 
ATOM     13  C   LIG    1        5.018  -0.865  -4.230  0.00  0.00    +0.000 A 
ATOM     14  C   LIG    1        4.268   0.277  -4.487  0.00  0.00    +0.000 A 
ATOM     15  C   LIG    1        3.606   0.936  -3.445  0.00  0.00    +0.005 A 
ENDBRANCH   1  10
BRANCH   1  17
ATOM     16  C   LIG    1        1.518  -0.868  -0.243  0.00  0.00    +0.005 C 
ATOM     17  C   LIG    1        2.493   0.230   0.182  0.00  0.00    +0.017 C 
ENDBRANCH   1  17
TORSDOF 2
