REMARK  Name = *****
REMARK                            x       y       z     vdW  Elec       q    Type
REMARK                         _______ _______ _______ _____ _____    ______ ____
ROOT
ATOM      1  C   LIG    1        4.178  10.937  -2.093  0.00  0.00    -0.046 A 
ATOM      2  C   LIG    1        4.049  11.815  -1.007  0.00  0.00    +0.005 A 
ATOM      3  C   LIG    1        4.332  13.177  -1.167  0.00  0.00    +0.029 A 
ATOM      4  C   LIG    1        4.716  13.664  -2.421  0.00  0.00    +0.109 A 
ATOM      5  C   LIG    1        4.857  12.793  -3.502  0.00  0.00    +0.029 A 
ATOM      6  C   LIG    1        4.587  11.439  -3.336  0.00  0.00    +0.005 A 
ENDROOT
BRANCH   4   7
ATOM      7  S   LIG    1        5.110  15.382  -2.650  0.00  0.00    +0.076 S 
ATOM      8  O   LIG    1        5.929  15.476  -3.847  0.00  0.00    -0.150 OA
ATOM      9  O   LIG    1        5.581  15.936  -1.401  0.00  0.00    -0.150 OA
BRANCH   7  10
ATOM     10  N   LIG    1        3.665  16.093  -3.077  0.00  0.00    -0.169 N 
ATOM     11  H   LIG    1        3.674  16.456  -4.017  0.00  0.00    +0.178 HD
ATOM     12  C   LIG    1        2.520  16.081  -2.296  0.00  0.00    +0.319 C 
ATOM     13  N   LIG    1        1.448  16.710  -2.881  0.00  0.00    -0.295 N 
ATOM     14  H   LIG    1        1.614  17.283  -3.689  0.00  0.00    +0.151 HD
ATOM     15  O   LIG    1        2.466  15.545  -1.211  0.00  0.00    -0.251 OA
BRANCH  13  16
ATOM     16  C   LIG    1        0.142  16.773  -2.212  0.00  0.00    +0.074 C 
ATOM     17  C   LIG    1       -0.428  15.361  -1.982  0.00  0.00    +0.022 C 
ATOM     18  C   LIG    1       -1.863  15.363  -1.469  0.00  0.00    +0.005 C 
ATOM     19  C   LIG    1       -2.806  16.169  -2.361  0.00  0.00    -0.014 C 
ATOM     20  C   LIG    1       -3.026  15.488  -3.715  0.00  0.00    +0.007 C 
ATOM     21  C   LIG    1       -2.274  17.598  -2.519  0.00  0.00    +0.005 C 
ATOM     22  C   LIG    1       -0.827  17.655  -3.019  0.00  0.00    +0.022 C 
ENDBRANCH  13  16
ENDBRANCH   7  10
ENDBRANCH   4   7
BRANCH   1  23
ATOM     23  C   LIG    1        3.918   9.454  -1.960  0.00  0.00    +0.054 C 
BRANCH  23  24
ATOM     24  C   LIG    1        5.181   8.647  -1.628  0.00  0.00    +0.110 C 
BRANCH  24  30
ATOM     25  C   LIG    1        8.959   9.224  -5.859  0.00  0.00    +0.015 C 
ATOM     26  C   LIG    1        8.190   9.340  -4.599  0.00  0.00    +0.250 C 
ATOM     27  O   LIG    1        8.050  10.372  -3.964  0.00  0.00    -0.270 OA
ATOM     28  N   LIG    1        7.692   8.077  -4.294  0.00  0.00    -0.218 N 
ATOM     29  C   LIG    1        6.733   7.730  -3.355  0.00  0.00    +0.309 C 
ATOM     30  N   LIG    1        6.222   8.776  -2.636  0.00  0.00    -0.299 N 
ATOM     31  H   LIG    1        6.698   9.674  -2.721  0.00  0.00    +0.150 HD
ATOM     32  O   LIG    1        6.341   6.573  -3.216  0.00  0.00    -0.252 OA
ATOM     33  C   LIG    1        8.234   7.086  -5.180  0.00  0.00    +0.149 C 
ATOM     34  C   LIG    1        8.969   7.920  -6.179  0.00  0.00    -0.047 C 
ATOM     35  C   LIG    1        9.572   7.264  -7.372  0.00  0.00    +0.041 C 
BRANCH  25  37
ATOM     36  C   LIG    1        8.582  11.050  -7.521  0.00  0.00    +0.009 C 
ATOM     37  C   LIG    1        9.550  10.412  -6.535  0.00  0.00    +0.037 C 
ENDBRANCH  25  37
ENDBRANCH  24  30
ENDBRANCH  23  24
ENDBRANCH   1  23
TORSDOF 7
