REMARK  Name = *****
REMARK                            x       y       z     vdW  Elec       q    Type
REMARK                         _______ _______ _______ _____ _____    ______ ____
ROOT
ATOM      1  C   LIG    1        2.976  -1.228  -0.961  0.00  0.00    +0.020 C 
ATOM      2  C   LIG    1        4.244  -1.665  -0.190  0.00  0.00    +0.009 C 
ATOM      3  C   LIG    1        3.918  -2.378   1.121  0.00  0.00    +0.035 C 
ATOM      4  C   LIG    1        2.981  -3.577   0.939  0.00  0.00    +0.063 C 
ATOM      5  C   LIG    1        3.687  -4.751   0.254  0.00  0.00    +0.041 C 
ATOM      6  C   LIG    1        1.723  -3.147   0.176  0.00  0.00    +0.035 C 
ATOM      7  C   LIG    1        2.032  -2.439  -1.142  0.00  0.00    +0.009 C 
ENDROOT
BRANCH   1   9
ATOM      8  C   LIG    1        4.239   0.679  -2.130  0.00  0.00    +0.041 C 
ATOM      9  C   LIG    1        3.318  -0.536  -2.321  0.00  0.00    +0.063 C 
ATOM     10  C   LIG    1        2.055  -0.082  -3.067  0.00  0.00    +0.041 C 
BRANCH   9  11
ATOM     11  O   LIG    1        4.003  -1.475  -3.154  0.00  0.00    -0.389 OA
ATOM     12  H   LIG    1        4.212  -1.036  -3.997  0.00  0.00    +0.210 HD
ENDBRANCH   9  11
ENDBRANCH   1   9
BRANCH   4  13
ATOM     13  O   LIG    1        2.588  -4.045   2.234  0.00  0.00    -0.389 OA
ATOM     14  H   LIG    1        2.135  -3.318   2.693  0.00  0.00    +0.210 HD
ENDBRANCH   4  13
TORSDOF 3
