REMARK  Name = *****
REMARK                            x       y       z     vdW  Elec       q    Type
REMARK                         _______ _______ _______ _____ _____    ______ ____
ROOT
ATOM      1  C   LIG    1       -3.618   1.614   0.185  0.00  0.00    +0.042 C 
ATOM      2  C   LIG    1       -2.701   0.394   0.149  0.00  0.00    +0.069 C 
ATOM      3  C   LIG    1       -3.246  -0.867  -0.609  0.00  0.00    -0.000 C 
ATOM      4  C   LIG    1       -4.724  -1.155  -0.241  0.00  0.00    +0.014 C 
ATOM      5  C   LIG    1       -2.375  -2.044  -0.023  0.00  0.00    +0.001 C 
ATOM      6  C   LIG    1       -1.248  -2.551  -0.941  0.00  0.00    -0.004 C 
ATOM      7  C   LIG    1       -1.714  -2.719  -2.397  0.00  0.00    -0.001 C 
ATOM      8  C   LIG    1       -2.100  -1.320  -2.892  0.00  0.00    +0.005 C 
ATOM      9  C   LIG    1       -2.358  -4.168  -2.926  0.00  0.00    -0.022 C 
ATOM     10  C   LIG    1       -2.770  -3.870  -4.386  0.00  0.00    +0.012 C 
ATOM     11  C   LIG    1       -1.065  -5.035  -2.630  0.00  0.00    +0.001 C 
ATOM     12  C   LIG    1       -0.893  -6.507  -2.990  0.00  0.00    +0.059 C 
ATOM     13  C   LIG    1       -2.110  -7.172  -2.533  0.00  0.00    +0.040 A 
ATOM     14  C   LIG    1       -3.309  -6.580  -2.266  0.00  0.00    -0.006 A 
ATOM     15  C   LIG    1       -4.077  -7.691  -1.808  0.00  0.00    +0.138 A 
ATOM     16  N   LIG    1       -3.356  -8.811  -1.697  0.00  0.00    -0.182 NA
ATOM     17  N   LIG    1       -2.117  -8.473  -2.076  0.00  0.00    -0.281 N 
ATOM     18  H   LIG    1       -1.356  -9.105  -1.967  0.00  0.00    +0.189 HD
ATOM     19  C   LIG    1       -0.968  -5.027  -1.051  0.00  0.00    +0.005 C 
ATOM     20  C   LIG    1       -3.608  -5.037  -2.347  0.00  0.00    +0.045 C 
ATOM     21  C   LIG    1       -0.477  -3.760  -0.431  0.00  0.00    +0.004 C 
ATOM     22  C   LIG    1       -1.790  -1.505   1.314  0.00  0.00    +0.007 C 
ATOM     23  C   LIG    1       -3.249  -0.697  -2.150  0.00  0.00    +0.010 C 
ATOM     24  C   LIG    1       -2.423  -0.139   1.557  0.00  0.00    +0.035 C 
ENDROOT
BRANCH   2  25
ATOM     25  O   LIG    1       -1.477   0.862  -0.428  0.00  0.00    -0.388 OA
ATOM     26  H   LIG    1       -0.806   0.163  -0.382  0.00  0.00    +0.210 HD
ENDBRANCH   2  25
TORSDOF 1
