REMARK  Name = *****
REMARK                            x       y       z     vdW  Elec       q    Type
REMARK                         _______ _______ _______ _____ _____    ______ ____
ROOT
ATOM      1  C   LIG    1        8.245   0.397   3.474  0.00  0.00    +0.307 C 
ATOM      2  O   LIG    1        8.483   1.001   2.447  0.00  0.00    -0.251 OA
ENDROOT
BRANCH   1   3
ATOM      3  C   LIG    1        7.240  -0.737   3.637  0.00  0.00    +0.120 C 
BRANCH   3   4
ATOM      4  C   LIG    1        6.517  -1.098   2.334  0.00  0.00    +0.011 C 
BRANCH   4   5
ATOM      5  C   LIG    1        5.498  -2.244   2.517  0.00  0.00    +0.000 C 
BRANCH   5   6
ATOM      6  C   LIG    1        4.807  -2.636   1.199  0.00  0.00    -0.000 C 
BRANCH   6   7
ATOM      7  C   LIG    1        3.786  -3.776   1.365  0.00  0.00    -0.000 C 
BRANCH   7   9
ATOM      8  C   LIG    1        3.999  -4.648  -1.036  0.00  0.00    +0.004 C 
ATOM      9  C   LIG    1        3.066  -4.153   0.060  0.00  0.00    -0.003 C 
ENDBRANCH   7   9
ENDBRANCH   6   7
ENDBRANCH   5   6
ENDBRANCH   4   5
ENDBRANCH   3   4
ENDBRANCH   1   3
BRANCH   1  10
ATOM     10  O   LIG    1        8.892   0.602   4.669  0.00  0.00    -0.462 OA
BRANCH  10  11
ATOM     11  C   LIG    1       10.006   1.507   4.617  0.00  0.00    +0.265 C 
BRANCH  11  12
ATOM     12  C   LIG    1       11.245   0.845   4.000  0.00  0.00    +0.177 C 
BRANCH  12  13
ATOM     13  O   LIG    1       12.367   1.740   4.043  0.00  0.00    -0.386 OA
ATOM     14  H   LIG    1       12.114   2.542   3.551  0.00  0.00    +0.210 HD
ENDBRANCH  12  13
BRANCH  12  15
ATOM     15  C   LIG    1       11.627  -0.438   4.750  0.00  0.00    +0.190 C 
BRANCH  15  16
ATOM     16  O   LIG    1       12.771  -1.040   4.144  0.00  0.00    -0.392 OA
ATOM     17  H   LIG    1       13.452  -0.340   4.134  0.00  0.00    +0.209 HD
ENDBRANCH  15  16
ENDBRANCH  12  15
ENDBRANCH  11  12
ENDBRANCH  10  11
ENDBRANCH   1  10
TORSDOF 12
