REMARK  Name = *****
REMARK                            x       y       z     vdW  Elec       q    Type
REMARK                         _______ _______ _______ _____ _____    ______ ____
ROOT
ATOM      1  C   LIG    1        3.883  -1.914   0.114  0.00  0.00    +0.232 C 
ENDROOT
BRANCH   1   2
ATOM      2  O   LIG    1        4.450  -1.909   1.454  0.00  0.00    -0.456 OA
BRANCH   2   4
ATOM      3  C   LIG    1        4.156  -1.899   3.795  0.00  0.00    +0.136 C 
ATOM      4  C   LIG    1        3.704  -2.427   2.470  0.00  0.00    +0.304 C 
ATOM      5  O   LIG    1        2.803  -3.235   2.306  0.00  0.00    -0.251 OA
ENDBRANCH   2   4
ENDBRANCH   1   2
BRANCH   1   6
ATOM      6  C   LIG    1        2.716  -0.894   0.153  0.00  0.00    +0.170 C 
BRANCH   6   7
ATOM      7  C   LIG    1        2.270  -0.444  -1.207  0.00  0.00    +0.308 C 
ATOM      8  O   LIG    1        2.394  -1.139  -2.211  0.00  0.00    -0.251 OA
BRANCH   7   9
ATOM      9  O   LIG    1        1.699   0.768  -1.229  0.00  0.00    -0.480 OA
ATOM     10  H   LIG    1        1.622   1.236  -0.378  0.00  0.00    +0.295 HD
ENDBRANCH   7   9
ENDBRANCH   6   7
ENDBRANCH   1   6
BRANCH   1  11
ATOM     11  C   LIG    1        3.526  -3.316  -0.492  0.00  0.00    +0.178 C 
BRANCH  11  12
ATOM     12  N   LIG    1        4.688  -4.374  -0.554  0.00  0.00    +0.239 N 
ATOM     13  C   LIG    1        4.166  -5.603  -1.323  0.00  0.00    +0.192 C 
ATOM     14  C   LIG    1        5.103  -4.881   0.819  0.00  0.00    +0.192 C 
ATOM     15  C   LIG    1        5.898  -3.841  -1.307  0.00  0.00    +0.192 C 
ENDBRANCH  11  12
ENDBRANCH   1  11
TORSDOF 7
