REMARK  Name = *****
REMARK                            x       y       z     vdW  Elec       q    Type
REMARK                         _______ _______ _______ _____ _____    ______ ____
ROOT
ATOM      1  C   LIG    1        6.412   2.067  -1.442  0.00  0.00    +0.234 C 
ATOM      2  N   LIG    1        6.355   2.672  -0.204  0.00  0.00    -0.284 N 
ATOM      3  H   LIG    1        5.435   3.034   0.036  0.00  0.00    +0.155 HD
ATOM      4  O   LIG    1        7.385   1.476  -1.917  0.00  0.00    -0.274 OA
ENDROOT
BRANCH   2   5
ATOM      5  C   LIG    1        7.417   2.890   0.710  0.00  0.00    +0.036 A 
ATOM      6  C   LIG    1        7.141   3.346   2.015  0.00  0.00    -0.029 A 
ATOM      7  C   LIG    1        5.754   3.675   2.495  0.00  0.00    +0.045 C 
ATOM      8  C   LIG    1        8.195   3.443   2.947  0.00  0.00    +0.005 A 
ATOM      9  C   LIG    1        9.511   3.169   2.578  0.00  0.00    +0.000 A 
ATOM     10  C   LIG    1        9.792   2.804   1.270  0.00  0.00    +0.002 A 
ATOM     11  C   LIG    1        8.753   2.662   0.347  0.00  0.00    +0.023 A 
ENDBRANCH   2   5
BRANCH   1  12
ATOM     12  C   LIG    1        5.096   2.112  -2.243  0.00  0.00    +0.138 C 
ATOM     13  C   LIG    1        4.216   0.907  -1.906  0.00  0.00    +0.034 C 
BRANCH  12  14
ATOM     14  N   LIG    1        4.348   3.377  -1.992  0.00  0.00    -0.306 NA
ATOM     15  H   LIG    1        3.484   3.334  -2.541  0.00  0.00    +0.123 HD
BRANCH  14  16
ATOM     16  C   LIG    1        5.119   4.543  -2.458  0.00  0.00    +0.081 C 
BRANCH  16  18
ATOM     17  C   LIG    1        5.112   7.056  -2.658  0.00  0.00    +0.005 C 
ATOM     18  C   LIG    1        4.325   5.828  -2.221  0.00  0.00    +0.012 C 
ENDBRANCH  16  18
ENDBRANCH  14  16
ENDBRANCH  12  14
ENDBRANCH   1  12
TORSDOF 5
