REMARK  Name = *****
REMARK                            x       y       z     vdW  Elec       q    Type
REMARK                         _______ _______ _______ _____ _____    ______ ____
ROOT
ATOM      1  C   LIG    1        0.821  -0.683   0.314  0.00  0.00    +0.129 C 
ATOM      2  N   LIG    1        2.261  -0.509   0.393  0.00  0.00    -0.330 N 
ATOM      3  C   LIG    1        2.932   0.681   0.174  0.00  0.00    +0.039 C 
ATOM      4  C   LIG    1        4.335   0.391  -0.053  0.00  0.00    +0.006 C 
ATOM      5  C   LIG    1        5.259   1.309  -0.346  0.00  0.00    +0.041 C 
ATOM      6  C   LIG    1        4.855   2.735  -0.417  0.00  0.00    +0.129 C 
ATOM      7  C   LIG    1        3.377   3.050  -0.154  0.00  0.00    +0.207 C 
ATOM      8  O   LIG    1        2.958   4.201  -0.194  0.00  0.00    -0.285 OA
ATOM      9  N   LIG    1        5.771   3.623  -0.692  0.00  0.00    -0.175 NA
ATOM     10  C   LIG    1        4.537  -1.095   0.096  0.00  0.00    +0.164 C 
ATOM     11  C   LIG    1        2.459   1.930   0.141  0.00  0.00    +0.076 C 
ATOM     12  C   LIG    1        3.100  -1.659   0.004  0.00  0.00    +0.140 C 
ENDROOT
BRANCH   9  13
ATOM     13  N   LIG    1        5.387   4.936  -0.765  0.00  0.00    -0.190 N 
ATOM     14  H   LIG    1        4.413   5.200  -0.595  0.00  0.00    +0.179 HD
ATOM     15  C   LIG    1        6.272   5.946  -1.044  0.00  0.00    +0.317 C 
ATOM     16  O   LIG    1        5.959   7.128  -1.093  0.00  0.00    -0.251 OA
ATOM     17  N   LIG    1        7.543   5.527  -1.270  0.00  0.00    -0.312 N 
ATOM     18  H   LIG    1        8.266   6.227  -1.316  0.00  0.00    +0.146 HD
ATOM     19  H   LIG    1        7.751   4.593  -0.947  0.00  0.00    +0.146 HD
ENDBRANCH   9  13
BRANCH  10  20
ATOM     20  O   LIG    1        5.091  -1.345   1.387  0.00  0.00    -0.386 OA
ATOM     21  H   LIG    1        4.450  -0.984   2.029  0.00  0.00    +0.210 HD
ENDBRANCH  10  20
TORSDOF 2
