REMARK  Name = *****
REMARK                            x       y       z     vdW  Elec       q    Type
REMARK                         _______ _______ _______ _____ _____    ______ ____
ROOT
ATOM      1  C   LIG    1        4.272  -1.165  -1.396  0.00  0.00    +0.403 C 
ATOM      2  N   LIG    1        4.842  -1.970  -2.358  0.00  0.00    -0.267 N 
ATOM      3  C   LIG    1        5.617  -3.176  -2.054  0.00  0.00    +0.115 C 
ATOM      4  C   LIG    1        4.878  -4.416  -2.564  0.00  0.00    +0.050 C 
ATOM      5  C   LIG    1        4.653  -4.266  -4.067  0.00  0.00    -0.057 C 
ATOM      6  C   LIG    1        5.175  -5.087  -5.018  0.00  0.00    +0.007 C 
ATOM      7  C   LIG    1        6.007  -6.264  -4.647  0.00  0.00    +0.075 A 
ATOM      8  C   LIG    1        5.726  -7.562  -5.094  0.00  0.00    -0.021 A 
ATOM      9  C   LIG    1        6.600  -8.582  -4.675  0.00  0.00    +0.007 A 
ATOM     10  C   LIG    1        7.690  -8.295  -3.862  0.00  0.00    +0.020 A 
ATOM     11  C   LIG    1        7.895  -6.982  -3.496  0.00  0.00    +0.111 A 
ATOM     12  C   LIG    1        4.601  -7.966  -6.027  0.00  0.00    +0.042 C 
ATOM     13  C   LIG    1        3.488  -6.964  -6.362  0.00  0.00    +0.040 C 
ATOM     14  C   LIG    1        4.012  -5.759  -7.106  0.00  0.00    -0.038 A 
ATOM     15  C   LIG    1        3.701  -5.548  -8.456  0.00  0.00    +0.024 A 
ATOM     16  C   LIG    1        4.237  -4.451  -9.133  0.00  0.00    +0.041 A 
ATOM     17 CL   LIG    1        3.850  -4.201 -10.791  0.00  0.00    -0.084 Cl
ATOM     18  C   LIG    1        5.093  -3.564  -8.484  0.00  0.00    +0.020 A 
ATOM     19  C   LIG    1        5.409  -3.768  -7.140  0.00  0.00    +0.010 A 
ATOM     20  N   LIG    1        7.090  -5.969  -3.874  0.00  0.00    -0.255 NA
ATOM     21  C   LIG    1        4.854  -4.850  -6.443  0.00  0.00    -0.013 A 
ATOM     22  C   LIG    1        3.798  -3.026  -4.330  0.00  0.00    +0.050 C 
ATOM     23  C   LIG    1        4.499  -1.778  -3.767  0.00  0.00    +0.115 C 
ATOM     24  O   LIG    1        3.622  -0.154  -1.645  0.00  0.00    -0.226 OA
ENDROOT
BRANCH   1  25
ATOM     25  O   LIG    1        4.490  -1.630  -0.139  0.00  0.00    -0.451 OA
BRANCH  25  27
ATOM     26  C   LIG    1        4.772   0.319   1.258  0.00  0.00    +0.048 C 
ATOM     27  C   LIG    1        3.897  -0.872   0.922  0.00  0.00    +0.230 C 
ENDBRANCH  25  27
ENDBRANCH   1  25
TORSDOF 2
