REMARK  Name = *****
REMARK                            x       y       z     vdW  Elec       q    Type
REMARK                         _______ _______ _______ _____ _____    ______ ____
ROOT
ATOM      1  O   LIG    1        1.373   1.516   0.057  0.00  0.00    -0.273 OA
ATOM      2  C   LIG    1        2.565   1.766   0.184  0.00  0.00    +0.249 C 
ATOM      3  N   LIG    1        3.182   2.981   0.529  0.00  0.00    -0.180 N 
ATOM      4  N   LIG    1        4.589   2.804   0.600  0.00  0.00    -0.180 N 
ATOM      5  C   LIG    1        4.893   1.442   0.556  0.00  0.00    +0.249 C 
ATOM      6  O   LIG    1        5.959   0.878   0.768  0.00  0.00    -0.273 OA
ATOM      7  C   LIG    1        3.650   0.724   0.096  0.00  0.00    +0.166 C 
ENDROOT
BRANCH   3   8
ATOM      8  C   LIG    1        2.489   3.854   1.418  0.00  0.00    +0.057 A 
ATOM      9  C   LIG    1        3.061   4.262   2.632  0.00  0.00    +0.025 A 
ATOM     10  C   LIG    1        2.362   5.114   3.491  0.00  0.00    +0.002 A 
ATOM     11  C   LIG    1        1.103   5.590   3.130  0.00  0.00    +0.000 A 
ATOM     12  C   LIG    1        0.536   5.208   1.917  0.00  0.00    +0.002 A 
ATOM     13  C   LIG    1        1.220   4.334   1.071  0.00  0.00    +0.025 A 
ENDBRANCH   3   8
BRANCH   4  14
ATOM     14  C   LIG    1        5.499   3.823   0.153  0.00  0.00    +0.057 A 
ATOM     15  C   LIG    1        5.058   5.133  -0.099  0.00  0.00    +0.025 A 
ATOM     16  C   LIG    1        5.921   6.113  -0.605  0.00  0.00    +0.002 A 
ATOM     17  C   LIG    1        7.246   5.801  -0.883  0.00  0.00    +0.000 A 
ATOM     18  C   LIG    1        7.710   4.515  -0.636  0.00  0.00    +0.002 A 
ATOM     19  C   LIG    1        6.848   3.542  -0.114  0.00  0.00    +0.025 A 
ENDBRANCH   4  14
BRANCH   7  20
ATOM     20  C   LIG    1        3.780   0.204  -1.340  0.00  0.00    +0.036 C 
BRANCH  20  21
ATOM     21  C   LIG    1        4.869  -0.860  -1.467  0.00  0.00    +0.110 C 
BRANCH  21  22
ATOM     22  S   LIG    1        4.976  -1.524  -3.165  0.00  0.00    +0.054 S 
ATOM     23  O   LIG    1        5.284  -0.370  -4.075  0.00  0.00    -0.252 OA
BRANCH  22  24
ATOM     24  C   LIG    1        6.546  -2.408  -2.937  0.00  0.00    +0.039 A 
ATOM     25  C   LIG    1        7.697  -2.018  -3.630  0.00  0.00    +0.017 A 
ATOM     26  C   LIG    1        8.909  -2.675  -3.409  0.00  0.00    +0.001 A 
ATOM     27  C   LIG    1        8.978  -3.726  -2.495  0.00  0.00    +0.000 A 
ATOM     28  C   LIG    1        7.832  -4.133  -1.815  0.00  0.00    +0.001 A 
ATOM     29  C   LIG    1        6.616  -3.483  -2.042  0.00  0.00    +0.017 A 
ENDBRANCH  22  24
ENDBRANCH  21  22
ENDBRANCH  20  21
ENDBRANCH   7  20
TORSDOF 6
