REMARK  Name = *****
REMARK                            x       y       z     vdW  Elec       q    Type
REMARK                         _______ _______ _______ _____ _____    ______ ____
ROOT
ATOM      1  C   LIG    1        6.616  -1.528   3.760  0.00  0.00    +0.176 C 
ENDROOT
BRANCH   1   2
ATOM      2  O   LIG    1        7.655  -2.386   4.263  0.00  0.00    -0.387 OA
ATOM      3  H   LIG    1        7.652  -3.183   3.696  0.00  0.00    +0.210 HD
ENDBRANCH   1   2
BRANCH   1   4
ATOM      4  C   LIG    1        6.497  -0.299   4.679  0.00  0.00    +0.171 C 
BRANCH   4   5
ATOM      5  O   LIG    1        5.416   0.541   4.248  0.00  0.00    -0.387 OA
ATOM      6  H   LIG    1        5.493   1.339   4.812  0.00  0.00    +0.210 HD
ENDBRANCH   4   5
BRANCH   4   7
ATOM      7  C   LIG    1        7.769   0.549   4.794  0.00  0.00    +0.190 C 
BRANCH   7   8
ATOM      8  O   LIG    1        7.532   1.587   5.755  0.00  0.00    -0.392 OA
ATOM      9  H   LIG    1        8.367   2.086   5.827  0.00  0.00    +0.209 HD
ENDBRANCH   7   8
ENDBRANCH   4   7
ENDBRANCH   1   4
BRANCH   1  10
ATOM     10  C   LIG    1        6.886  -1.199   2.269  0.00  0.00    +0.176 C 
BRANCH  10  11
ATOM     11  O   LIG    1        8.217  -0.667   2.124  0.00  0.00    -0.387 OA
ATOM     12  H   LIG    1        8.782  -1.256   2.670  0.00  0.00    +0.210 HD
ENDBRANCH  10  11
BRANCH  10  13
ATOM     13  C   LIG    1        6.778  -2.460   1.377  0.00  0.00    +0.171 C 
BRANCH  13  14
ATOM     14  O   LIG    1        7.754  -3.425   1.818  0.00  0.00    -0.387 OA
ATOM     15  H   LIG    1        8.550  -3.255   1.267  0.00  0.00    +0.210 HD
ENDBRANCH  13  14
BRANCH  13  16
ATOM     16  C   LIG    1        7.022  -2.170  -0.113  0.00  0.00    +0.190 C 
BRANCH  16  17
ATOM     17  O   LIG    1        8.353  -1.692  -0.324  0.00  0.00    -0.392 OA
ATOM     18  H   LIG    1        8.454  -0.892   0.231  0.00  0.00    +0.209 HD
ENDBRANCH  16  17
ENDBRANCH  13  16
ENDBRANCH  10  13
ENDBRANCH   1  10
TORSDOF 11
