REMARK  Name = *****
REMARK                            x       y       z     vdW  Elec       q    Type
REMARK                         _______ _______ _______ _____ _____    ______ ____
ROOT
ATOM      1  C   LIG    1        1.405   0.682   1.630  0.00  0.00    +0.105 C 
ATOM      2  N   LIG    1        1.920  -0.404   0.801  0.00  0.00    -0.297 NA
ENDROOT
BRANCH   2   3
ATOM      3  C   LIG    1        2.096  -0.035  -0.616  0.00  0.00    +0.120 C 
BRANCH   3   4
ATOM      4  C   LIG    1        3.075   1.101  -0.917  0.00  0.00    -0.026 A 
ATOM      5  C   LIG    1        4.478   1.032  -0.667  0.00  0.00    -0.013 A 
ATOM      6  C   LIG    1        5.295   2.141  -1.020  0.00  0.00    -0.018 A 
ATOM      7  C   LIG    1        6.683   2.109  -0.789  0.00  0.00    +0.008 A 
ATOM      8  C   LIG    1        7.283   0.993  -0.214  0.00  0.00    +0.001 A 
ATOM      9  C   LIG    1        6.508  -0.104   0.123  0.00  0.00    +0.001 A 
ATOM     10  C   LIG    1        4.727   3.274  -1.615  0.00  0.00    +0.008 A 
ATOM     11  C   LIG    1        3.367   3.325  -1.889  0.00  0.00    +0.001 A 
ATOM     12  C   LIG    1        5.124  -0.089  -0.101  0.00  0.00    +0.009 A 
ATOM     13  C   LIG    1        2.553   2.247  -1.551  0.00  0.00    +0.005 A 
ENDBRANCH   3   4
ENDBRANCH   2   3
BRANCH   2  14
ATOM     14  C   LIG    1        1.129  -1.636   0.944  0.00  0.00    +0.111 C 
BRANCH  14  15
ATOM     15  C   LIG    1       -0.334  -1.565   0.579  0.00  0.00    -0.011 C 
ATOM     16  C   LIG    1       -0.929  -2.332  -0.349  0.00  0.00    +0.005 C 
BRANCH  16  17
ATOM     17  C   LIG    1       -2.377  -2.277  -0.570  0.00  0.00    -0.025 A 
ATOM     18  C   LIG    1       -2.935  -1.305  -1.406  0.00  0.00    +0.008 A 
ATOM     19  C   LIG    1       -4.322  -1.231  -1.571  0.00  0.00    +0.001 A 
ATOM     20  C   LIG    1       -5.154  -2.126  -0.900  0.00  0.00    +0.000 A 
ATOM     21  C   LIG    1       -4.604  -3.104  -0.074  0.00  0.00    +0.001 A 
ATOM     22  C   LIG    1       -3.218  -3.180   0.090  0.00  0.00    +0.008 A 
ENDBRANCH  16  17
ENDBRANCH  14  15
ENDBRANCH   2  14
TORSDOF 5
