REMARK  Name = *****
REMARK                            x       y       z     vdW  Elec       q    Type
REMARK                         _______ _______ _______ _____ _____    ______ ____
ROOT
ATOM      1  C   LIG    1        5.329   2.892   1.242  0.00  0.00    +0.118 C 
ENDROOT
BRANCH   1   2
ATOM      2  C   LIG    1        6.842   2.612   1.406  0.00  0.00    +0.007 A 
ATOM      3  C   LIG    1        7.826   3.607   1.557  0.00  0.00    +0.047 A 
ATOM      4 CL   LIG    1        7.480   5.293   1.701  0.00  0.00    -0.083 Cl
ATOM      5  C   LIG    1        9.189   3.271   1.641  0.00  0.00    +0.020 A 
ATOM      6  C   LIG    1        9.601   1.942   1.642  0.00  0.00    +0.001 A 
ATOM      7  C   LIG    1        8.651   0.938   1.560  0.00  0.00    +0.001 A 
ATOM      8  C   LIG    1        7.298   1.266   1.434  0.00  0.00    +0.008 A 
ENDBRANCH   1   2
BRANCH   1   9
ATOM      9  C   LIG    1        4.654   3.169   2.612  0.00  0.00    -0.012 A 
ATOM     10  C   LIG    1        3.977   4.363   2.894  0.00  0.00    +0.007 A 
ATOM     11  C   LIG    1        3.377   4.606   4.137  0.00  0.00    +0.000 A 
ATOM     12  C   LIG    1        3.446   3.642   5.142  0.00  0.00    +0.000 A 
ATOM     13  C   LIG    1        4.096   2.451   4.895  0.00  0.00    +0.000 A 
ATOM     14  C   LIG    1        4.694   2.204   3.649  0.00  0.00    +0.007 A 
ENDBRANCH   1   9
BRANCH   1  15
ATOM     15  O   LIG    1        4.717   1.692   0.702  0.00  0.00    -0.379 OA
ATOM     16  H   LIG    1        4.491   1.106   1.444  0.00  0.00    +0.211 HD
ENDBRANCH   1  15
BRANCH   1  17
ATOM     17  C   LIG    1        4.985   3.954   0.137  0.00  0.00    +0.060 C 
BRANCH  17  18
ATOM     18  C   LIG    1        5.581   3.652  -1.256  0.00  0.00    +0.087 C 
BRANCH  18  20
ATOM     19  C   LIG    1        5.824   4.201  -3.586  0.00  0.00    +0.104 C 
ATOM     20  N   LIG    1        5.298   4.671  -2.298  0.00  0.00    -0.308 NA
ATOM     21  C   LIG    1        3.871   4.963  -2.438  0.00  0.00    +0.104 C 
ENDBRANCH  18  20
ENDBRANCH  17  18
ENDBRANCH   1  17
TORSDOF 6
