REMARK  Name = *****
REMARK                            x       y       z     vdW  Elec       q    Type
REMARK                         _______ _______ _______ _____ _____    ______ ____
ROOT
ATOM      1  C   LIG    1       -5.320   2.359  -4.025  0.00  0.00    +0.129 C 
ATOM      2  C   LIG    1       -4.952   3.551  -3.078  0.00  0.00    +0.061 C 
ATOM      3  C   LIG    1       -3.736   3.219  -2.194  0.00  0.00    +0.190 C 
ATOM      4  C   LIG    1       -3.237   4.426  -1.429  0.00  0.00    +0.141 C 
ATOM      5  C   LIG    1       -3.503   5.692  -1.807  0.00  0.00    +0.047 C 
ATOM      6  C   LIG    1       -4.302   6.058  -3.036  0.00  0.00    +0.062 C 
ATOM      7  C   LIG    1       -3.570   7.216  -3.809  0.00  0.00    +0.097 C 
ATOM      8  C   LIG    1       -4.158   7.381  -5.217  0.00  0.00    +0.047 C 
ATOM      9  C   LIG    1       -3.530   8.447  -2.886  0.00  0.00    +0.017 A 
ATOM     10  C   LIG    1       -3.180   8.213  -1.522  0.00  0.00    +0.071 A 
ATOM     11  C   LIG    1       -3.032   9.274  -0.607  0.00  0.00    +0.128 A 
ATOM     12  C   LIG    1       -3.250  10.581  -1.000  0.00  0.00    +0.047 A 
ATOM     13  C   LIG    1       -3.610  10.838  -2.315  0.00  0.00    +0.024 A 
ATOM     14  C   LIG    1       -3.747   9.796  -3.251  0.00  0.00    +0.048 A 
ATOM     15 CL   LIG    1       -4.213  10.354  -4.819  0.00  0.00    -0.083 Cl
ATOM     16  C   LIG    1       -2.975   6.832  -1.009  0.00  0.00    +0.197 C 
ATOM     17  O   LIG    1       -2.431   6.644   0.080  0.00  0.00    -0.287 OA
ATOM     18  C   LIG    1       -2.646   2.714  -3.162  0.00  0.00    +0.210 C 
ATOM     19  O   LIG    1       -1.709   3.411  -3.556  0.00  0.00    -0.288 OA
ATOM     20  C   LIG    1       -2.951   1.417  -3.817  0.00  0.00    +0.121 C 
ATOM     21  C   LIG    1       -4.653   4.824  -3.906  0.00  0.00    +0.020 C 
ATOM     22  C   LIG    1       -4.232   1.292  -4.217  0.00  0.00    +0.127 C 
ENDROOT
BRANCH  20  23
ATOM     23  C   LIG    1       -1.883   0.398  -3.949  0.00  0.00    +0.248 C 
ATOM     24  O   LIG    1       -0.856   0.435  -3.282  0.00  0.00    -0.270 OA
ATOM     25  N   LIG    1       -2.099  -0.605  -4.841  0.00  0.00    -0.325 N 
ATOM     26  H   LIG    1       -3.011  -0.720  -5.272  0.00  0.00    +0.145 HD
ATOM     27  H   LIG    1       -1.425  -1.355  -4.893  0.00  0.00    +0.145 HD
ENDBRANCH  20  23
BRANCH   1  29
ATOM     28  C   LIG    1       -7.765   2.523  -4.070  0.00  0.00    +0.105 C 
ATOM     29  N   LIG    1       -6.615   1.666  -3.767  0.00  0.00    -0.298 NA
ATOM     30  C   LIG    1       -6.738   1.128  -2.406  0.00  0.00    +0.105 C 
ENDBRANCH   1  29
BRANCH   3  31
ATOM     31  O   LIG    1       -4.104   2.232  -1.235  0.00  0.00    -0.373 OA
ATOM     32  H   LIG    1       -3.437   2.312  -0.519  0.00  0.00    +0.211 HD
ENDBRANCH   3  31
BRANCH   4  33
ATOM     33  O   LIG    1       -2.529   4.098  -0.279  0.00  0.00    -0.507 OA
ATOM     34  H   LIG    1       -2.230   4.933   0.150  0.00  0.00    +0.292 HD
ENDBRANCH   4  33
BRANCH   7  35
ATOM     35  O   LIG    1       -2.187   6.878  -4.005  0.00  0.00    -0.384 OA
ATOM     36  H   LIG    1       -2.100   5.959  -4.319  0.00  0.00    +0.211 HD
ENDBRANCH   7  35
BRANCH  11  37
ATOM     37  O   LIG    1       -2.683   9.106   0.707  0.00  0.00    -0.506 OA
ATOM     38  H   LIG    1       -2.425   8.168   0.841  0.00  0.00    +0.292 HD
ENDBRANCH  11  37
BRANCH  22  39
ATOM     39  O   LIG    1       -4.701   0.129  -4.826  0.00  0.00    -0.509 OA
ATOM     40  H   LIG    1       -5.683   0.203  -4.766  0.00  0.00    +0.292 HD
ENDBRANCH  22  39
TORSDOF 7
