REMARK  Name = *****
REMARK                            x       y       z     vdW  Elec       q    Type
REMARK                         _______ _______ _______ _____ _____    ______ ____
ROOT
ATOM      1  C   LIG    1        4.625  -0.558  -0.981  0.00  0.00    +0.144 C 
ENDROOT
BRANCH   1   2
ATOM      2  C   LIG    1        4.442  -1.333  -2.326  0.00  0.00    +0.072 C 
ATOM      3  N   LIG    1        4.283  -0.485  -3.531  0.00  0.00    -0.312 NA
ATOM      4  H   LIG    1        3.976  -1.085  -4.299  0.00  0.00    +0.122 HD
ATOM      5  C   LIG    1        5.502   0.210  -3.944  0.00  0.00    +0.081 C 
ATOM      6  C   LIG    1        6.715  -0.700  -4.119  0.00  0.00    +0.015 C 
ATOM      7  C   LIG    1        6.889  -1.698  -2.981  0.00  0.00    +0.003 C 
ATOM      8  C   LIG    1        5.563  -2.357  -2.609  0.00  0.00    +0.020 C 
ENDBRANCH   1   2
BRANCH   1   9
ATOM      9  C   LIG    1        4.767  -1.501   0.215  0.00  0.00    -0.032 A 
ATOM     10  C   LIG    1        6.006  -1.605   0.868  0.00  0.00    +0.004 A 
ATOM     11  C   LIG    1        6.195  -2.523   1.903  0.00  0.00    +0.000 A 
ATOM     12  C   LIG    1        5.146  -3.343   2.309  0.00  0.00    +0.000 A 
ATOM     13  C   LIG    1        3.905  -3.242   1.683  0.00  0.00    +0.000 A 
ATOM     14  C   LIG    1        3.715  -2.328   0.642  0.00  0.00    +0.004 A 
ENDBRANCH   1   9
BRANCH   1  15
ATOM     15  C   LIG    1        3.485   0.443  -0.765  0.00  0.00    +0.316 C 
ATOM     16  O   LIG    1        2.298   0.216  -0.922  0.00  0.00    -0.250 OA
BRANCH  15  18
ATOM     17  C   LIG    1        3.115   2.760  -0.426  0.00  0.00    +0.280 C 
ATOM     18  O   LIG    1        4.011   1.648  -0.375  0.00  0.00    -0.468 OA
ENDBRANCH  15  18
ENDBRANCH   1  15
TORSDOF 4
