REMARK  Name = *****
REMARK                            x       y       z     vdW  Elec       q    Type
REMARK                         _______ _______ _______ _____ _____    ______ ____
ROOT
ATOM      1  C   LIG    1        4.219   0.002   1.547  0.00  0.00    +0.155 C 
ATOM      2  C   LIG    1        4.924   0.755   0.396  0.00  0.00    +0.193 C 
ATOM      3  C   LIG    1        5.754  -0.166  -0.515  0.00  0.00    +0.064 C 
ATOM      4  C   LIG    1        5.071  -1.517  -0.777  0.00  0.00    +0.060 C 
ATOM      5  N   LIG    1        4.797  -2.228   0.471  0.00  0.00    -0.298 NA
ATOM      6  C   LIG    1        5.961  -2.598   1.249  0.00  0.00    +0.105 C 
ATOM      7  C   LIG    1        3.637  -1.351  -1.297  0.00  0.00    +0.020 C 
ATOM      8  C   LIG    1        2.766  -1.327  -0.033  0.00  0.00    +0.021 C 
ATOM      9  C   LIG    1        3.767  -1.417   1.132  0.00  0.00    +0.074 C 
ENDROOT
BRANCH   1  10
ATOM     10  C   LIG    1        4.940  -0.019   2.885  0.00  0.00    +0.315 C 
ATOM     11  O   LIG    1        6.114   0.251   3.086  0.00  0.00    -0.250 OA
BRANCH  10  13
ATOM     12  C   LIG    1        4.496  -0.215   5.214  0.00  0.00    +0.280 C 
ATOM     13  O   LIG    1        4.037  -0.331   3.864  0.00  0.00    -0.468 OA
ENDBRANCH  10  13
ENDBRANCH   1  10
BRANCH   2  14
ATOM     14  O   LIG    1        5.715   1.847   0.902  0.00  0.00    -0.457 OA
BRANCH  14  15
ATOM     15  C   LIG    1        6.135   2.778   0.013  0.00  0.00    +0.340 C 
ATOM     16  O   LIG    1        5.828   2.829  -1.167  0.00  0.00    -0.245 OA
BRANCH  15  17
ATOM     17  C   LIG    1        7.066   3.738   0.666  0.00  0.00    +0.059 A 
ATOM     18  C   LIG    1        7.345   3.699   2.039  0.00  0.00    +0.015 A 
ATOM     19  C   LIG    1        8.229   4.625   2.601  0.00  0.00    +0.001 A 
ATOM     20  C   LIG    1        8.841   5.584   1.798  0.00  0.00    +0.000 A 
ATOM     21  C   LIG    1        8.571   5.624   0.430  0.00  0.00    +0.001 A 
ATOM     22  C   LIG    1        7.686   4.703  -0.135  0.00  0.00    +0.015 A 
ENDBRANCH  15  17
ENDBRANCH  14  15
ENDBRANCH   2  14
TORSDOF 5
