REMARK  Name = *****
REMARK                            x       y       z     vdW  Elec       q    Type
REMARK                         _______ _______ _______ _____ _____    ______ ____
ROOT
ATOM      1  CA  LIG    1        3.216   0.381   0.687  0.00  0.00    +0.128 C 
ATOM      2  N   LIG    1        4.422  -0.307   0.726  0.00  0.00    -0.249 N 
ATOM      3  C   LIG    1        5.237  -0.627  -0.464  0.00  0.00    +0.169 C 
ATOM      4  CA  LIG    1        5.380  -2.076   0.073  0.00  0.00    +0.191 C 
ATOM      5  S   LIG    1        4.433  -0.403  -2.054  0.00  0.00    -0.131 S 
ATOM      6  C   LIG    1        2.791  -0.645  -1.474  0.00  0.00    +0.110 C 
ATOM      7  C   LIG    1        4.414  -1.600   1.166  0.00  0.00    +0.244 C 
ATOM      8  O   LIG    1        3.622  -2.163   1.931  0.00  0.00    -0.273 OA
ATOM      9  C   LIG    1        2.355   0.243  -0.356  0.00  0.00    +0.033 C 
ENDROOT
BRANCH   4  10
ATOM     10  N   LIG    1        4.840  -3.205  -0.757  0.00  0.00    -0.301 N 
ATOM     11  H   LIG    1        3.847  -3.401  -0.753  0.00  0.00    +0.149 HD
ATOM     12  C   LIG    1        5.664  -4.210  -1.224  0.00  0.00    +0.218 C 
ATOM     13  O   LIG    1        6.870  -4.207  -1.000  0.00  0.00    -0.275 OA
BRANCH  12  14
ATOM     14  C   LIG    1        4.946  -5.292  -2.022  0.00  0.00    +0.138 C 
BRANCH  14  15
ATOM     15  C   LIG    1        5.520  -5.382  -3.402  0.00  0.00    -0.002 A 
ATOM     16  S   LIG    1        6.801  -6.478  -3.717  0.00  0.00    -0.101 S 
ATOM     17  C   LIG    1        6.882  -6.014  -5.358  0.00  0.00    +0.045 A 
ATOM     18  C   LIG    1        5.943  -5.058  -5.672  0.00  0.00    +0.008 A 
ATOM     19  C   LIG    1        5.152  -4.694  -4.543  0.00  0.00    +0.012 A 
ENDBRANCH  14  15
ENDBRANCH  12  14
ENDBRANCH   4  10
BRANCH   1  21
ATOM     20  O   LIG    1        1.769   1.481   2.293  0.00  0.00    -0.244 OA
ATOM     21  C   LIG    1        2.880   1.117   1.954  0.00  0.00    +0.352 C 
BRANCH  21  22
ATOM     22  OXT LIG    1        3.972   1.347   2.703  0.00  0.00    -0.476 OA
ATOM     23  HXT LIG    1        3.661   1.744   3.544  0.00  0.00    +0.295 HD
ENDBRANCH  21  22
ENDBRANCH   1  21
BRANCH   9  24
ATOM     24  C   LIG    1        0.959   0.857  -0.446  0.00  0.00    +0.392 C 
BRANCH  24  25
ATOM     25  N   LIG    1       -0.124   0.151  -1.262  0.00  0.00    -0.200 N 
ATOM     26  C   LIG    1       -1.324   0.782  -1.377  0.00  0.00    +0.309 A 
ATOM     27  C   LIG    1       -2.344   0.224  -2.155  0.00  0.00    +0.070 A 
ATOM     28  C   LIG    1       -2.119  -0.941  -2.879  0.00  0.00    +0.012 A 
ATOM     29  C   LIG    1       -0.903  -1.563  -2.765  0.00  0.00    +0.070 A 
ATOM     30  C   LIG    1        0.009  -1.049  -1.874  0.00  0.00    +0.309 A 
ENDBRANCH  24  25
ENDBRANCH   9  24
TORSDOF 7
