REMARK  Name = *****
REMARK                            x       y       z     vdW  Elec       q    Type
REMARK                         _______ _______ _______ _____ _____    ______ ____
ROOT
ATOM      1  C   LIG    1        7.367  -2.748   3.665  0.00  0.00    +0.170 A 
ATOM      2  S   LIG    1        7.436  -1.429   4.768  0.00  0.00    -0.056 S 
ATOM      3  C   LIG    1        7.954  -0.358   3.567  0.00  0.00    -0.001 A 
ATOM      4  C   LIG    1        8.258   1.073   3.817  0.00  0.00    +0.058 C 
ATOM      5  C   LIG    1        9.316   1.524   2.786  0.00  0.00    +0.091 C 
ATOM      6  N   LIG    1        9.014   1.175   1.382  0.00  0.00    -0.285 NA
ATOM      7  C   LIG    1        8.666  -0.245   1.137  0.00  0.00    +0.121 C 
ATOM      8  C   LIG    1        8.120  -0.954   2.341  0.00  0.00    -0.019 A 
ATOM      9  C   LIG    1        7.774  -2.340   2.405  0.00  0.00    +0.059 A 
ENDROOT
BRANCH   1  10
ATOM     10  O   LIG    1        6.951  -3.912   4.132  0.00  0.00    -0.419 OA
BRANCH  10  12
ATOM     11  C   LIG    1        5.579  -5.780   4.135  0.00  0.00    +0.136 C 
ATOM     12  C   LIG    1        6.338  -4.790   3.296  0.00  0.00    +0.310 C 
ATOM     13  O   LIG    1        6.292  -4.773   2.082  0.00  0.00    -0.251 OA
ENDBRANCH  10  12
ENDBRANCH   1  10
BRANCH   6  14
ATOM     14  C   LIG    1       10.033   1.632   0.372  0.00  0.00    +0.157 C 
BRANCH  14  15
ATOM     15  C   LIG    1       11.412   0.961   0.426  0.00  0.00    +0.012 A 
ATOM     16  C   LIG    1       11.856   0.194  -0.662  0.00  0.00    +0.129 A 
ATOM     17  F   LIG    1       11.084   0.069  -1.751  0.00  0.00    -0.205 F 
ATOM     18  C   LIG    1       13.091  -0.458  -0.654  0.00  0.00    +0.039 A 
ATOM     19  C   LIG    1       13.927  -0.349   0.453  0.00  0.00    +0.003 A 
ATOM     20  C   LIG    1       13.525   0.422   1.538  0.00  0.00    +0.001 A 
ATOM     21  C   LIG    1       12.290   1.082   1.516  0.00  0.00    +0.008 A 
ENDBRANCH  14  15
BRANCH  14  22
ATOM     22  C   LIG    1       10.134   3.176   0.334  0.00  0.00    +0.158 C 
ATOM     23  O   LIG    1       10.892   3.834   1.043  0.00  0.00    -0.295 OA
BRANCH  22  24
ATOM     24  C   LIG    1        9.239   3.876  -0.654  0.00  0.00    +0.057 C 
ATOM     25  C   LIG    1        8.862   5.328  -0.453  0.00  0.00    +0.012 C 
ATOM     26  C   LIG    1        9.804   4.952  -1.557  0.00  0.00    +0.012 C 
ENDBRANCH  22  24
ENDBRANCH  14  22
ENDBRANCH   6  14
TORSDOF 6
