REMARK  Name = *****
REMARK                            x       y       z     vdW  Elec       q    Type
REMARK                         _______ _______ _______ _____ _____    ______ ____
ROOT
ATOM      1  C   LIG    1        8.135   2.564  -4.531  0.00  0.00    +0.187 C 
ATOM      2  C   LIG    1        8.415   1.000  -4.492  0.00  0.00    +0.063 C 
ATOM      3  C   LIG    1        7.775   0.351  -3.265  0.00  0.00    -0.042 C 
ATOM      4  C   LIG    1        7.149  -0.942  -3.366  0.00  0.00    -0.000 C 
ATOM      5  C   LIG    1        7.223  -1.695  -4.465  0.00  0.00    -0.023 C 
ATOM      6  C   LIG    1        7.993  -1.305  -5.690  0.00  0.00    +0.012 C 
ATOM      7  C   LIG    1        9.302  -2.108  -5.698  0.00  0.00    +0.012 C 
ATOM      8  C   LIG    1        7.841   0.978  -2.077  0.00  0.00    +0.008 C 
ATOM      9  C   LIG    1        8.376   2.370  -1.980  0.00  0.00    +0.141 C 
ATOM     10  C   LIG    1        8.152   0.239  -5.845  0.00  0.00    +0.007 C 
ATOM     11  C   LIG    1        7.821   3.187  -3.143  0.00  0.00    +0.080 C 
ENDROOT
BRANCH   9  12
ATOM     12  O   LIG    1        9.794   2.342  -2.035  0.00  0.00    -0.388 OA
ATOM     13  H   LIG    1       10.097   1.621  -1.457  0.00  0.00    +0.210 HD
ENDBRANCH   9  12
BRANCH   1  14
ATOM     14  O   LIG    1        7.051   2.880  -5.453  0.00  0.00    -0.460 OA
BRANCH  14  15
ATOM     15  C   LIG    1        7.073   4.097  -6.082  0.00  0.00    +0.310 C 
ATOM     16  O   LIG    1        7.865   4.998  -5.842  0.00  0.00    -0.251 OA
BRANCH  15  17
ATOM     17  C   LIG    1        5.966   4.159  -7.138  0.00  0.00    +0.094 C 
ATOM     18  C   LIG    1        4.734   4.849  -6.542  0.00  0.00    +0.019 C 
BRANCH  17  20
ATOM     19  C   LIG    1        7.479   4.185  -9.255  0.00  0.00    +0.004 C 
ATOM     20  C   LIG    1        6.369   4.855  -8.458  0.00  0.00    +0.011 C 
ENDBRANCH  17  20
ENDBRANCH  15  17
ENDBRANCH  14  15
ENDBRANCH   1  14
BRANCH  10  21
ATOM     21  C   LIG    1        9.223   0.583  -6.915  0.00  0.00    +0.007 C 
BRANCH  21  22
ATOM     22  C   LIG    1        8.928  -0.037  -8.298  0.00  0.00    +0.032 C 
BRANCH  22  23
ATOM     23  C   LIG    1        9.958   0.316  -9.384  0.00  0.00    +0.117 C 
BRANCH  23  24
ATOM     24  O   LIG    1        9.592  -0.336 -10.606  0.00  0.00    -0.392 OA
ATOM     25  H   LIG    1        8.663  -0.107 -10.801  0.00  0.00    +0.210 HD
ENDBRANCH  23  24
BRANCH  23  26
ATOM     26  C   LIG    1       10.073   1.821  -9.637  0.00  0.00    +0.063 C 
BRANCH  26  27
ATOM     27  C   LIG    1       11.076   2.194 -10.733  0.00  0.00    +0.128 C 
BRANCH  27  28
ATOM     28  O   LIG    1       10.684   1.683 -12.012  0.00  0.00    -0.391 OA
ATOM     29  H   LIG    1       10.587   0.711 -11.927  0.00  0.00    +0.210 HD
ENDBRANCH  27  28
BRANCH  27  30
ATOM     30  C   LIG    1       11.228   3.707 -10.891  0.00  0.00    +0.151 C 
BRANCH  30  31
ATOM     31  C   LIG    1       12.197   4.124 -11.991  0.00  0.00    +0.307 C 
ATOM     32  O   LIG    1       12.464   5.278 -12.219  0.00  0.00    -0.251 OA
BRANCH  31  33
ATOM     33  O   LIG    1       12.759   3.114 -12.703  0.00  0.00    -0.481 OA
ATOM     34  H   LIG    1       12.289   2.263 -12.590  0.00  0.00    +0.295 HD
ENDBRANCH  31  33
ENDBRANCH  30  31
ENDBRANCH  27  30
ENDBRANCH  26  27
ENDBRANCH  23  26
ENDBRANCH  22  23
ENDBRANCH  21  22
ENDBRANCH  10  21
TORSDOF 15
