REMARK  Name = *****
REMARK                            x       y       z     vdW  Elec       q    Type
REMARK                         _______ _______ _______ _____ _____    ______ ____
ROOT
ATOM      1  N   LIG    1        5.123  -3.845  -0.880  0.00  0.00    -0.292 NA
ATOM      2  C   LIG    1        5.391  -5.311  -0.842  0.00  0.00    +0.113 C 
ATOM      3  C   LIG    1        5.497  -5.984  -2.235  0.00  0.00    +0.165 C 
ATOM      4  C   LIG    1        6.498  -5.279  -3.164  0.00  0.00    +0.174 C 
ATOM      5  C   LIG    1        6.238  -3.764  -3.208  0.00  0.00    +0.159 C 
ATOM      6  C   LIG    1        6.059  -3.153  -1.799  0.00  0.00    +0.118 C 
ENDROOT
BRANCH   3   7
ATOM      7  O   LIG    1        4.214  -5.991  -2.887  0.00  0.00    -0.388 OA
ATOM      8  H   LIG    1        3.612  -6.514  -2.323  0.00  0.00    +0.210 HD
ENDBRANCH   3   7
BRANCH   4   9
ATOM      9  O   LIG    1        7.840  -5.562  -2.764  0.00  0.00    -0.387 OA
ATOM     10  H   LIG    1        8.421  -5.274  -3.486  0.00  0.00    +0.210 HD
ENDBRANCH   4   9
BRANCH   5  11
ATOM     11  O   LIG    1        5.108  -3.471  -4.035  0.00  0.00    -0.388 OA
ATOM     12  H   LIG    1        4.456  -4.187  -3.886  0.00  0.00    +0.210 HD
ENDBRANCH   5  11
BRANCH   1  13
ATOM     13  C   LIG    1        3.724  -3.465  -1.154  0.00  0.00    +0.085 C 
BRANCH  13  14
ATOM     14  C   LIG    1        2.662  -4.037  -0.199  0.00  0.00    +0.015 C 
BRANCH  14  16
ATOM     15  C   LIG    1        1.876  -4.335   2.173  0.00  0.00    +0.004 C 
ATOM     16  C   LIG    1        2.894  -3.664   1.264  0.00  0.00    -0.002 C 
ENDBRANCH  14  16
ENDBRANCH  13  14
ENDBRANCH   1  13
BRANCH   2  17
ATOM     17  C   LIG    1        6.637  -5.603   0.034  0.00  0.00    +0.177 C 
BRANCH  17  18
ATOM     18  O   LIG    1        6.503  -4.971   1.310  0.00  0.00    -0.393 OA
ATOM     19  H   LIG    1        6.217  -4.058   1.102  0.00  0.00    +0.209 HD
ENDBRANCH  17  18
ENDBRANCH   2  17
TORSDOF 8
