REMARK  Name = *****
REMARK                            x       y       z     vdW  Elec       q    Type
REMARK                         _______ _______ _______ _____ _____    ______ ____
ROOT
ATOM      1  C   LIG    1       -5.212   9.925  -2.863  0.00  0.00    +0.015 C 
ATOM      2  C   LIG    1       -3.673   9.908  -2.876  0.00  0.00    +0.013 C 
ATOM      3  C   LIG    1       -3.092  11.336  -3.165  0.00  0.00    +0.168 C 
ATOM      4  C   LIG    1       -1.659  11.076  -3.638  0.00  0.00    +0.047 C 
ATOM      5  C   LIG    1       -1.669   9.663  -4.233  0.00  0.00    +0.008 C 
ATOM      6  C   LIG    1       -3.108   9.119  -4.085  0.00  0.00    +0.002 C 
ATOM      7  C   LIG    1       -3.147   7.575  -3.994  0.00  0.00    -0.000 C 
ATOM      8  C   LIG    1       -4.495   6.986  -4.481  0.00  0.00    +0.008 C 
ATOM      9  C   LIG    1       -5.214   5.977  -3.574  0.00  0.00    +0.032 C 
ATOM     10  C   LIG    1       -4.368   5.184  -2.609  0.00  0.00    -0.056 C 
ATOM     11  C   LIG    1       -2.871   5.449  -2.588  0.00  0.00    +0.013 C 
ATOM     12  C   LIG    1       -2.209   4.731  -3.792  0.00  0.00    +0.020 C 
ATOM     13  C   LIG    1       -2.193   4.837  -1.371  0.00  0.00    -0.012 C 
ATOM     14  C   LIG    1       -2.803   4.044  -0.480  0.00  0.00    +0.047 C 
ATOM     15  C   LIG    1       -4.235   3.719  -0.620  0.00  0.00    +0.179 C 
ATOM     16  O   LIG    1       -4.793   2.950   0.152  0.00  0.00    -0.288 OA
ATOM     17  C   LIG    1       -4.978   4.385  -1.712  0.00  0.00    +0.051 C 
ATOM     18  C   LIG    1       -2.660   7.006  -2.638  0.00  0.00    +0.035 C 
ATOM     19  C   LIG    1       -3.307   7.774  -1.452  0.00  0.00    +0.120 C 
ATOM     20  C   LIG    1       -3.149   9.292  -1.562  0.00  0.00    +0.042 C 
ENDROOT
BRANCH   3  21
ATOM     21  O   LIG    1       -3.794  11.888  -4.299  0.00  0.00    -0.377 OA
ATOM     22  H   LIG    1       -3.629  12.851  -4.296  0.00  0.00    +0.211 HD
ENDBRANCH   3  21
BRANCH   3  23
ATOM     23  C   LIG    1       -3.156  12.366  -2.010  0.00  0.00    +0.341 C 
ATOM     24  O   LIG    1       -3.783  13.413  -2.087  0.00  0.00    -0.247 OA
BRANCH  23  25
ATOM     25  O   LIG    1       -2.397  11.994  -0.946  0.00  0.00    -0.447 OA
BRANCH  25  26
ATOM     26  C   LIG    1       -2.384  12.922   0.140  0.00  0.00    +0.340 C 
ATOM     27 CL   LIG    1       -1.121  14.139  -0.118  0.00  0.00    -0.081 Cl
ENDBRANCH  25  26
ENDBRANCH  23  25
ENDBRANCH   3  23
BRANCH  19  28
ATOM     28  O   LIG    1       -2.714   7.400  -0.207  0.00  0.00    -0.391 OA
ATOM     29  H   LIG    1       -1.763   7.597  -0.247  0.00  0.00    +0.210 HD
ENDBRANCH  19  28
TORSDOF 5
