REMARK  Name = *****
REMARK                            x       y       z     vdW  Elec       q    Type
REMARK                         _______ _______ _______ _____ _____    ______ ____
ROOT
ATOM      1  C   LIG    1        1.055   0.026   0.003  0.00  0.00    +0.111 C 
ATOM      2  C   LIG    1        2.560  -0.056   0.008  0.00  0.00    +0.232 C 
ATOM      3  N   LIG    1        3.118  -0.919   0.906  0.00  0.00    -0.198 N 
ATOM      4  H   LIG    1        4.130  -0.943   0.993  0.00  0.00    +0.182 HD
ATOM      5  O   LIG    1        3.249   0.568  -0.786  0.00  0.00    -0.274 OA
ENDROOT
BRANCH   3   6
ATOM      6  O   LIG    1        2.364  -1.472   1.954  0.00  0.00    -0.295 OA
ATOM      7  H   LIG    1        1.672  -1.980   1.490  0.00  0.00    +0.241 HD
ENDBRANCH   3   6
TORSDOF 1
