REMARK  Name = *****
REMARK                            x       y       z     vdW  Elec       q    Type
REMARK                         _______ _______ _______ _____ _____    ______ ____
ROOT
ATOM      1  C   LIG    1        9.182   0.607  -1.217  0.00  0.00    +0.110 A 
ATOM      2  N   LIG    1        9.425  -0.671  -1.316  0.00  0.00    -0.162 NA
ATOM      3  N   LIG    1       10.726  -0.947  -1.640  0.00  0.00    -0.200 N 
ATOM      4  C   LIG    1       11.738  -0.011  -1.851  0.00  0.00    +0.252 A 
ATOM      5  N   LIG    1       12.876  -0.615  -2.128  0.00  0.00    -0.217 NA
ATOM      6  C   LIG    1       12.607  -1.955  -2.095  0.00  0.00    +0.138 A 
ATOM      7  N   LIG    1       11.496   1.322  -1.758  0.00  0.00    -0.217 NA
ATOM      8  C   LIG    1       11.280  -2.195  -1.805  0.00  0.00    +0.069 A 
ATOM      9  C   LIG    1       10.277   1.635  -1.458  0.00  0.00    +0.144 A 
ENDROOT
BRANCH   1  14
ATOM     10  C   LIG    1        5.180   1.907  -0.245  0.00  0.00    +0.072 A 
ATOM     11  C   LIG    1        5.411   0.716  -0.938  0.00  0.00    +0.136 A 
ATOM     12  F   LIG    1        4.392  -0.065  -1.326  0.00  0.00    -0.205 F 
ATOM     13  C   LIG    1        6.708   0.298  -1.250  0.00  0.00    +0.049 A 
ATOM     14  C   LIG    1        7.809   1.079  -0.878  0.00  0.00    +0.006 A 
ATOM     15  C   LIG    1        7.591   2.274  -0.179  0.00  0.00    +0.011 A 
ATOM     16  C   LIG    1        6.286   2.682   0.133  0.00  0.00    +0.016 A 
BRANCH  10  20
ATOM     17  C   LIG    1        1.389   2.011   0.036  0.00  0.00    +0.128 C 
ATOM     18  N   LIG    1        2.742   1.630  -0.275  0.00  0.00    -0.314 N 
ATOM     19  H   LIG    1        2.900   0.736  -0.727  0.00  0.00    +0.149 HD
ATOM     20  C   LIG    1        3.817   2.399   0.113  0.00  0.00    +0.247 C 
ATOM     21  O   LIG    1        3.692   3.453   0.728  0.00  0.00    -0.270 OA
ENDBRANCH  10  20
ENDBRANCH   1  14
BRANCH   8  22
ATOM     22  C   LIG    1       10.537  -3.474  -1.652  0.00  0.00    +0.092 C 
BRANCH  22  23
ATOM     23  C   LIG    1        9.414  -3.656  -2.647  0.00  0.00    -0.041 A 
ATOM     24  C   LIG    1        9.666  -3.678  -4.026  0.00  0.00    +0.014 A 
ATOM     25  C   LIG    1        8.614  -3.823  -4.948  0.00  0.00    +0.001 A 
ATOM     26  C   LIG    1        7.284  -3.952  -4.497  0.00  0.00    +0.071 A 
ATOM     27  N   LIG    1        6.244  -4.069  -5.342  0.00  0.00    -0.255 NA
ATOM     28  C   LIG    1        6.503  -4.067  -6.668  0.00  0.00    +0.111 A 
ATOM     29  C   LIG    1        7.771  -3.960  -7.207  0.00  0.00    +0.020 A 
ATOM     30  C   LIG    1        7.054  -3.951  -3.129  0.00  0.00    +0.028 A 
ATOM     31  C   LIG    1        8.843  -3.838  -6.330  0.00  0.00    +0.011 A 
ATOM     32  C   LIG    1        8.096  -3.810  -2.207  0.00  0.00    +0.006 A 
ENDBRANCH  22  23
ENDBRANCH   8  22
TORSDOF 4
