REMARK  Name = *****
REMARK                            x       y       z     vdW  Elec       q    Type
REMARK                         _______ _______ _______ _____ _____    ______ ____
ROOT
ATOM      1  N   LIG    1        5.167  -2.335   0.336  0.00  0.00    -0.298 NA
ATOM      2  C   LIG    1        5.471  -1.307   1.388  0.00  0.00    +0.069 C 
ATOM      3  C   LIG    1        6.491  -0.235   0.834  0.00  0.00    +0.037 C 
ATOM      4  C   LIG    1        6.562   1.047   1.639  0.00  0.00    -0.033 C 
ATOM      5  C   LIG    1        5.582   1.271   2.608  0.00  0.00    +0.006 C 
ATOM      6  C   LIG    1        5.497   2.457   3.323  0.00  0.00    +0.047 C 
ATOM      7  N   LIG    1        4.419   2.313   4.165  0.00  0.00    -0.360 NA
ATOM      8  H   LIG    1        4.097   3.026   4.813  0.00  0.00    +0.165 HD
ATOM      9  C   LIG    1        3.800   1.102   3.956  0.00  0.00    +0.087 C 
ATOM     10  C   LIG    1        6.381   3.509   3.094  0.00  0.00    +0.026 C 
ATOM     11  C   LIG    1        7.362   3.306   2.112  0.00  0.00    +0.002 C 
ATOM     12  C   LIG    1        4.501   0.447   2.965  0.00  0.00    -0.021 C 
ATOM     13  C   LIG    1        7.457   2.100   1.400  0.00  0.00    +0.005 C 
ATOM     14  C   LIG    1        7.862  -0.935   0.678  0.00  0.00    +0.015 C 
ATOM     15  C   LIG    1        7.747  -2.404   0.192  0.00  0.00    +0.013 C 
ATOM     16  C   LIG    1        4.237  -0.819   2.231  0.00  0.00    +0.056 C 
ATOM     17  C   LIG    1        6.371  -2.684  -0.453  0.00  0.00    +0.089 C 
ENDROOT
BRANCH   1  18
ATOM     18  C   LIG    1        4.065  -1.932  -0.580  0.00  0.00    +0.084 C 
BRANCH  18  20
ATOM     19  C   LIG    1        2.428  -2.589  -2.414  0.00  0.00    +0.005 C 
ATOM     20  C   LIG    1        3.594  -3.043  -1.537  0.00  0.00    +0.012 C 
ENDBRANCH  18  20
ENDBRANCH   1  18
BRANCH  15  21
ATOM     21  C   LIG    1        8.095  -3.471   1.252  0.00  0.00    +0.073 C 
BRANCH  21  22
ATOM     22  S   LIG    1        9.800  -3.365   1.910  0.00  0.00    -0.164 S 
ATOM     23  C   LIG    1       10.725  -3.566   0.369  0.00  0.00    +0.084 C 
ENDBRANCH  21  22
ENDBRANCH  15  21
TORSDOF 4
