REMARK  Name = *****
REMARK                            x       y       z     vdW  Elec       q    Type
REMARK                         _______ _______ _______ _____ _____    ______ ____
ROOT
ATOM      1  C   LIG    1        7.420   9.560   7.043  0.00  0.00    +0.339 C 
ATOM      2  C   LIG    1        8.839   9.942   7.511  0.00  0.00    +0.214 C 
ATOM      3  C   LIG    1        9.602  10.713   6.435  0.00  0.00    +0.180 C 
ATOM      4  C   LIG    1        9.290  10.169   5.043  0.00  0.00    +0.177 C 
ATOM      5  C   LIG    1        7.790  10.292   4.741  0.00  0.00    +0.179 C 
ATOM      6  O   LIG    1        6.976  10.326   5.917  0.00  0.00    -0.331 OA
ENDROOT
BRANCH   2   7
ATOM      7  O   LIG    1        8.750  10.797   8.672  0.00  0.00    -0.383 OA
ATOM      8  H   LIG    1        8.830  10.226   9.456  0.00  0.00    +0.210 HD
ENDBRANCH   2   7
BRANCH   3   9
ATOM      9  O   LIG    1       11.014  10.601   6.679  0.00  0.00    -0.386 OA
ATOM     10  H   LIG    1       11.456  10.866   5.850  0.00  0.00    +0.210 HD
ENDBRANCH   3   9
BRANCH   4  11
ATOM     11  O   LIG    1       10.069  10.889   4.074  0.00  0.00    -0.387 OA
ATOM     12  H   LIG    1        9.784  11.822   4.084  0.00  0.00    +0.210 HD
ENDBRANCH   4  11
BRANCH   1  13
ATOM     13  O   LIG    1        7.328   8.136   6.837  0.00  0.00    -0.461 OA
BRANCH  13  20
ATOM     14  C   LIG    1        1.346   8.102   7.465  0.00  0.00    +0.139 C 
ATOM     15  O   LIG    1        2.594   8.589   7.138  0.00  0.00    -0.454 OA
ATOM     16  C   LIG    1        3.683   7.780   7.300  0.00  0.00    +0.146 A 
ATOM     17  C   LIG    1        3.611   6.479   7.772  0.00  0.00    +0.105 A 
ATOM     18  C   LIG    1        4.785   5.733   7.915  0.00  0.00    +0.135 A 
ATOM     19  C   LIG    1        6.025   6.296   7.594  0.00  0.00    +0.092 A 
ATOM     20  C   LIG    1        6.090   7.614   7.128  0.00  0.00    +0.131 A 
ATOM     21  C   LIG    1        2.285   5.955   8.096  0.00  0.00    +0.197 C 
ATOM     22  O   LIG    1        2.147   4.800   8.504  0.00  0.00    -0.287 OA
ATOM     23  C   LIG    1        4.908   8.338   6.962  0.00  0.00    +0.093 A 
ATOM     24  C   LIG    1        1.131   6.855   7.925  0.00  0.00    +0.098 C 
BRANCH  14  28
ATOM     25  C   LIG    1       -1.755  11.044   6.891  0.00  0.00    +0.161 A 
ATOM     26  C   LIG    1       -0.454  11.431   7.220  0.00  0.00    +0.159 A 
ATOM     27  C   LIG    1        0.542  10.465   7.412  0.00  0.00    +0.060 A 
ATOM     28  C   LIG    1        0.262   9.092   7.279  0.00  0.00    +0.021 A 
ATOM     29  C   LIG    1       -1.042   8.716   6.941  0.00  0.00    +0.015 A 
ATOM     30  C   LIG    1       -2.038   9.681   6.767  0.00  0.00    +0.050 A 
BRANCH  25  32
ATOM     31  C   LIG    1       -2.591  13.148   6.184  0.00  0.00    +0.277 C 
ATOM     32  O   LIG    1       -2.843  11.854   6.716  0.00  0.00    -0.491 OA
ENDBRANCH  25  32
BRANCH  26  33
ATOM     33  O   LIG    1       -0.128  12.748   7.388  0.00  0.00    -0.503 OA
ATOM     34  H   LIG    1        0.808  12.820   7.636  0.00  0.00    +0.292 HD
ENDBRANCH  26  33
ENDBRANCH  14  28
BRANCH  18  35
ATOM     35  O   LIG    1        4.781   4.441   8.374  0.00  0.00    -0.506 OA
ATOM     36  H   LIG    1        3.849   4.175   8.540  0.00  0.00    +0.292 HD
ENDBRANCH  18  35
ENDBRANCH  13  20
ENDBRANCH   1  13
BRANCH   5  37
ATOM     37  C   LIG    1        7.319   9.228   3.732  0.00  0.00    +0.197 C 
BRANCH  37  38
ATOM     38  O   LIG    1        5.984   9.547   3.305  0.00  0.00    -0.346 OA
BRANCH  38  39
ATOM     39  C   LIG    1        5.477   8.612   2.344  0.00  0.00    +0.282 C 
ATOM     40  C   LIG    1        4.000   8.946   2.038  0.00  0.00    +0.201 C 
ATOM     41  C   LIG    1        3.913  10.282   1.298  0.00  0.00    +0.179 C 
ATOM     42  C   LIG    1        4.829  10.295   0.069  0.00  0.00    +0.174 C 
ATOM     43  C   LIG    1        6.253   9.869   0.456  0.00  0.00    +0.149 C 
ATOM     44  C   LIG    1        7.142   9.720  -0.773  0.00  0.00    +0.040 C 
ATOM     45  O   LIG    1        6.266   8.619   1.147  0.00  0.00    -0.343 OA
BRANCH  40  46
ATOM     46  O   LIG    1        3.387   7.926   1.231  0.00  0.00    -0.384 OA
ATOM     47  H   LIG    1        2.560   8.331   0.898  0.00  0.00    +0.210 HD
ENDBRANCH  40  46
BRANCH  41  48
ATOM     48  O   LIG    1        2.555  10.509   0.879  0.00  0.00    -0.386 OA
ATOM     49  H   LIG    1        2.601  11.232   0.220  0.00  0.00    +0.210 HD
ENDBRANCH  41  48
BRANCH  42  50
ATOM     50  O   LIG    1        4.797  11.610  -0.507  0.00  0.00    -0.387 OA
ATOM     51  H   LIG    1        5.307  12.208   0.069  0.00  0.00    +0.210 HD
ENDBRANCH  42  50
ENDBRANCH  38  39
ENDBRANCH  37  38
ENDBRANCH   5  37
TORSDOF 15
