REMARK  Name = *****
REMARK                            x       y       z     vdW  Elec       q    Type
REMARK                         _______ _______ _______ _____ _____    ______ ____
ROOT
ATOM      1  O   LIG    1        1.075  -1.171  -5.813  0.00  0.00    -0.340 OA
ENDROOT
BRANCH   1   4
ATOM      2  C   LIG    1        0.772   1.927  -5.094  0.00  0.00    +0.241 C 
ATOM      3  C   LIG    1        1.915   0.932  -4.674  0.00  0.00    +0.219 C 
ATOM      4  C   LIG    1        1.435  -0.561  -4.552  0.00  0.00    +0.181 C 
ATOM      5  C   LIG    1        0.256  -0.603  -3.576  0.00  0.00    +0.197 C 
ATOM      6  O   LIG    1       -0.370   0.648  -3.324  0.00  0.00    -0.346 OA
ATOM      7  C   LIG    1       -0.554   1.477  -4.461  0.00  0.00    +0.281 C 
BRANCH   7   8
ATOM      8  O   LIG    1       -1.271   2.637  -4.063  0.00  0.00    -0.365 OA
ATOM      9  H   LIG    1       -1.152   2.658  -3.093  0.00  0.00    +0.213 HD
ENDBRANCH   7   8
BRANCH   3  10
ATOM     10  O   LIG    1        2.613   1.357  -3.428  0.00  0.00    -0.207 OA
BRANCH  10  11
ATOM     11  S   LIG    1        1.982   1.603  -1.924  0.00  0.00    +0.208 S 
ATOM     12  O   LIG    1        0.752   2.365  -1.990  0.00  0.00    -0.118 OA
ATOM     13  O   LIG    1        3.016   2.031  -1.016  0.00  0.00    -0.118 OA
BRANCH  11  14
ATOM     14  O   LIG    1        1.645   0.114  -1.376  0.00  0.00    -0.231 OA
ATOM     15  H   LIG    1        1.929  -0.004  -0.448  0.00  0.00    +0.247 HD
ENDBRANCH  11  14
ENDBRANCH  10  11
ENDBRANCH   3  10
BRANCH   2  16
ATOM     16  O   LIG    1        0.609   2.385  -6.460  0.00  0.00    -0.205 OA
BRANCH  16  18
ATOM     17  O   LIG    1       -1.372   0.996  -7.257  0.00  0.00    -0.118 OA
ATOM     18  S   LIG    1       -0.108   1.546  -7.651  0.00  0.00    +0.208 S 
ATOM     19  O   LIG    1        0.931   0.708  -8.206  0.00  0.00    -0.118 OA
BRANCH  18  20
ATOM     20  O   LIG    1       -0.406   2.611  -8.829  0.00  0.00    -0.231 OA
ATOM     21  H   LIG    1       -0.347   2.139  -9.690  0.00  0.00    +0.247 HD
ENDBRANCH  18  20
ENDBRANCH  16  18
ENDBRANCH   2  16
ENDBRANCH   1   4
BRANCH   1  22
ATOM     22  C   LIG    1        0.624  -2.557  -5.744  0.00  0.00    +0.284 C 
ATOM     23  C   LIG    1       -0.024  -2.961  -7.101  0.00  0.00    +0.241 C 
ATOM     24  C   LIG    1        0.835  -3.978  -7.915  0.00  0.00    +0.218 C 
ATOM     25  C   LIG    1        1.447  -5.115  -7.080  0.00  0.00    +0.174 C 
ATOM     26  C   LIG    1        1.290  -4.846  -5.590  0.00  0.00    +0.197 C 
ATOM     27  O   LIG    1        1.627  -3.476  -5.306  0.00  0.00    -0.346 OA
BRANCH  25  28
ATOM     28  O   LIG    1        0.921  -6.391  -7.452  0.00  0.00    -0.387 OA
ATOM     29  H   LIG    1        0.366  -6.297  -8.249  0.00  0.00    +0.210 HD
ENDBRANCH  25  28
BRANCH  23  30
ATOM     30  O   LIG    1       -1.286  -3.649  -6.897  0.00  0.00    -0.205 OA
BRANCH  30  31
ATOM     31  S   LIG    1       -2.564  -2.900  -6.218  0.00  0.00    +0.208 S 
ATOM     32  O   LIG    1       -3.010  -1.828  -7.069  0.00  0.00    -0.118 OA
ATOM     33  O   LIG    1       -2.302  -2.707  -4.811  0.00  0.00    -0.118 OA
BRANCH  31  34
ATOM     34  O   LIG    1       -3.706  -4.030  -6.238  0.00  0.00    -0.231 OA
ATOM     35  H   LIG    1       -4.237  -3.899  -5.423  0.00  0.00    +0.247 HD
ENDBRANCH  31  34
ENDBRANCH  30  31
ENDBRANCH  23  30
BRANCH  24  36
ATOM     36  O   LIG    1        1.962  -3.454  -8.597  0.00  0.00    -0.207 OA
BRANCH  36  37
ATOM     37  S   LIG    1        1.726  -2.446  -9.817  0.00  0.00    +0.208 S 
ATOM     38  O   LIG    1        1.915  -1.109  -9.261  0.00  0.00    -0.118 OA
ATOM     39  O   LIG    1        0.571  -2.808 -10.557  0.00  0.00    -0.118 OA
BRANCH  37  40
ATOM     40  O   LIG    1        3.008  -2.644 -10.749  0.00  0.00    -0.231 OA
ATOM     41  H   LIG    1        3.066  -1.828 -11.288  0.00  0.00    +0.247 HD
ENDBRANCH  37  40
ENDBRANCH  36  37
ENDBRANCH  24  36
ENDBRANCH   1  22
TORSDOF 16
