REMARK  Name = *****
REMARK                            x       y       z     vdW  Elec       q    Type
REMARK                         _______ _______ _______ _____ _____    ______ ____
ROOT
ATOM      1  C   LIG    1        2.484  -0.072  -0.063  0.00  0.00    +0.399 C 
ENDROOT
BRANCH   1   2
ATOM      2  C   LIG    1        2.764  -0.702  -1.474  0.00  0.00    +0.263 C 
ATOM      3 CL   LIG    1        2.063   0.337  -2.762  0.00  0.00    -0.076 Cl
ATOM      4 CL   LIG    1        2.000  -2.324  -1.595  0.00  0.00    -0.076 Cl
ATOM      5 CL   LIG    1        4.524  -0.858  -1.770  0.00  0.00    -0.076 Cl
ENDBRANCH   1   2
BRANCH   1   6
ATOM      6  O   LIG    1        1.099   0.039   0.256  0.00  0.00    -0.504 OA
ATOM      7  H   LIG    1        0.700  -0.825   0.042  0.00  0.00    +0.287 HD
ENDBRANCH   1   6
BRANCH   1   8
ATOM      8  O   LIG    1        3.059  -0.808   1.009  0.00  0.00    -0.504 OA
ATOM      9  H   LIG    1        2.998  -0.222   1.784  0.00  0.00    +0.287 HD
ENDBRANCH   1   8
TORSDOF 3
