REMARK  Name = *****
REMARK                            x       y       z     vdW  Elec       q    Type
REMARK                         _______ _______ _______ _____ _____    ______ ____
ROOT
ATOM      1  C   LIG    1        2.613   0.007  -0.122  0.00  0.00    +0.216 A 
ATOM      2  N   LIG    1        3.187   1.204  -0.153  0.00  0.00    -0.193 NA
ATOM      3  C   LIG    1        4.515   1.254  -0.156  0.00  0.00    +0.187 A 
ATOM      4  C   LIG    1        5.322   0.115  -0.113  0.00  0.00    +0.148 A 
ATOM      5  N   LIG    1        6.685   0.176  -0.093  0.00  0.00    -0.237 NA
ATOM      6  C   LIG    1        7.244   1.412  -0.127  0.00  0.00    +0.111 A 
ATOM      7  C   LIG    1        6.428   2.552  -0.202  0.00  0.00    +0.145 A 
ATOM      8  C   LIG    1        4.606  -1.077  -0.061  0.00  0.00    +0.149 A 
ATOM      9  N   LIG    1        5.082   2.464  -0.200  0.00  0.00    -0.209 NA
ATOM     10  N   LIG    1        3.267  -1.148  -0.060  0.00  0.00    -0.198 NA
ENDROOT
BRANCH   6  11
ATOM     11  C   LIG    1        8.720   1.427  -0.100  0.00  0.00    +0.004 A 
ATOM     12  C   LIG    1        9.455   0.501  -0.865  0.00  0.00    +0.010 A 
ATOM     13  C   LIG    1       10.853   0.495  -0.855  0.00  0.00    +0.001 A 
ATOM     14  C   LIG    1       11.547   1.412  -0.072  0.00  0.00    +0.000 A 
ATOM     15  C   LIG    1       10.845   2.329   0.705  0.00  0.00    +0.001 A 
ATOM     16  C   LIG    1        9.446   2.332   0.694  0.00  0.00    +0.010 A 
ENDBRANCH   6  11
BRANCH   1  17
ATOM     17  N   LIG    1        1.236  -0.040  -0.112  0.00  0.00    -0.327 N 
ATOM     18  H   LIG    1        0.854   0.830   0.235  0.00  0.00    +0.145 HD
ATOM     19  H   LIG    1        0.909  -0.896   0.313  0.00  0.00    +0.145 HD
ENDBRANCH   1  17
BRANCH   7  20
ATOM     20  N   LIG    1        6.921   3.857  -0.265  0.00  0.00    -0.341 N 
ATOM     21  H   LIG    1        6.123   4.478  -0.385  0.00  0.00    +0.144 HD
ATOM     22  H   LIG    1        7.602   3.964  -1.011  0.00  0.00    +0.144 HD
ENDBRANCH   7  20
BRANCH   8  23
ATOM     23  N   LIG    1        5.275  -2.312  -0.079  0.00  0.00    -0.341 N 
ATOM     24  H   LIG    1        6.079  -2.309   0.542  0.00  0.00    +0.144 HD
ATOM     25  H   LIG    1        4.611  -3.060   0.089  0.00  0.00    +0.144 HD
ENDBRANCH   8  23
TORSDOF 4
