REMARK  Name = *****
REMARK                            x       y       z     vdW  Elec       q    Type
REMARK                         _______ _______ _______ _____ _____    ______ ____
ROOT
ATOM      1  C   LIG    1        2.955  -1.081  -0.199  0.00  0.00    +0.026 C 
ENDROOT
BRANCH   1   2
ATOM      2  C   LIG    1        2.266   0.245   0.125  0.00  0.00    +0.078 C 
BRANCH   2   3
ATOM      3  N   LIG    1        2.556   1.239  -0.906  0.00  0.00    -0.330 NA
ATOM      4  H   LIG    1        2.174   0.914  -1.797  0.00  0.00    +0.118 HD
ATOM      5  H   LIG    1        2.039   2.093  -0.689  0.00  0.00    +0.118 HD
ENDBRANCH   2   3
ENDBRANCH   1   2
BRANCH   1   6
ATOM      6  C   LIG    1        4.474  -0.957  -0.298  0.00  0.00    +0.121 C 
BRANCH   6   7
ATOM      7  C   LIG    1        5.067  -0.471   1.000  0.00  0.00    +0.305 C 
ATOM      8  O   LIG    1        4.921  -1.048   2.071  0.00  0.00    -0.251 OA
BRANCH   7   9
ATOM      9  O   LIG    1        5.772   0.674   0.889  0.00  0.00    -0.481 OA
ATOM     10  H   LIG    1        5.735   1.068  -0.005  0.00  0.00    +0.295 HD
ENDBRANCH   7   9
ENDBRANCH   6   7
ENDBRANCH   1   6
TORSDOF 5
