REMARK  Name = *****
REMARK                            x       y       z     vdW  Elec       q    Type
REMARK                         _______ _______ _______ _____ _____    ______ ____
ROOT
ATOM      1  C   LIG    1        5.308  -2.506  -5.266  0.00  0.00    +0.019 A 
ATOM      2  C   LIG    1        5.629  -3.697  -4.598  0.00  0.00    +0.035 A 
ATOM      3  C   LIG    1        6.763  -3.797  -3.775  0.00  0.00    +0.049 A 
ATOM      4  N   LIG    1        6.955  -5.006  -3.011  0.00  0.00    -0.297 N 
ATOM      5  C   LIG    1        8.275  -5.390  -2.605  0.00  0.00    +0.048 A 
ATOM      6  C   LIG    1        9.325  -4.467  -2.432  0.00  0.00    +0.034 A 
ATOM      7  S   LIG    1        9.125  -2.720  -2.723  0.00  0.00    -0.086 S 
ATOM      8  C   LIG    1       10.585  -4.907  -1.994  0.00  0.00    +0.017 A 
ATOM      9  C   LIG    1       10.819  -6.259  -1.744  0.00  0.00    +0.001 A 
ATOM     10  C   LIG    1        9.806  -7.183  -1.963  0.00  0.00    +0.002 A 
ATOM     11  C   LIG    1        8.555  -6.752  -2.408  0.00  0.00    +0.024 A 
ATOM     12  C   LIG    1        7.645  -2.702  -3.710  0.00  0.00    +0.034 A 
ATOM     13  C   LIG    1        7.344  -1.520  -4.404  0.00  0.00    +0.017 A 
ATOM     14  C   LIG    1        6.179  -1.411  -5.169  0.00  0.00    +0.012 A 
ENDROOT
BRANCH   1  16
ATOM     15  C   LIG    1        3.612  -1.142  -6.684  0.00  0.00    +0.091 C 
ATOM     16  C   LIG    1        4.025  -2.442  -6.029  0.00  0.00    +0.160 C 
ATOM     17  O   LIG    1        3.330  -3.433  -6.123  0.00  0.00    -0.292 OA
ENDBRANCH   1  16
BRANCH   4  18
ATOM     18  C   LIG    1        6.045  -4.921  -1.800  0.00  0.00    +0.129 C 
BRANCH  18  19
ATOM     19  C   LIG    1        5.519  -6.288  -1.233  0.00  0.00    +0.071 C 
ATOM     20  C   LIG    1        4.846  -7.150  -2.317  0.00  0.00    +0.026 C 
BRANCH  19  21
ATOM     21  N   LIG    1        4.623  -6.213  -0.041  0.00  0.00    -0.304 NA
ATOM     22  C   LIG    1        3.289  -5.671  -0.285  0.00  0.00    +0.105 C 
ATOM     23  C   LIG    1        5.247  -5.577   1.115  0.00  0.00    +0.105 C 
ENDBRANCH  19  21
ENDBRANCH  18  19
ENDBRANCH   4  18
TORSDOF 4
