REMARK  Name = *****
REMARK                            x       y       z     vdW  Elec       q    Type
REMARK                         _______ _______ _______ _____ _____    ______ ____
ROOT
ATOM      1  C   LIG    1        2.549   2.550  -0.737  0.00  0.00    -0.042 A 
ATOM      2  C   LIG    1        2.558   3.897  -0.348  0.00  0.00    +0.052 A 
ATOM      3  C   LIG    1        2.350   4.888  -1.298  0.00  0.00    +0.159 A 
ATOM      4  C   LIG    1        2.119   4.564  -2.631  0.00  0.00    +0.158 A 
ATOM      5  C   LIG    1        2.107   3.237  -3.037  0.00  0.00    +0.049 A 
ATOM      6  C   LIG    1        2.326   2.232  -2.089  0.00  0.00    +0.007 A 
ENDROOT
BRANCH   3   7
ATOM      7  O   LIG    1        2.372   6.196  -0.907  0.00  0.00    -0.503 OA
ATOM      8  H   LIG    1        2.190   6.697  -1.728  0.00  0.00    +0.292 HD
ENDBRANCH   3   7
BRANCH   4   9
ATOM      9  O   LIG    1        1.905   5.591  -3.508  0.00  0.00    -0.503 OA
ATOM     10  H   LIG    1        1.735   5.206  -4.385  0.00  0.00    +0.292 HD
ENDBRANCH   4   9
BRANCH   1  11
ATOM     11  C   LIG    1        2.772   1.450   0.278  0.00  0.00    +0.065 C 
BRANCH  11  12
ATOM     12  CA  LIG    1        4.237   1.030   0.489  0.00  0.00    +0.165 C 
BRANCH  12  13
ATOM     13  N   LIG    1        5.121   2.137   0.976  0.00  0.00    -0.318 NA
ATOM     14  H1  LIG    1        4.897   2.984   0.438  0.00  0.00    +0.119 HD
ATOM     15  H2  LIG    1        4.820   2.373   1.925  0.00  0.00    +0.119 HD
ENDBRANCH  12  13
BRANCH  12  16
ATOM     16  C   LIG    1        4.848   0.425  -0.783  0.00  0.00    +0.322 C 
ATOM     17  O   LIG    1        4.321  -0.423  -1.487  0.00  0.00    -0.249 OA
BRANCH  16  18
ATOM     18  OXT LIG    1        6.081   0.938  -1.032  0.00  0.00    -0.479 OA
ATOM     19  HXT LIG    1        6.264   1.567  -0.291  0.00  0.00    +0.295 HD
ENDBRANCH  16  18
ENDBRANCH  12  16
ENDBRANCH  11  12
ENDBRANCH   1  11
TORSDOF 7
