REMARK  Name = *****
REMARK                            x       y       z     vdW  Elec       q    Type
REMARK                         _______ _______ _______ _____ _____    ______ ____
ROOT
ATOM      1  C   LIG    1       11.047   1.933   3.244  0.00  0.00    -0.047 A 
ATOM      2  C   LIG    1       10.331   2.453   2.160  0.00  0.00    +0.004 A 
ATOM      3  C   LIG    1        9.617   1.611   1.303  0.00  0.00    +0.005 A 
ATOM      4  C   LIG    1        9.620   0.224   1.502  0.00  0.00    -0.034 A 
ATOM      5  C   LIG    1       10.347  -0.298   2.582  0.00  0.00    +0.005 A 
ATOM      6  C   LIG    1       11.048   0.548   3.449  0.00  0.00    +0.004 A 
ENDROOT
BRANCH   4   7
ATOM      7  C   LIG    1        8.852  -0.681   0.552  0.00  0.00    +0.124 C 
ATOM      8  C   LIG    1        7.672  -1.356   1.258  0.00  0.00    +0.024 C 
BRANCH   7   9
ATOM      9  C   LIG    1        9.743  -1.711  -0.139  0.00  0.00    +0.312 C 
ATOM     10  O   LIG    1        9.508  -2.908  -0.205  0.00  0.00    -0.250 OA
BRANCH   9  11
ATOM     11  O   LIG    1       10.821  -1.168  -0.757  0.00  0.00    -0.480 OA
ATOM     12  H   LIG    1       10.916  -0.207  -0.601  0.00  0.00    +0.295 HD
ENDBRANCH   9  11
ENDBRANCH   7   9
ENDBRANCH   4   7
BRANCH   1  13
ATOM     13  C   LIG    1       11.782   2.858   4.188  0.00  0.00    +0.038 C 
BRANCH  13  15
ATOM     14  C   LIG    1       11.816   4.203   6.314  0.00  0.00    +0.007 C 
ATOM     15  C   LIG    1       10.953   3.323   5.404  0.00  0.00    -0.013 C 
ATOM     16  C   LIG    1        9.695   4.100   5.005  0.00  0.00    +0.007 C 
ENDBRANCH  13  15
ENDBRANCH   1  13
TORSDOF 5
