REMARK  Name = *****
REMARK                            x       y       z     vdW  Elec       q    Type
REMARK                         _______ _______ _______ _____ _____    ______ ____
ROOT
ATOM      1  C   LIG    1        3.637   1.581  -0.725  0.00  0.00    +0.121 C 
ENDROOT
BRANCH   1   2
ATOM      2  C   LIG    1        4.917   1.085  -0.020  0.00  0.00    +0.022 A 
ATOM      3  C   LIG    1        5.899   1.987   0.424  0.00  0.00    +0.132 A 
ATOM      4  F   LIG    1        5.736   3.303   0.224  0.00  0.00    -0.205 F 
ATOM      5  C   LIG    1        7.059   1.560   1.071  0.00  0.00    +0.077 A 
ATOM      6  C   LIG    1        7.264   0.205   1.267  0.00  0.00    +0.126 A 
ATOM      7  F   LIG    1        8.374  -0.219   1.887  0.00  0.00    -0.205 F 
ATOM      8  C   LIG    1        6.333  -0.725   0.829  0.00  0.00    +0.039 A 
ATOM      9  C   LIG    1        5.161  -0.286   0.206  0.00  0.00    +0.012 A 
ENDBRANCH   1   2
BRANCH   1  11
ATOM     10  C   LIG    1        2.629   2.612  -2.920  0.00  0.00    +0.017 C 
ATOM     11  C   LIG    1        3.926   2.256  -2.148  0.00  0.00    +0.076 C 
BRANCH  11  12
ATOM     12  C   LIG    1        4.790   1.415  -3.101  0.00  0.00    +0.086 A 
ATOM     13  C   LIG    1        5.296   1.951  -4.270  0.00  0.00    +0.163 A 
ATOM     14  F   LIG    1        5.077   3.232  -4.619  0.00  0.00    -0.202 F 
ATOM     15  C   LIG    1        6.015   1.121  -5.095  0.00  0.00    +0.152 A 
ATOM     16  N   LIG    1        6.301  -0.163  -4.787  0.00  0.00    -0.241 NA
ATOM     17  C   LIG    1        5.796  -0.593  -3.627  0.00  0.00    +0.221 A 
ATOM     18  N   LIG    1        5.004   0.106  -2.792  0.00  0.00    -0.237 NA
ENDBRANCH  11  12
ENDBRANCH   1  11
BRANCH   1  19
ATOM     19  O   LIG    1        2.744   0.469  -0.981  0.00  0.00    -0.381 OA
ATOM     20  H   LIG    1        3.228  -0.120  -1.595  0.00  0.00    +0.211 HD
ENDBRANCH   1  19
BRANCH   1  21
ATOM     21  C   LIG    1        2.850   2.555   0.210  0.00  0.00    +0.185 C 
BRANCH  21  22
ATOM     22  N   LIG    1        2.368   1.957   1.448  0.00  0.00    -0.249 N 
ATOM     23  N   LIG    1        3.047   2.089   2.606  0.00  0.00    -0.158 NA
ATOM     24  C   LIG    1        2.215   1.493   3.467  0.00  0.00    +0.244 A 
ATOM     25  N   LIG    1        1.042   1.044   2.933  0.00  0.00    -0.223 NA
ATOM     26  C   LIG    1        1.161   1.362   1.662  0.00  0.00    +0.219 A 
ENDBRANCH  21  22
ENDBRANCH   1  21
TORSDOF 6
