REMARK  Name = *****
REMARK                            x       y       z     vdW  Elec       q    Type
REMARK                         _______ _______ _______ _____ _____    ______ ____
ROOT
ATOM      1  C   LIG    1        3.826  -2.903  -2.198  0.00  0.00    +0.341 C 
ATOM      2  O   LIG    1        3.033  -3.839  -2.296  0.00  0.00    -0.247 OA
ENDROOT
BRANCH   1   3
ATOM      3  O   LIG    1        3.505  -1.626  -1.851  0.00  0.00    -0.459 OA
BRANCH   3  11
ATOM      4  C   LIG    1        2.583  -1.509   2.373  0.00  0.00    +0.007 C 
ATOM      5  C   LIG    1        2.769  -1.007   0.943  0.00  0.00    -0.010 C 
ATOM      6  C   LIG    1        2.409   0.482   0.836  0.00  0.00    +0.010 C 
ATOM      7  C   LIG    1        2.532   1.053  -0.598  0.00  0.00    -0.031 C 
ATOM      8  C   LIG    1        1.841   2.434  -0.634  0.00  0.00    +0.011 C 
ATOM      9  C   LIG    1        4.012   1.274  -0.964  0.00  0.00    +0.011 C 
ATOM     10  C   LIG    1        1.834   0.123  -1.628  0.00  0.00    +0.051 C 
ATOM     11  C   LIG    1        2.137  -1.377  -1.476  0.00  0.00    +0.177 C 
ATOM     12  C   LIG    1        1.912  -1.826  -0.030  0.00  0.00    +0.048 C 
ENDBRANCH   3  11
ENDBRANCH   1   3
BRANCH   1  13
ATOM     13  C   LIG    1        5.335  -3.040  -2.446  0.00  0.00    +0.253 C 
BRANCH  13  14
ATOM     14  C   LIG    1        6.101  -3.368  -1.179  0.00  0.00    -0.008 A 
ATOM     15  C   LIG    1        5.897  -4.575  -0.487  0.00  0.00    +0.007 A 
ATOM     16  C   LIG    1        6.618  -4.862   0.675  0.00  0.00    +0.000 A 
ATOM     17  C   LIG    1        7.550  -3.949   1.162  0.00  0.00    +0.000 A 
ATOM     18  C   LIG    1        7.762  -2.748   0.490  0.00  0.00    +0.000 A 
ATOM     19  C   LIG    1        7.043  -2.459  -0.673  0.00  0.00    +0.007 A 
ENDBRANCH  13  14
BRANCH  13  20
ATOM     20  O   LIG    1        5.623  -4.043  -3.423  0.00  0.00    -0.376 OA
ATOM     21  H   LIG    1        4.988  -4.766  -3.265  0.00  0.00    +0.211 HD
ENDBRANCH  13  20
ENDBRANCH   1  13
TORSDOF 5
