REMARK  Name = *****
REMARK                            x       y       z     vdW  Elec       q    Type
REMARK                         _______ _______ _______ _____ _____    ______ ____
ROOT
ATOM      1  C   LIG    1        4.084  -1.420   0.558  0.00  0.00    +0.225 C 
ATOM      2  C   LIG    1        3.133  -2.435  -0.108  0.00  0.00    +0.045 C 
ATOM      3  C   LIG    1        3.507  -2.589  -1.598  0.00  0.00    +0.058 C 
ATOM      4  C   LIG    1        3.730  -1.200  -2.224  0.00  0.00    +0.133 C 
ATOM      5  N   LIG    1        2.981  -0.148  -1.347  0.00  0.00    +0.246 N 
ATOM      6  C   LIG    1        1.576  -0.732  -1.064  0.00  0.00    +0.133 C 
ATOM      7  C   LIG    1        1.709  -1.880  -0.059  0.00  0.00    +0.058 C 
ATOM      8  C   LIG    1        3.789  -0.009  -0.010  0.00  0.00    +0.179 C 
ENDROOT
BRANCH   1   9
ATOM      9  O   LIG    1        5.417  -1.887   0.269  0.00  0.00    -0.453 OA
BRANCH   9  11
ATOM     10  O   LIG    1        6.348  -0.277   1.578  0.00  0.00    -0.247 OA
ATOM     11  C   LIG    1        6.444  -1.319   0.958  0.00  0.00    +0.350 C 
BRANCH  11  12
ATOM     12  C   LIG    1        7.722  -2.243   0.761  0.00  0.00    +0.226 C 
BRANCH  12  13
ATOM     13  C   LIG    1        7.723  -3.390   1.775  0.00  0.00    +0.037 A 
ATOM     14  S   LIG    1        7.024  -3.246   3.343  0.00  0.00    -0.098 S 
ATOM     15  C   LIG    1        7.428  -4.853   3.759  0.00  0.00    +0.045 A 
ATOM     16  C   LIG    1        8.101  -5.494   2.746  0.00  0.00    +0.008 A 
ATOM     17  C   LIG    1        8.272  -4.655   1.610  0.00  0.00    +0.015 A 
ENDBRANCH  12  13
BRANCH  12  18
ATOM     18  C   LIG    1        8.990  -1.402   0.806  0.00  0.00    +0.037 A 
ATOM     19  S   LIG    1        9.616  -0.693  -0.638  0.00  0.00    -0.098 S 
ATOM     20  C   LIG    1       10.949  -0.015   0.182  0.00  0.00    +0.045 A 
ATOM     21  C   LIG    1       10.910  -0.272   1.532  0.00  0.00    +0.008 A 
ATOM     22  C   LIG    1        9.778  -1.058   1.893  0.00  0.00    +0.015 A 
ENDBRANCH  12  18
BRANCH  12  23
ATOM     23  O   LIG    1        7.658  -2.882  -0.521  0.00  0.00    -0.369 OA
ATOM     24  H   LIG    1        7.772  -2.175  -1.178  0.00  0.00    +0.212 HD
ENDBRANCH  12  23
ENDBRANCH  11  12
ENDBRANCH   9  11
ENDBRANCH   1   9
BRANCH   5  25
ATOM     25  C   LIG    1        2.905   1.223  -2.100  0.00  0.00    +0.136 C 
BRANCH  25  26
ATOM     26  C   LIG    1        2.147   2.291  -1.295  0.00  0.00    +0.092 C 
BRANCH  26  27
ATOM     27  C   LIG    1        1.990   3.646  -1.997  0.00  0.00    +0.234 C 
BRANCH  27  28
ATOM     28  O   LIG    1        3.248   4.294  -2.170  0.00  0.00    -0.492 OA
BRANCH  28  29
ATOM     29  C   LIG    1        3.197   5.579  -2.670  0.00  0.00    +0.120 A 
ATOM     30  C   LIG    1        4.423   6.250  -2.744  0.00  0.00    +0.045 A 
ATOM     31  C   LIG    1        4.493   7.571  -3.204  0.00  0.00    +0.004 A 
ATOM     32  C   LIG    1        3.337   8.232  -3.611  0.00  0.00    +0.000 A 
ATOM     33  C   LIG    1        2.116   7.565  -3.571  0.00  0.00    +0.004 A 
ATOM     34  C   LIG    1        2.044   6.247  -3.099  0.00  0.00    +0.045 A 
ENDBRANCH  28  29
ENDBRANCH  27  28
ENDBRANCH  26  27
ENDBRANCH  25  26
ENDBRANCH   5  25
TORSDOF 11
