REMARK  Name = *****
REMARK                            x       y       z     vdW  Elec       q    Type
REMARK                         _______ _______ _______ _____ _____    ______ ____
ROOT
ATOM      1  C   LIG    1        8.807   8.048  -3.946  0.00  0.00    -0.000 C 
ENDROOT
BRANCH   1   2
ATOM      2  C   LIG    1        9.184   8.496  -2.518  0.00  0.00    -0.000 C 
BRANCH   2   3
ATOM      3  C   LIG    1        8.369   7.870  -1.352  0.00  0.00    -0.000 C 
BRANCH   3   4
ATOM      4  C   LIG    1        8.469   6.339  -1.170  0.00  0.00    -0.000 C 
BRANCH   4   5
ATOM      5  C   LIG    1        7.651   5.826   0.041  0.00  0.00    -0.000 C 
BRANCH   5   6
ATOM      6  C   LIG    1        7.733   4.306   0.323  0.00  0.00    -0.000 C 
BRANCH   6   7
ATOM      7  C   LIG    1        7.180   3.405  -0.792  0.00  0.00    -0.000 C 
BRANCH   7   8
ATOM      8  C   LIG    1        7.257   1.904  -0.445  0.00  0.00    -0.000 C 
BRANCH   8   9
ATOM      9  C   LIG    1        6.797   1.026  -1.620  0.00  0.00    -0.000 C 
BRANCH   9  11
ATOM     10  C   LIG    1        6.434  -1.324  -2.485  0.00  0.00    +0.004 C 
ATOM     11  C   LIG    1        6.860  -0.471  -1.296  0.00  0.00    -0.003 C 
ENDBRANCH   9  11
ENDBRANCH   8   9
ENDBRANCH   7   8
ENDBRANCH   6   7
ENDBRANCH   5   6
ENDBRANCH   4   5
ENDBRANCH   3   4
ENDBRANCH   2   3
ENDBRANCH   1   2
BRANCH   1  12
ATOM     12  C   LIG    1        9.568   8.776  -5.101  0.00  0.00    -0.000 C 
BRANCH  12  13
ATOM     13  C   LIG    1        9.261  10.282  -5.134  0.00  0.00    +0.000 C 
BRANCH  13  14
ATOM     14  C   LIG    1        9.870  11.153  -6.250  0.00  0.00    +0.006 C 
BRANCH  14  15
ATOM     15  C   LIG    1        9.412  10.896  -7.710  0.00  0.00    +0.072 C 
BRANCH  15  16
ATOM     16  C   LIG    1        7.898  10.983  -7.927  0.00  0.00    +0.356 C 
BRANCH  16  17
ATOM     17  N   LIG    1        7.380  10.918  -9.351  0.00  0.00    -0.204 N 
ATOM     18  C   LIG    1        6.049  11.219  -9.538  0.00  0.00    +0.309 A 
ATOM     19  C   LIG    1        5.500  11.294 -10.814  0.00  0.00    +0.070 A 
ATOM     20  C   LIG    1        6.281  11.040 -11.920  0.00  0.00    +0.012 A 
ATOM     21  C   LIG    1        7.622  10.700 -11.727  0.00  0.00    +0.070 A 
ATOM     22  C   LIG    1        8.142  10.637 -10.424  0.00  0.00    +0.309 A 
ENDBRANCH  16  17
ENDBRANCH  15  16
ENDBRANCH  14  15
ENDBRANCH  13  14
ENDBRANCH  12  13
ENDBRANCH   1  12
TORSDOF 15
