REMARK  Name = *****
REMARK                            x       y       z     vdW  Elec       q    Type
REMARK                         _______ _______ _______ _____ _____    ______ ____
ROOT
ATOM      1  C   LIG    1        0.958  -1.611   0.083  0.00  0.00    -0.034 A 
ATOM      2  C   LIG    1        0.144  -2.678   0.489  0.00  0.00    +0.005 A 
ATOM      3  C   LIG    1        0.385  -3.977   0.034  0.00  0.00    +0.004 A 
ATOM      4  C   LIG    1        1.441  -4.239  -0.844  0.00  0.00    -0.047 A 
ATOM      5  C   LIG    1        2.260  -3.177  -1.248  0.00  0.00    +0.004 A 
ATOM      6  C   LIG    1        2.022  -1.876  -0.791  0.00  0.00    +0.005 A 
ENDROOT
BRANCH   1   8
ATOM      7  C   LIG    1       -0.677   0.304   0.148  0.00  0.00    +0.024 C 
ATOM      8  C   LIG    1        0.702  -0.197   0.587  0.00  0.00    +0.124 C 
BRANCH   8   9
ATOM      9  C   LIG    1        0.864  -0.069   2.101  0.00  0.00    +0.312 C 
ATOM     10  O   LIG    1        0.040   0.445   2.850  0.00  0.00    -0.250 OA
BRANCH   9  11
ATOM     11  O   LIG    1        2.053  -0.520   2.566  0.00  0.00    -0.480 OA
ATOM     12  H   LIG    1        2.609  -0.938   1.878  0.00  0.00    +0.295 HD
ENDBRANCH   9  11
ENDBRANCH   8   9
ENDBRANCH   1   8
BRANCH   4  13
ATOM     13  C   LIG    1        1.710  -5.643  -1.333  0.00  0.00    +0.046 C 
BRANCH  13  14
ATOM     14  C   LIG    1        0.555  -6.272  -2.121  0.00  0.00    +0.059 C 
ATOM     15  C   LIG    1        1.021  -7.594  -2.697  0.00  0.00    +0.137 C 
ATOM     16  O   LIG    1        1.247  -8.591  -2.022  0.00  0.00    -0.297 OA
ATOM     17  C   LIG    1        1.188  -7.545  -4.195  0.00  0.00    +0.075 C 
ATOM     18  C   LIG    1        1.090  -6.053  -4.478  0.00  0.00    +0.008 C 
ATOM     19  C   LIG    1        0.154  -5.526  -3.400  0.00  0.00    +0.012 C 
ENDBRANCH  13  14
ENDBRANCH   4  13
TORSDOF 5
