REMARK  Name = *****
REMARK                            x       y       z     vdW  Elec       q    Type
REMARK                         _______ _______ _______ _____ _____    ______ ____
ROOT
ATOM      1  C   UNK A  1        5.208  11.006  -4.099  0.00  0.00    +0.114 C 
ATOM      2  C   UNK A  1        4.910  10.116  -5.062  0.00  0.00    +0.003 C 
ENDROOT
BRANCH   1   4
ATOM      3  C   UNK A  0        3.519  10.688  -2.304  0.00  0.00    +0.221 C 
ATOM      4  N   UNK A  1        4.764  11.069  -2.783  0.00  0.00    -0.280 N 
ATOM      5  H   UNK A  1        5.283  11.700  -2.193  0.00  0.00    +0.155 HD
ATOM      6  O   UNK A  0        2.623  10.228  -2.958  0.00  0.00    -0.275 OA
BRANCH   3   9
ATOM      7  C   UNK A  0        0.889   9.839  -0.734  0.00  0.00    +0.011 C 
ATOM      8  C   UNK A  0        1.966  10.697  -0.110  0.00  0.00    -0.023 C 
ATOM      9  C   UNK A  0        3.258  11.050  -0.868  0.00  0.00    +0.082 C 
ATOM     10  C   UNK A  0        2.178  12.092  -0.644  0.00  0.00    +0.020 C 
ATOM     11  C   UNK A  0        2.047  10.523   1.389  0.00  0.00    +0.011 C 
ENDBRANCH   3   9
ENDBRANCH   1   4
BRANCH   1  12
ATOM     12  C   UNK A  1        6.246  12.041  -4.450  0.00  0.00    +0.351 C 
ATOM     13  O   UNK A  1        6.868  12.696  -3.633  0.00  0.00    -0.244 OA
BRANCH  12  14
ATOM     14  O   UNK A  1        6.418  12.223  -5.777  0.00  0.00    -0.476 OA
ATOM     15  H   UNK A  1        7.116  12.902  -5.868  0.00  0.00    +0.295 HD
ENDBRANCH  12  14
ENDBRANCH   1  12
BRANCH   2  16
ATOM     16  C   UNK A  1        4.070   8.876  -5.084  0.00  0.00    +0.029 C 
BRANCH  16  17
ATOM     17  C   UNK A  1        4.888   7.631  -4.745  0.00  0.00    +0.005 C 
BRANCH  17  18
ATOM     18  C   UNK A  1        4.047   6.343  -4.770  0.00  0.00    +0.011 C 
BRANCH  18  19
ATOM     19  C   UNK A  1        2.897   6.341  -3.751  0.00  0.00    +0.069 C 
BRANCH  19  20
ATOM     20  S   UNK A  1        1.974   4.748  -3.787  0.00  0.00    -0.159 S 
BRANCH  20  21
ATOM     21  C   UNK A  1        0.721   5.117  -2.497  0.00  0.00    +0.099 C 
BRANCH  21  22
ATOM     22  C   UNK A  1       -0.263   3.957  -2.206  0.00  0.00    +0.170 C 
BRANCH  22  23
ATOM     23  N   UNK A  1       -1.084   3.430  -3.326  0.00  0.00    -0.318 NA
ATOM     24  H   UNK A  1       -0.652   2.587  -3.709  0.00  0.00    +0.119 HD
ATOM     25  H   UNK A  1       -1.052   4.105  -4.097  0.00  0.00    +0.119 HD
ENDBRANCH  22  23
BRANCH  22  26
ATOM     26  C   UNK A  1       -1.244   4.404  -1.104  0.00  0.00    +0.323 C 
ATOM     27  O   UNK A  1       -1.283   5.509  -0.585  0.00  0.00    -0.249 OA
BRANCH  26  28
ATOM     28  O   UNK A  1       -2.086   3.396  -0.750  0.00  0.00    -0.479 OA
ATOM     29  H   UNK A  1       -1.998   2.673  -1.408  0.00  0.00    +0.295 HD
ENDBRANCH  26  28
ENDBRANCH  22  26
ENDBRANCH  21  22
ENDBRANCH  20  21
ENDBRANCH  19  20
ENDBRANCH  18  19
ENDBRANCH  17  18
ENDBRANCH  16  17
ENDBRANCH   2  16
TORSDOF 14
