REMARK  Name = *****
REMARK                            x       y       z     vdW  Elec       q    Type
REMARK                         _______ _______ _______ _____ _____    ______ ____
ROOT
ATOM      1  O   LIG    1        4.355   0.021  -0.055  0.00  0.00    -0.186 OA
ENDROOT
BRANCH   1   3
ATOM      2  O   LIG    1        1.081   0.021  -0.055  0.00  0.00    -0.227 OA
ATOM      3  P   LIG    1        2.625   0.021  -0.055  0.00  0.00    +0.481 P 
BRANCH   3   4
ATOM      4  O   LIG    1        2.706   0.867   1.345  0.00  0.00    -0.302 OA
ATOM      5  H   LIG    1        1.785   1.100   1.579  0.00  0.00    +0.222 HD
ENDBRANCH   3   4
BRANCH   3   6
ATOM      6  O   LIG    1        2.718   1.325  -1.041  0.00  0.00    -0.302 OA
ATOM      7  H   LIG    1        2.034   1.969  -0.794  0.00  0.00    +0.222 HD
ENDBRANCH   3   6
ENDBRANCH   1   3
BRANCH   1   8
ATOM      8  P   LIG    1        5.100  -1.329   0.324  0.00  0.00    +0.481 P 
ATOM      9  O   LIG    1        6.582  -1.356   0.207  0.00  0.00    -0.227 OA
BRANCH   8  10
ATOM     10  O   LIG    1        4.369  -2.465  -0.527  0.00  0.00    -0.302 OA
ATOM     11  H   LIG    1        4.860  -3.307  -0.458  0.00  0.00    +0.222 HD
ENDBRANCH   8  10
BRANCH   8  12
ATOM     12  O   LIG    1        4.584  -1.662   1.798  0.00  0.00    -0.302 OA
ATOM     13  H   LIG    1        5.069  -1.127   2.454  0.00  0.00    +0.222 HD
ENDBRANCH   8  12
ENDBRANCH   1   8
TORSDOF 6
