REMARK  Name = *****
REMARK                            x       y       z     vdW  Elec       q    Type
REMARK                         _______ _______ _______ _____ _____    ______ ____
ROOT
ATOM      1  O   LIG    1        4.225   1.364   1.656  0.00  0.00    -0.458 OA
ENDROOT
BRANCH   1   3
ATOM      2  C   LIG    1        3.225   0.177  -0.197  0.00  0.00    +0.032 C 
ATOM      3  C   LIG    1        4.329   0.139   0.885  0.00  0.00    +0.180 C 
ATOM      4  C   LIG    1        5.731   0.070   0.278  0.00  0.00    +0.048 C 
ATOM      5  C   LIG    1        5.954   0.918  -0.989  0.00  0.00    -0.011 C 
ATOM      6  C   LIG    1        7.242   1.745  -0.865  0.00  0.00    +0.007 C 
ATOM      7  C   LIG    1        4.802   1.827  -1.444  0.00  0.00    +0.004 C 
ATOM      8  C   LIG    1        3.381   1.477  -1.006  0.00  0.00    +0.007 C 
BRANCH   2  10
ATOM      9  C   LIG    1        2.951  -2.381  -0.297  0.00  0.00    +0.007 C 
ATOM     10  C   LIG    1        3.130  -1.089  -1.103  0.00  0.00    -0.011 C 
ATOM     11  C   LIG    1        1.955  -0.997  -2.095  0.00  0.00    +0.007 C 
ENDBRANCH   2  10
ENDBRANCH   1   3
BRANCH   1  12
ATOM     12  C   LIG    1        4.791   1.398   2.893  0.00  0.00    +0.341 C 
ATOM     13  O   LIG    1        5.311   0.474   3.486  0.00  0.00    -0.245 OA
BRANCH  12  14
ATOM     14  C   LIG    1        4.706   2.806   3.398  0.00  0.00    +0.080 A 
ATOM     15  C   LIG    1        4.737   3.080   4.782  0.00  0.00    +0.039 A 
ATOM     16  C   LIG    1        4.592   4.413   5.196  0.00  0.00    +0.023 A 
ATOM     17  C   LIG    1        4.531   5.460   4.272  0.00  0.00    +0.002 A 
ATOM     18  C   LIG    1        4.580   5.189   2.910  0.00  0.00    +0.001 A 
ATOM     19  C   LIG    1        4.661   3.871   2.474  0.00  0.00    +0.017 A 
BRANCH  15  20
ATOM     20  N   LIG    1        4.671   2.070   5.761  0.00  0.00    -0.357 N 
ATOM     21  H   LIG    1        5.054   1.180   5.431  0.00  0.00    +0.142 HD
ATOM     22  H   LIG    1        5.066   2.342   6.657  0.00  0.00    +0.142 HD
ENDBRANCH  15  20
ENDBRANCH  12  14
ENDBRANCH   1  12
TORSDOF 5
