REMARK  Name = *****
REMARK                            x       y       z     vdW  Elec       q    Type
REMARK                         _______ _______ _______ _____ _____    ______ ____
ROOT
ATOM      1  C   LIG    1        4.272   0.954   0.057  0.00  0.00    +0.162 A 
ATOM      2  C   LIG    1        4.711   0.228   1.190  0.00  0.00    +0.164 A 
ATOM      3  C   LIG    1        4.958   0.900   2.398  0.00  0.00    +0.075 A 
ATOM      4  C   LIG    1        4.686   2.262   2.509  0.00  0.00    +0.055 A 
ATOM      5  N   LIG    1        4.881   2.977   3.702  0.00  0.00    -0.345 N 
ATOM      6  H   LIG    1        5.581   2.617   4.341  0.00  0.00    +0.167 HD
ATOM      7  C   LIG    1        4.694   4.332   3.640  0.00  0.00    +0.199 A 
ATOM      8  N   LIG    1        4.043   4.985   2.728  0.00  0.00    -0.218 NA
ATOM      9  C   LIG    1        3.413   4.202   1.785  0.00  0.00    +0.164 A 
ATOM     10  N   LIG    1        2.247   4.648   1.398  0.00  0.00    -0.225 NA
ATOM     11  C   LIG    1        4.073   2.916   1.432  0.00  0.00    +0.046 A 
ATOM     12  C   LIG    1        3.988   2.316   0.181  0.00  0.00    +0.063 A 
ENDROOT
BRANCH  10  13
ATOM     13  C   LIG    1        1.293   4.010   0.588  0.00  0.00    +0.101 A 
ATOM     14  C   LIG    1        0.418   4.806  -0.173  0.00  0.00    +0.150 A 
ATOM     15  F   LIG    1        0.496   6.144  -0.104  0.00  0.00    -0.203 F 
ATOM     16  C   LIG    1       -0.564   4.255  -0.999  0.00  0.00    +0.055 A 
ATOM     17  C   LIG    1       -0.672   2.874  -1.102  0.00  0.00    +0.021 A 
ATOM     18 BR   LIG    1       -1.945   2.103  -2.264  0.00  0.00    -0.050 Br
ATOM     19  C   LIG    1        0.142   2.055  -0.330  0.00  0.00    +0.017 A 
ATOM     20  C   LIG    1        1.065   2.627   0.553  0.00  0.00    +0.032 A 
ENDBRANCH  10  13
BRANCH   1  22
ATOM     21  C   LIG    1        3.572   0.928  -2.236  0.00  0.00    +0.277 C 
ATOM     22  O   LIG    1        4.116   0.246  -1.109  0.00  0.00    -0.491 OA
ENDBRANCH   1  22
BRANCH   2  23
ATOM     23  O   LIG    1        4.781  -1.141   1.062  0.00  0.00    -0.488 OA
BRANCH  23  24
ATOM     24  C   LIG    1        5.697  -1.829   1.916  0.00  0.00    +0.232 C 
BRANCH  24  25
ATOM     25  C   LIG    1        5.624  -3.344   1.654  0.00  0.00    +0.029 C 
ATOM     26  C   LIG    1        6.577  -4.100   2.592  0.00  0.00    +0.022 C 
ATOM     27  C   LIG    1        6.644  -5.593   2.257  0.00  0.00    +0.084 C 
ATOM     28  N   LIG    1        6.961  -5.875   0.854  0.00  0.00    -0.305 NA
ATOM     29  C   LIG    1        8.360  -5.605   0.530  0.00  0.00    +0.105 C 
ATOM     30  C   LIG    1        6.033  -5.182  -0.048  0.00  0.00    +0.084 C 
ATOM     31  C   LIG    1        5.936  -3.674   0.189  0.00  0.00    +0.022 C 
ENDBRANCH  24  25
ENDBRANCH  23  24
ENDBRANCH   2  23
TORSDOF 5
