REMARK  Name = *****
REMARK                            x       y       z     vdW  Elec       q    Type
REMARK                         _______ _______ _______ _____ _____    ______ ____
ROOT
ATOM      1  C   LIG    1        1.437   1.547   0.442  0.00  0.00    +0.105 C 
ATOM      2  N   LIG    1        2.796   1.674  -0.032  0.00  0.00    -0.301 NA
ATOM      3  C   LIG    1        3.117   0.797  -1.161  0.00  0.00    +0.120 C 
ATOM      4  C   LIG    1        4.634   0.808  -1.301  0.00  0.00    -0.022 C 
ATOM      5  C   LIG    1        5.345  -0.464  -1.013  0.00  0.00    -0.017 A 
ATOM      6  C   LIG    1        6.521  -0.832  -1.687  0.00  0.00    -0.036 A 
ATOM      7  C   LIG    1        7.160   0.112  -2.678  0.00  0.00    +0.071 C 
ATOM      8  C   LIG    1        7.614   1.387  -1.999  0.00  0.00    -0.036 A 
ATOM      9  C   LIG    1        6.681   2.277  -1.423  0.00  0.00    -0.018 A 
ATOM     10  C   LIG    1        7.171   3.404  -0.742  0.00  0.00    +0.008 A 
ATOM     11  C   LIG    1        8.540   3.652  -0.628  0.00  0.00    +0.001 A 
ATOM     12  C   LIG    1        9.451   2.772  -1.195  0.00  0.00    +0.000 A 
ATOM     13  C   LIG    1        8.993   1.647  -1.878  0.00  0.00    +0.004 A 
ATOM     14  C   LIG    1        7.135  -2.062  -1.384  0.00  0.00    +0.004 A 
ATOM     15  C   LIG    1        6.595  -2.911  -0.417  0.00  0.00    +0.000 A 
ATOM     16  C   LIG    1        5.453  -2.534   0.276  0.00  0.00    +0.001 A 
ATOM     17  C   LIG    1        4.844  -1.317  -0.015  0.00  0.00    +0.008 A 
ATOM     18  C   LIG    1        5.215   2.018  -1.466  0.00  0.00    -0.034 C 
ATOM     19  C   LIG    1        4.247   3.198  -1.442  0.00  0.00    +0.051 C 
ATOM     20  C   LIG    1        3.284   3.047  -0.235  0.00  0.00    +0.089 C 
ENDROOT
TORSDOF 0
