REMARK  Name = *****
REMARK                            x       y       z     vdW  Elec       q    Type
REMARK                         _______ _______ _______ _____ _____    ______ ____
ROOT
ATOM      1  O   LIG    1        7.074   0.206  -2.066  0.00  0.00    -0.461 OA
ENDROOT
BRANCH   1   2
ATOM      2  C   LIG    1        7.933  -0.217  -0.985  0.00  0.00    +0.187 C 
ATOM      3  C   LIG    1        7.003  -0.619   0.176  0.00  0.00    +0.099 C 
ATOM      4  C   LIG    1        7.665  -1.534   1.213  0.00  0.00    +0.070 C 
ATOM      5  N   LIG    1        8.219  -2.789   0.515  0.00  0.00    +0.243 N 
ATOM      6  C   LIG    1        8.667  -3.849   1.543  0.00  0.00    +0.192 C 
ATOM      7  C   LIG    1        7.222  -3.516  -0.390  0.00  0.00    +0.192 C 
ATOM      8  C   LIG    1        9.422  -2.172  -0.219  0.00  0.00    +0.070 C 
ATOM      9  C   LIG    1       10.069  -1.287   0.860  0.00  0.00    +0.060 C 
ATOM     10  C   LIG    1        8.925  -0.871   1.790  0.00  0.00    +0.060 C 
ATOM     11  C   LIG    1        8.928  -1.319  -1.395  0.00  0.00    +0.099 C 
ENDBRANCH   1   2
BRANCH   1  12
ATOM     12  C   LIG    1        7.662   0.834  -3.121  0.00  0.00    +0.310 C 
ATOM     13  O   LIG    1        8.864   0.781  -3.373  0.00  0.00    -0.251 OA
BRANCH  12  14
ATOM     14  C   LIG    1        6.675   1.691  -3.888  0.00  0.00    +0.098 C 
BRANCH  14  15
ATOM     15  C   LIG    1        5.550   0.826  -4.504  0.00  0.00    +0.014 C 
BRANCH  15  17
ATOM     16  C   LIG    1        4.937  -1.109  -6.060  0.00  0.00    +0.004 C 
ATOM     17  C   LIG    1        6.061  -0.260  -5.471  0.00  0.00    -0.003 C 
ENDBRANCH  15  17
ENDBRANCH  14  15
BRANCH  14  18
ATOM     18  C   LIG    1        6.130   2.807  -2.953  0.00  0.00    +0.014 C 
BRANCH  18  19
ATOM     19  C   LIG    1        7.204   3.708  -2.310  0.00  0.00    -0.003 C 
ATOM     20  C   LIG    1        8.023   4.505  -3.312  0.00  0.00    +0.004 C 
ENDBRANCH  18  19
ENDBRANCH  14  18
ENDBRANCH  12  14
ENDBRANCH   1  12
TORSDOF 7
