REMARK  Name = *****
REMARK                            x       y       z     vdW  Elec       q    Type
REMARK                         _______ _______ _______ _____ _____    ______ ____
ROOT
ATOM      1  C   LIG    1        2.623   2.812   3.931  0.00  0.00    +0.134 A 
ATOM      2  C   LIG    1        2.571   2.569   5.306  0.00  0.00    +0.079 A 
ATOM      3  C   LIG    1        3.443   1.622   5.886  0.00  0.00    +0.030 A 
ATOM      4  C   LIG    1        4.296   0.826   5.070  0.00  0.00    +0.044 A 
ATOM      5  C   LIG    1        4.459   1.234   3.728  0.00  0.00    +0.078 A 
ATOM      6  N   LIG    1        5.349   0.690   2.891  0.00  0.00    -0.255 NA
ATOM      7  C   LIG    1        6.000  -0.405   3.295  0.00  0.00    +0.115 A 
ATOM      8  C   LIG    1        5.747  -1.025   4.492  0.00  0.00    +0.066 A 
ATOM      9  C   LIG    1        4.962  -0.381   5.447  0.00  0.00    +0.139 A 
ATOM     10  C   LIG    1        3.635   2.207   3.187  0.00  0.00    +0.074 A 
ENDROOT
BRANCH   2  11
ATOM     11  C   LIG    1        1.532   3.171   6.196  0.00  0.00    +0.245 C 
ATOM     12  O   LIG    1        1.734   3.384   7.366  0.00  0.00    -0.270 OA
ATOM     13  N   LIG    1        0.299   3.403   5.622  0.00  0.00    -0.325 N 
ATOM     14  H   LIG    1       -0.419   3.821   6.194  0.00  0.00    +0.145 HD
ATOM     15  H   LIG    1        0.180   3.376   4.634  0.00  0.00    +0.145 HD
ENDBRANCH   2  11
BRANCH   1  17
ATOM     16  C   LIG    1        1.299   3.371   2.038  0.00  0.00    +0.277 C 
ATOM     17  O   LIG    1        1.714   3.676   3.370  0.00  0.00    -0.494 OA
ENDBRANCH   1  17
BRANCH   9  18
ATOM     18  O   LIG    1        4.699  -0.931   6.699  0.00  0.00    -0.455 OA
BRANCH  18  19
ATOM     19  C   LIG    1        5.457  -1.962   7.236  0.00  0.00    +0.130 A 
ATOM     20  C   LIG    1        6.778  -2.270   6.901  0.00  0.00    +0.068 A 
ATOM     21  C   LIG    1        7.402  -3.420   7.389  0.00  0.00    +0.066 A 
ATOM     22 CL   LIG    1        8.934  -3.864   6.709  0.00  0.00    -0.082 Cl
ATOM     23  C   LIG    1        6.803  -4.179   8.395  0.00  0.00    +0.053 A 
ATOM     24  C   LIG    1        5.549  -3.777   8.858  0.00  0.00    +0.028 A 
ATOM     25  C   LIG    1        4.864  -2.707   8.257  0.00  0.00    +0.048 A 
BRANCH  23  26
ATOM     26  N   LIG    1        7.506  -5.285   8.910  0.00  0.00    -0.268 N 
ATOM     27  H   LIG    1        8.405  -5.462   8.479  0.00  0.00    +0.156 HD
ATOM     28  C   LIG    1        7.163  -6.078   9.963  0.00  0.00    +0.304 C 
ATOM     29  N   LIG    1        8.023  -7.102  10.241  0.00  0.00    -0.296 N 
ATOM     30  H   LIG    1        7.714  -7.660  11.029  0.00  0.00    +0.150 HD
ATOM     31  O   LIG    1        6.164  -5.960  10.675  0.00  0.00    -0.253 OA
BRANCH  29  32
ATOM     32  C   LIG    1        9.232  -7.450   9.576  0.00  0.00    +0.075 C 
ATOM     33  C   LIG    1       10.559  -7.196  10.231  0.00  0.00    +0.024 C 
ATOM     34  C   LIG    1       10.059  -8.603  10.069  0.00  0.00    +0.024 C 
ENDBRANCH  29  32
ENDBRANCH  23  26
ENDBRANCH  18  19
ENDBRANCH   9  18
TORSDOF 6
