REMARK  Name = *****
REMARK                            x       y       z     vdW  Elec       q    Type
REMARK                         _______ _______ _______ _____ _____    ______ ____
ROOT
ATOM      1  C   LIG    1        5.007   4.250   0.691  0.00  0.00    +0.162 A 
ATOM      2  C   LIG    1        4.548   3.862  -0.556  0.00  0.00    +0.167 A 
ATOM      3  O   LIG    1        3.465   4.348  -1.243  0.00  0.00    -0.481 OA
ATOM      4  C   LIG    1        3.341   3.539  -2.462  0.00  0.00    +0.217 C 
ATOM      5  C   LIG    1        4.499   2.522  -2.512  0.00  0.00    +0.048 C 
ATOM      6  C   LIG    1        4.113   1.038  -2.415  0.00  0.00    +0.043 C 
ATOM      7  C   LIG    1        5.449   0.237  -2.493  0.00  0.00    +0.069 C 
ATOM      8  N   LIG    1        6.234   0.455  -3.728  0.00  0.00    -0.301 NA
ATOM      9  C   LIG    1        6.330  -0.751  -4.546  0.00  0.00    +0.105 C 
ATOM     10  C   LIG    1        5.795   1.596  -4.528  0.00  0.00    +0.085 C 
ATOM     11  C   LIG    1        6.378   0.620  -1.264  0.00  0.00    +0.055 C 
ATOM     12  C   LIG    1        6.064   1.948  -0.604  0.00  0.00    -0.038 A 
ATOM     13  C   LIG    1        6.546   2.327   0.645  0.00  0.00    +0.008 A 
ATOM     14  C   LIG    1        2.975   0.744  -3.352  0.00  0.00    -0.023 C 
ATOM     15  C   LIG    1        1.946   1.610  -3.388  0.00  0.00    +0.004 C 
ATOM     16  C   LIG    1        5.482   2.825  -3.674  0.00  0.00    +0.031 C 
ATOM     17  C   LIG    1        1.946   2.869  -2.550  0.00  0.00    +0.178 C 
ATOM     18  C   LIG    1        5.134   2.791  -1.198  0.00  0.00    +0.012 A 
ATOM     19  C   LIG    1        6.032   3.480   1.273  0.00  0.00    +0.050 A 
ENDROOT
BRANCH   1  21
ATOM     20  C   LIG    1        3.624   6.171   0.878  0.00  0.00    +0.277 C 
ATOM     21  O   LIG    1        4.567   5.284   1.466  0.00  0.00    -0.491 OA
ENDBRANCH   1  21
BRANCH  17  22
ATOM     22  O   LIG    1        1.028   3.782  -3.154  0.00  0.00    -0.384 OA
ATOM     23  H   LIG    1        0.136   3.500  -2.888  0.00  0.00    +0.210 HD
ENDBRANCH  17  22
TORSDOF 2
