REMARK  Name = *****
REMARK                            x       y       z     vdW  Elec       q    Type
REMARK                         _______ _______ _______ _____ _____    ______ ____
ROOT
ATOM      1  C   LIG    1        6.437  -0.311  -0.659  0.00  0.00    +0.005 C 
ATOM      2  C   LIG    1        6.735   1.001  -0.817  0.00  0.00    -0.001 C 
ENDROOT
BRANCH   1   7
ATOM      3  C   LIG    1        1.555  -1.802   2.091  0.00  0.00    +0.044 C 
ATOM      4  C   LIG    1        2.829  -1.480   1.367  0.00  0.00    -0.050 A 
ATOM      5  C   LIG    1        2.848  -1.332  -0.024  0.00  0.00    +0.004 A 
ATOM      6  C   LIG    1        4.024  -0.956  -0.684  0.00  0.00    +0.009 A 
ATOM      7  C   LIG    1        5.197  -0.712   0.042  0.00  0.00    -0.016 A 
ATOM      8  C   LIG    1        5.184  -0.881   1.430  0.00  0.00    +0.009 A 
ATOM      9  C   LIG    1        4.011  -1.267   2.089  0.00  0.00    +0.004 A 
ENDBRANCH   1   7
BRANCH   1  10
ATOM     10  C   LIG    1        7.405  -1.295  -1.223  0.00  0.00    +0.071 A 
ATOM     11  N   LIG    1        8.046  -0.936  -2.365  0.00  0.00    -0.255 NA
ATOM     12  C   LIG    1        8.899  -1.824  -2.914  0.00  0.00    +0.111 A 
ATOM     13  C   LIG    1        9.150  -3.074  -2.379  0.00  0.00    +0.020 A 
ATOM     14  C   LIG    1        8.500  -3.429  -1.206  0.00  0.00    +0.004 A 
ATOM     15  C   LIG    1        7.614  -2.531  -0.616  0.00  0.00    +0.028 A 
ENDBRANCH   1  10
BRANCH   2  16
ATOM     16  C   LIG    1        5.943   2.208  -0.406  0.00  0.00    +0.112 C 
BRANCH  16  17
ATOM     17  N   LIG    1        6.131   3.321  -1.345  0.00  0.00    -0.299 NA
ATOM     18  C   LIG    1        5.625   3.051  -2.692  0.00  0.00    +0.085 C 
ATOM     19  C   LIG    1        5.658   4.433  -3.323  0.00  0.00    +0.017 C 
ATOM     20  C   LIG    1        5.324   5.380  -2.178  0.00  0.00    +0.017 C 
ATOM     21  C   LIG    1        5.436   4.535  -0.912  0.00  0.00    +0.085 C 
ENDBRANCH  16  17
ENDBRANCH   2  16
TORSDOF 4
