REMARK  Name = *****
REMARK                            x       y       z     vdW  Elec       q    Type
REMARK                         _______ _______ _______ _____ _____    ______ ____
ROOT
ATOM      1  C   LIG    1        7.021  -4.252  -2.827  0.00  0.00    +0.078 C 
ENDROOT
BRANCH   1   2
ATOM      2  N   LIG    1        8.270  -4.484  -2.096  0.00  0.00    -0.312 N 
ATOM      3  H   LIG    1        8.498  -5.453  -1.906  0.00  0.00    +0.149 HD
ATOM      4  C   LIG    1        9.220  -3.519  -1.848  0.00  0.00    +0.214 C 
ATOM      5  O   LIG    1        9.102  -2.331  -2.128  0.00  0.00    -0.276 OA
BRANCH   4   6
ATOM      6  C   LIG    1       10.442  -4.016  -1.133  0.00  0.00    +0.107 C 
BRANCH   6   7
ATOM      7  C   LIG    1       11.677  -3.531  -1.875  0.00  0.00    +0.129 C 
BRANCH   7   8
ATOM      8  C   LIG    1       12.908  -4.018  -1.171  0.00  0.00    +0.305 C 
ATOM      9  O   LIG    1       12.963  -4.687  -0.164  0.00  0.00    -0.251 OA
BRANCH   8  10
ATOM     10  O   LIG    1       14.032  -3.627  -1.812  0.00  0.00    -0.481 OA
ATOM     11  H   LIG    1       14.744  -3.990  -1.261  0.00  0.00    +0.295 HD
ENDBRANCH   8  10
ENDBRANCH   7   8
ENDBRANCH   6   7
ENDBRANCH   4   6
ENDBRANCH   1   2
BRANCH   1  12
ATOM     12  C   LIG    1        6.351  -2.895  -2.433  0.00  0.00    +0.037 C 
BRANCH  12  13
ATOM     13  C   LIG    1        6.114  -2.636  -0.918  0.00  0.00    +0.096 C 
ATOM     14  C   LIG    1        5.630  -1.188  -0.713  0.00  0.00    +0.019 C 
BRANCH  13  15
ATOM     15  C   LIG    1        5.079  -3.572  -0.332  0.00  0.00    +0.310 C 
ATOM     16  O   LIG    1        4.496  -4.444  -0.959  0.00  0.00    -0.251 OA
BRANCH  15  17
ATOM     17  O   LIG    1        4.891  -3.312   0.997  0.00  0.00    -0.465 OA
BRANCH  17  19
ATOM     18  C   LIG    1        2.485  -3.718   1.175  0.00  0.00    +0.048 C 
ATOM     19  C   LIG    1        3.881  -4.065   1.669  0.00  0.00    +0.229 C 
ENDBRANCH  17  19
ENDBRANCH  15  17
ENDBRANCH  13  15
ENDBRANCH  12  13
ENDBRANCH   1  12
BRANCH   1  20
ATOM     20  C   LIG    1        7.212  -4.348  -4.383  0.00  0.00    +0.057 C 
BRANCH  20  21
ATOM     21  C   LIG    1        7.688  -5.680  -4.967  0.00  0.00    -0.046 A 
ATOM     22  C   LIG    1        9.046  -5.990  -5.116  0.00  0.00    +0.004 A 
ATOM     23  C   LIG    1        9.463  -7.242  -5.630  0.00  0.00    +0.009 A 
ATOM     24  C   LIG    1        8.549  -8.248  -5.998  0.00  0.00    -0.018 A 
ATOM     25  C   LIG    1        7.191  -7.893  -5.902  0.00  0.00    +0.009 A 
ATOM     26  C   LIG    1        6.770  -6.633  -5.425  0.00  0.00    +0.004 A 
BRANCH  24  27
ATOM     27  C   LIG    1        8.979  -9.613  -6.440  0.00  0.00    -0.018 A 
ATOM     28  C   LIG    1        8.203 -10.396  -7.321  0.00  0.00    +0.008 A 
ATOM     29  C   LIG    1        8.583 -11.694  -7.701  0.00  0.00    +0.001 A 
ATOM     30  C   LIG    1        9.762 -12.248  -7.219  0.00  0.00    +0.000 A 
ATOM     31  C   LIG    1       10.558 -11.503  -6.356  0.00  0.00    +0.001 A 
ATOM     32  C   LIG    1       10.169 -10.210  -5.971  0.00  0.00    +0.008 A 
ENDBRANCH  24  27
ENDBRANCH  20  21
ENDBRANCH   1  20
TORSDOF 13
