REMARK  Name = *****
REMARK                            x       y       z     vdW  Elec       q    Type
REMARK                         _______ _______ _______ _____ _____    ______ ____
ROOT
ATOM      1  C   LIG    1        5.132  -4.371   4.269  0.00  0.00    +0.198 A 
ATOM      2  N   LIG    1        6.288  -4.420   4.999  0.00  0.00    -0.331 N 
ATOM      3  H   LIG    1        7.212  -4.254   4.604  0.00  0.00    +0.168 HD
ATOM      4  C   LIG    1        5.962  -4.552   6.319  0.00  0.00    +0.070 A 
ATOM      5  C   LIG    1        4.579  -4.716   6.297  0.00  0.00    +0.090 A 
ATOM      6  C   LIG    1        3.891  -4.909   7.497  0.00  0.00    +0.033 A 
ATOM      7  C   LIG    1        4.608  -4.846   8.696  0.00  0.00    +0.048 A 
ATOM      8  C   LIG    1        5.997  -4.655   8.708  0.00  0.00    +0.129 A 
ATOM      9  C   LIG    1        6.699  -4.516   7.511  0.00  0.00    +0.073 A 
ATOM     10  N   LIG    1        4.077  -4.622   5.021  0.00  0.00    -0.220 NA
ENDROOT
BRANCH   1  11
ATOM     11  S   LIG    1        5.100  -3.944   2.583  0.00  0.00    +0.096 S 
ATOM     12  O   LIG    1        6.536  -3.611   2.272  0.00  0.00    -0.249 OA
BRANCH  11  13
ATOM     13  C   LIG    1        4.105  -2.429   2.787  0.00  0.00    +0.171 C 
BRANCH  13  16
ATOM     14  C   LIG    1        2.922  -0.123  -0.005  0.00  0.00    +0.165 A 
ATOM     15  C   LIG    1        2.880  -1.177   0.930  0.00  0.00    +0.184 A 
ATOM     16  C   LIG    1        4.082  -1.538   1.564  0.00  0.00    +0.099 A 
ATOM     17  N   LIG    1        5.282  -1.007   1.206  0.00  0.00    -0.255 NA
ATOM     18  C   LIG    1        5.305  -0.115   0.203  0.00  0.00    +0.115 A 
ATOM     19  C   LIG    1        4.167   0.374  -0.404  0.00  0.00    +0.069 A 
BRANCH  14  21
ATOM     20  C   LIG    1        1.815   1.647  -1.168  0.00  0.00    +0.277 C 
ATOM     21  O   LIG    1        1.735   0.412  -0.449  0.00  0.00    -0.491 OA
ENDBRANCH  14  21
BRANCH  15  22
ATOM     22  O   LIG    1        1.754  -1.823   1.364  0.00  0.00    -0.490 OA
ATOM     23  C   LIG    1        0.761  -2.174   0.403  0.00  0.00    +0.277 C 
ENDBRANCH  15  22
ENDBRANCH  13  16
ENDBRANCH  11  13
ENDBRANCH   1  11
BRANCH   8  24
ATOM     24  O   LIG    1        6.731  -4.566   9.866  0.00  0.00    -0.434 OA
BRANCH  24  25
ATOM     25  C   LIG    1        6.120  -5.172  11.001  0.00  0.00    +0.541 C 
ATOM     26  F   LIG    1        5.214  -4.315  11.537  0.00  0.00    -0.166 F 
ATOM     27  F   LIG    1        7.078  -5.363  11.941  0.00  0.00    -0.166 F 
ENDBRANCH  24  25
ENDBRANCH   8  24
TORSDOF 7
