REMARK  Name = *****
REMARK                            x       y       z     vdW  Elec       q    Type
REMARK                         _______ _______ _______ _____ _____    ______ ____
ROOT
ATOM      1  C   LIG    1        2.296  -5.424  -0.570  0.00  0.00    +0.095 C 
ATOM      2  C   LIG    1        1.788  -3.925  -0.590  0.00  0.00    +0.039 C 
ATOM      3  C   LIG    1        1.630  -3.424  -2.044  0.00  0.00    +0.008 C 
ATOM      4  C   LIG    1        0.819  -4.358  -2.932  0.00  0.00    +0.000 C 
ATOM      5  C   LIG    1        1.413  -5.751  -2.961  0.00  0.00    +0.003 C 
ATOM      6  C   LIG    1        1.499  -6.320  -1.550  0.00  0.00    +0.040 C 
ENDROOT
BRANCH   1   9
ATOM      7  C   LIG    1        1.093  -6.539   2.924  0.00  0.00    +0.120 A 
ATOM      8  C   LIG    1        1.167  -5.895   1.685  0.00  0.00    +0.052 A 
ATOM      9  C   LIG    1        2.233  -6.121   0.799  0.00  0.00    -0.012 A 
ATOM     10  C   LIG    1        3.199  -7.074   1.177  0.00  0.00    +0.007 A 
ATOM     11  C   LIG    1        3.122  -7.739   2.402  0.00  0.00    +0.004 A 
ATOM     12  C   LIG    1        2.074  -7.466   3.279  0.00  0.00    +0.045 A 
BRANCH   7  14
ATOM     13  C   LIG    1       -0.863  -5.353   3.549  0.00  0.00    +0.277 C 
ATOM     14  O   LIG    1        0.108  -6.346   3.856  0.00  0.00    -0.495 OA
ENDBRANCH   7  14
ENDBRANCH   1   9
BRANCH   1  15
ATOM     15  O   LIG    1        3.671  -5.430  -0.986  0.00  0.00    -0.384 OA
ATOM     16  H   LIG    1        3.727  -5.076  -1.885  0.00  0.00    +0.211 HD
ENDBRANCH   1  15
BRANCH   2  17
ATOM     17  C   LIG    1        2.751  -3.011   0.239  0.00  0.00    +0.090 C 
BRANCH  17  18
ATOM     18  N   LIG    1        2.306  -1.651   0.637  0.00  0.00    -0.308 NA
ATOM     19  C   LIG    1        2.006  -0.754  -0.476  0.00  0.00    +0.104 C 
ATOM     20  C   LIG    1        3.356  -1.032   1.463  0.00  0.00    +0.104 C 
ENDBRANCH  17  18
ENDBRANCH   2  17
TORSDOF 5
