REMARK  Name = *****
REMARK                            x       y       z     vdW  Elec       q    Type
REMARK                         _______ _______ _______ _____ _____    ______ ____
ROOT
ATOM      1  C   LIG    1       -6.759   0.338   3.559  0.00  0.00    +0.112 C 
ATOM      2  C   LIG    1       -7.402   0.914   4.847  0.00  0.00    +0.101 C 
ATOM      3  N   LIG    1       -8.776   0.454   5.149  0.00  0.00    -0.297 NA
ATOM      4  C   LIG    1       -8.773  -0.933   5.631  0.00  0.00    +0.105 C 
ATOM      5  C   LIG    1       -9.643   0.653   3.947  0.00  0.00    +0.091 C 
ATOM      6  C   LIG    1       -9.084  -0.081   2.697  0.00  0.00    -0.025 C 
ATOM      7  C   LIG    1      -10.027  -0.622   1.693  0.00  0.00    -0.011 C 
ATOM      8  C   LIG    1      -11.382  -0.513   2.034  0.00  0.00    +0.010 C 
ATOM      9  C   LIG    1      -12.383  -0.978   1.193  0.00  0.00    +0.047 C 
ATOM     10  N   LIG    1      -13.578  -0.718   1.827  0.00  0.00    -0.360 NA
ATOM     11  H   LIG    1      -14.488  -0.951   1.455  0.00  0.00    +0.165 HD
ATOM     12  C   LIG    1      -13.351  -0.114   3.041  0.00  0.00    +0.087 C 
ATOM     13  C   LIG    1      -12.097  -1.584  -0.032  0.00  0.00    +0.026 C 
ATOM     14  C   LIG    1      -10.746  -1.695  -0.381  0.00  0.00    +0.003 C 
ATOM     15  C   LIG    1      -11.989   0.015   3.193  0.00  0.00    -0.020 C 
ATOM     16  C   LIG    1       -9.729  -1.222   0.459  0.00  0.00    +0.009 C 
ATOM     17  C   LIG    1      -11.169   0.537   4.314  0.00  0.00    +0.060 C 
ATOM     18  C   LIG    1       -7.748  -0.208   2.550  0.00  0.00    -0.007 C 
ENDROOT
BRANCH   1  21
ATOM     19  N   LIG    1       -6.530   2.492   2.386  0.00  0.00    -0.310 N 
ATOM     20  H   LIG    1       -7.540   2.459   2.326  0.00  0.00    +0.149 HD
ATOM     21  C   LIG    1       -5.859   1.389   2.884  0.00  0.00    +0.221 C 
ATOM     22  O   LIG    1       -4.649   1.256   2.810  0.00  0.00    -0.275 OA
BRANCH  19  23
ATOM     23  CA  LIG    1       -5.861   3.586   1.675  0.00  0.00    +0.098 C 
BRANCH  23  25
ATOM     24  C   LIG    1       -5.114   4.315  -0.668  0.00  0.00    +0.005 C 
ATOM     25  C   LIG    1       -5.804   3.249   0.172  0.00  0.00    +0.021 C 
ENDBRANCH  23  25
BRANCH  23  26
ATOM     26  C   LIG    1       -6.609   4.902   1.971  0.00  0.00    +0.177 C 
BRANCH  26  27
ATOM     27  O   LIG    1       -7.981   4.831   1.577  0.00  0.00    -0.393 OA
ATOM     28  H   LIG    1       -8.035   4.384   0.716  0.00  0.00    +0.209 HD
ENDBRANCH  26  27
ENDBRANCH  23  26
ENDBRANCH  19  23
ENDBRANCH   1  21
TORSDOF 5
