REMARK  Name = *****
REMARK                            x       y       z     vdW  Elec       q    Type
REMARK                         _______ _______ _______ _____ _____    ______ ____
ROOT
ATOM      1  C   LIG    1        4.999  -3.629  -3.924  0.00  0.00    +0.077 C 
ENDROOT
BRANCH   1   6
ATOM      2  C   LIG    1        6.574  -0.898  -1.693  0.00  0.00    -0.039 A 
ATOM      3  C   LIG    1        5.439  -0.113  -1.432  0.00  0.00    +0.037 A 
ATOM      4  C   LIG    1        4.178  -0.426  -1.988  0.00  0.00    +0.128 A 
ATOM      5  C   LIG    1        4.022  -1.570  -2.781  0.00  0.00    +0.147 A 
ATOM      6  C   LIG    1        5.124  -2.389  -3.052  0.00  0.00    +0.001 A 
ATOM      7  C   LIG    1        6.380  -2.034  -2.512  0.00  0.00    +0.011 A 
BRANCH   4   8
ATOM      8  N   LIG    1        3.091   0.460  -1.766  0.00  0.00    -0.146 N 
ATOM      9  N   LIG    1        1.999   0.425  -2.566  0.00  0.00    -0.147 NA
ATOM     10  C   LIG    1        1.266   1.473  -2.120  0.00  0.00    +0.113 A 
ATOM     11  C   LIG    1        1.941   2.022  -0.946  0.00  0.00    +0.113 A 
ATOM     12  C   LIG    1        1.371   3.070  -0.188  0.00  0.00    +0.032 A 
ATOM     13  C   LIG    1        0.146   3.545  -0.683  0.00  0.00    +0.002 A 
ATOM     14  C   LIG    1       -0.474   3.043  -1.859  0.00  0.00    +0.002 A 
ATOM     15  C   LIG    1        0.069   1.984  -2.619  0.00  0.00    +0.032 A 
ATOM     16  N   LIG    1        3.103   1.391  -0.778  0.00  0.00    -0.147 NA
ENDBRANCH   4   8
BRANCH   2  17
ATOM     17  C   LIG    1        8.006  -0.535  -1.167  0.00  0.00    -0.009 C 
ATOM     18  C   LIG    1        8.545  -1.737  -0.368  0.00  0.00    +0.016 C 
ATOM     19  C   LIG    1        8.905  -0.358  -2.414  0.00  0.00    +0.016 C 
BRANCH  17  20
ATOM     20  C   LIG    1        7.997   0.780  -0.276  0.00  0.00    +0.017 C 
BRANCH  20  22
ATOM     21  C   LIG    1        8.771   2.642   1.253  0.00  0.00    +0.011 C 
ATOM     22  C   LIG    1        9.221   1.336   0.540  0.00  0.00    -0.037 C 
ATOM     23  C   LIG    1        9.677   0.389   1.661  0.00  0.00    +0.011 C 
ATOM     24  C   LIG    1       10.421   1.713  -0.336  0.00  0.00    +0.011 C 
ENDBRANCH  20  22
ENDBRANCH  17  20
ENDBRANCH   2  17
BRANCH   5  25
ATOM     25  O   LIG    1        2.814  -1.961  -3.299  0.00  0.00    -0.504 OA
ATOM     26  H   LIG    1        2.158  -1.249  -3.150  0.00  0.00    +0.292 HD
ENDBRANCH   5  25
ENDBRANCH   1   6
BRANCH   1  27
ATOM     27  C   LIG    1        4.680  -4.943  -3.227  0.00  0.00    +0.001 A 
ATOM     28  C   LIG    1        4.057  -5.984  -3.929  0.00  0.00    +0.147 A 
ATOM     29  C   LIG    1        3.807  -7.220  -3.303  0.00  0.00    +0.128 A 
ATOM     30  C   LIG    1        4.242  -7.433  -1.986  0.00  0.00    +0.037 A 
ATOM     31  C   LIG    1        4.950  -6.440  -1.282  0.00  0.00    -0.039 A 
ATOM     32  C   LIG    1        5.112  -5.195  -1.913  0.00  0.00    +0.011 A 
BRANCH  29  33
ATOM     33  N   LIG    1        3.143  -8.276  -3.985  0.00  0.00    -0.146 N 
ATOM     34  N   LIG    1        2.639  -8.097  -5.240  0.00  0.00    -0.147 NA
ATOM     35  C   LIG    1        2.089  -9.276  -5.509  0.00  0.00    +0.113 A 
ATOM     36  C   LIG    1        2.314 -10.179  -4.383  0.00  0.00    +0.113 A 
ATOM     37  C   LIG    1        1.870 -11.501  -4.374  0.00  0.00    +0.032 A 
ATOM     38  C   LIG    1        1.175 -11.890  -5.534  0.00  0.00    +0.002 A 
ATOM     39  C   LIG    1        0.942 -11.015  -6.631  0.00  0.00    +0.002 A 
ATOM     40  C   LIG    1        1.389  -9.687  -6.663  0.00  0.00    +0.032 A 
ATOM     41  N   LIG    1        2.989  -9.498  -3.433  0.00  0.00    -0.147 NA
ENDBRANCH  29  33
BRANCH  31  42
ATOM     42  C   LIG    1        5.544  -6.730   0.107  0.00  0.00    -0.009 C 
ATOM     43  C   LIG    1        4.347  -6.967   1.077  0.00  0.00    +0.016 C 
ATOM     44  C   LIG    1        6.298  -5.525   0.720  0.00  0.00    +0.016 C 
BRANCH  42  45
ATOM     45  C   LIG    1        6.456  -8.024   0.118  0.00  0.00    +0.017 C 
BRANCH  45  46
ATOM     46  C   LIG    1        7.764  -8.178  -0.748  0.00  0.00    -0.037 C 
ATOM     47  C   LIG    1        8.306  -9.617  -0.537  0.00  0.00    +0.011 C 
ATOM     48  C   LIG    1        8.900  -7.231  -0.330  0.00  0.00    +0.011 C 
ATOM     49  C   LIG    1        7.523  -8.020  -2.257  0.00  0.00    +0.011 C 
ENDBRANCH  45  46
ENDBRANCH  42  45
ENDBRANCH  31  42
BRANCH  28  50
ATOM     50  O   LIG    1        3.759  -5.744  -5.247  0.00  0.00    -0.504 OA
ATOM     51  H   LIG    1        3.293  -6.529  -5.613  0.00  0.00    +0.292 HD
ENDBRANCH  28  50
ENDBRANCH   1  27
TORSDOF 12
