REMARK  Name = *****
REMARK                            x       y       z     vdW  Elec       q    Type
REMARK                         _______ _______ _______ _____ _____    ______ ____
ROOT
ATOM      1  C   LIG    1       -0.533  -3.077   0.483  0.00  0.00    +0.052 C 
ATOM      2  C   LIG    1        0.805  -2.480   0.178  0.00  0.00    +0.040 C 
ATOM      3  C   LIG    1        1.075  -1.185  -0.063  0.00  0.00    +0.142 C 
ATOM      4  O   LIG    1        2.345  -0.677  -0.260  0.00  0.00    -0.454 OA
ATOM      5  C   LIG    1        3.439  -1.485  -0.070  0.00  0.00    +0.153 A 
ATOM      6  C   LIG    1        3.300  -2.861   0.072  0.00  0.00    +0.065 A 
ATOM      7  C   LIG    1        4.424  -3.695   0.167  0.00  0.00    +0.015 A 
ATOM      8  C   LIG    1        5.703  -3.145   0.157  0.00  0.00    +0.002 A 
ATOM      9  C   LIG    1        5.853  -1.765   0.065  0.00  0.00    +0.019 A 
ATOM     10  C   LIG    1        4.729  -0.928  -0.054  0.00  0.00    +0.102 A 
ATOM     11  C   LIG    1        1.947  -3.432   0.148  0.00  0.00    +0.196 C 
ATOM     12  O   LIG    1        1.782  -4.645   0.202  0.00  0.00    -0.287 OA
ENDROOT
BRANCH   3  13
ATOM     13  C   LIG    1        0.026  -0.155  -0.199  0.00  0.00    +0.018 A 
ATOM     14  C   LIG    1       -0.444   0.558   0.911  0.00  0.00    +0.011 A 
ATOM     15  C   LIG    1       -1.439   1.531   0.760  0.00  0.00    +0.001 A 
ATOM     16  C   LIG    1       -1.969   1.804  -0.500  0.00  0.00    +0.000 A 
ATOM     17  C   LIG    1       -1.506   1.104  -1.612  0.00  0.00    +0.001 A 
ATOM     18  C   LIG    1       -0.513   0.130  -1.463  0.00  0.00    +0.011 A 
ENDBRANCH   3  13
BRANCH  10  19
ATOM     19  C   LIG    1        5.005   0.521  -0.145  0.00  0.00    +0.343 C 
ATOM     20  O   LIG    1        6.136   0.978  -0.291  0.00  0.00    -0.245 OA
BRANCH  19  21
ATOM     21  O   LIG    1        3.879   1.243   0.014  0.00  0.00    -0.460 OA
BRANCH  21  22
ATOM     22  C   LIG    1        4.054   2.663  -0.024  0.00  0.00    +0.247 C 
BRANCH  22  23
ATOM     23  C   LIG    1        4.556   3.144   1.345  0.00  0.00    +0.125 C 
BRANCH  23  24
ATOM     24  N   LIG    1        4.750   4.596   1.445  0.00  0.00    -0.299 NA
ATOM     25  C   LIG    1        5.096   4.998   2.816  0.00  0.00    +0.084 C 
ATOM     26  C   LIG    1        6.511   4.609   3.254  0.00  0.00    +0.015 C 
ATOM     27  C   LIG    1        7.576   5.033   2.248  0.00  0.00    +0.002 C 
ATOM     28  C   LIG    1        7.186   4.743   0.802  0.00  0.00    +0.015 C 
ATOM     29  C   LIG    1        5.739   5.130   0.499  0.00  0.00    +0.084 C 
ENDBRANCH  23  24
ENDBRANCH  22  23
ENDBRANCH  21  22
ENDBRANCH  19  21
ENDBRANCH  10  19
TORSDOF 6
