REMARK  Name = *****
REMARK                            x       y       z     vdW  Elec       q    Type
REMARK                         _______ _______ _______ _____ _____    ______ ____
ROOT
ATOM      1  C   LIG    1        6.997   0.068  -0.415  0.00  0.00    +0.083 C 
ENDROOT
BRANCH   1   6
ATOM      2 CL   LIG    1        1.320  -1.072   1.390  0.00  0.00    -0.084 Cl
ATOM      3  C   LIG    1        2.933  -0.740   0.893  0.00  0.00    +0.041 A 
ATOM      4  C   LIG    1        3.986  -1.464   1.440  0.00  0.00    +0.020 A 
ATOM      5  C   LIG    1        5.296  -1.206   1.029  0.00  0.00    +0.006 A 
ATOM      6  C   LIG    1        5.568  -0.213   0.071  0.00  0.00    -0.037 A 
ATOM      7  C   LIG    1        4.489   0.513  -0.463  0.00  0.00    +0.006 A 
ATOM      8  C   LIG    1        3.178   0.248  -0.057  0.00  0.00    +0.020 A 
ENDBRANCH   1   6
BRANCH   1   9
ATOM      9  C   LIG    1        7.888   0.527   0.752  0.00  0.00    -0.019 A 
ATOM     10  C   LIG    1        8.020   1.887   1.095  0.00  0.00    +0.045 A 
ATOM     11 CL   LIG    1        7.202   3.146   0.234  0.00  0.00    -0.083 Cl
ATOM     12  C   LIG    1        8.831   2.284   2.166  0.00  0.00    +0.020 A 
ATOM     13  C   LIG    1        9.512   1.335   2.924  0.00  0.00    +0.001 A 
ATOM     14  C   LIG    1        9.383  -0.013   2.616  0.00  0.00    +0.000 A 
ATOM     15  C   LIG    1        8.581  -0.414   1.544  0.00  0.00    +0.006 A 
ENDBRANCH   1   9
BRANCH   1  16
ATOM     16  C   LIG    1        7.558  -1.119  -1.252  0.00  0.00    +0.183 C 
ATOM     17 CL   LIG    1        9.230  -0.810  -1.830  0.00  0.00    -0.104 Cl
ATOM     18 CL   LIG    1        6.554  -1.446  -2.709  0.00  0.00    -0.104 Cl
ENDBRANCH   1  16
TORSDOF 3
