REMARK  Name = *****
REMARK                            x       y       z     vdW  Elec       q    Type
REMARK                         _______ _______ _______ _____ _____    ______ ____
ROOT
ATOM      1  O   LIG    1        1.132   0.566  -0.519  0.00  0.00    -0.276 OA
ATOM      2  C   LIG    1        2.145   0.118   0.004  0.00  0.00    +0.216 C 
ATOM      3  N   LIG    1        2.811   0.781   1.029  0.00  0.00    -0.298 N 
ATOM      4  C   LIG    1        4.206   0.516   1.426  0.00  0.00    +0.127 C 
ATOM      5  C   LIG    1        5.124   1.665   0.961  0.00  0.00    +0.127 C 
ATOM      6  N   LIG    1        4.598   2.958   1.424  0.00  0.00    -0.298 N 
ATOM      7  C   LIG    1        5.315   3.690   2.360  0.00  0.00    +0.216 C 
ATOM      8  O   LIG    1        6.457   3.381   2.697  0.00  0.00    -0.276 OA
ATOM      9  C   LIG    1        3.204   3.218   1.019  0.00  0.00    +0.127 C 
ATOM     10  C   LIG    1        2.298   2.075   1.504  0.00  0.00    +0.127 C 
ENDROOT
BRANCH   7  11
ATOM     11  C   LIG    1        4.607   4.880   2.978  0.00  0.00    +0.107 C 
BRANCH  11  12
ATOM     12  C   LIG    1        5.495   5.608   3.966  0.00  0.00    +0.089 C 
ATOM     13 BR   LIG    1        4.509   7.108   4.730  0.00  0.00    -0.091 Br
ENDBRANCH  11  12
ENDBRANCH   7  11
BRANCH   2  14
ATOM     14  C   LIG    1        2.724  -1.227  -0.403  0.00  0.00    +0.107 C 
BRANCH  14  15
ATOM     15  C   LIG    1        1.949  -1.863  -1.538  0.00  0.00    +0.089 C 
ATOM     16 BR   LIG    1        2.786  -3.565  -2.006  0.00  0.00    -0.091 Br
ENDBRANCH  14  15
ENDBRANCH   2  14
TORSDOF 4
