REMARK  Name = *****
REMARK                            x       y       z     vdW  Elec       q    Type
REMARK                         _______ _______ _______ _____ _____    ______ ____
ROOT
ATOM      1  C   LIG    1        2.956  -0.263   1.314  0.00  0.00    -0.032 C 
ATOM      2  C   LIG    1        3.449   0.746   2.267  0.00  0.00    -0.018 A 
ATOM      3  C   LIG    1        3.685   0.143   3.508  0.00  0.00    -0.036 A 
ATOM      4  C   LIG    1        4.127   0.859   4.610  0.00  0.00    +0.004 A 
ATOM      5  C   LIG    1        4.333   2.228   4.460  0.00  0.00    +0.000 A 
ATOM      6  C   LIG    1        4.103   2.848   3.225  0.00  0.00    +0.001 A 
ATOM      7  C   LIG    1        3.371  -1.310   3.433  0.00  0.00    +0.067 C 
ATOM      8  C   LIG    1        3.654   2.111   2.123  0.00  0.00    +0.008 A 
ATOM      9  C   LIG    1        2.896  -1.442   1.996  0.00  0.00    -0.060 C 
ENDROOT
BRANCH   1  11
ATOM     10  C   LIG    1        3.807   0.530  -0.927  0.00  0.00    +0.019 C 
ATOM     11  C   LIG    1        2.583   0.045  -0.127  0.00  0.00    +0.065 C 
BRANCH  11  12
ATOM     12  C   LIG    1        1.375   0.977  -0.304  0.00  0.00    +0.048 A 
ATOM     13  N   LIG    1        1.484   2.021  -1.171  0.00  0.00    -0.259 NA
ATOM     14  C   LIG    1        0.390   2.786  -1.392  0.00  0.00    +0.111 A 
ATOM     15  C   LIG    1       -0.833   2.572  -0.785  0.00  0.00    +0.020 A 
ATOM     16  C   LIG    1       -0.942   1.503   0.093  0.00  0.00    +0.003 A 
ATOM     17  C   LIG    1        0.167   0.692   0.334  0.00  0.00    +0.024 A 
ENDBRANCH  11  12
ENDBRANCH   1  11
BRANCH   9  18
ATOM     18  C   LIG    1        2.351  -2.779   1.572  0.00  0.00    +0.047 C 
BRANCH  18  19
ATOM     19  C   LIG    1        3.379  -3.935   1.631  0.00  0.00    +0.088 C 
BRANCH  19  20
ATOM     20  N   LIG    1        2.821  -5.263   1.288  0.00  0.00    -0.308 NA
ATOM     21  C   LIG    1        1.716  -5.651   2.168  0.00  0.00    +0.104 C 
ATOM     22  C   LIG    1        3.869  -6.289   1.347  0.00  0.00    +0.104 C 
ENDBRANCH  19  20
ENDBRANCH  18  19
ENDBRANCH   9  18
TORSDOF 5
