REMARK  Name = *****
REMARK                            x       y       z     vdW  Elec       q    Type
REMARK                         _______ _______ _______ _____ _____    ______ ____
ROOT
ATOM      1  O   LIG    1        0.894  -0.787  -0.741  0.00  0.00    -0.489 OA
ENDROOT
BRANCH   1   2
ATOM      2  C   LIG    1        0.518  -1.730  -1.666  0.00  0.00    +0.121 A 
ATOM      3  C   LIG    1       -0.694  -2.376  -1.411  0.00  0.00    +0.047 A 
ATOM      4  C   LIG    1       -1.200  -3.334  -2.299  0.00  0.00    +0.023 A 
ATOM      5  C   LIG    1       -0.485  -3.647  -3.456  0.00  0.00    +0.041 A 
ATOM      6 CL   LIG    1       -1.109  -4.803  -4.565  0.00  0.00    -0.084 Cl
ATOM      7  C   LIG    1        0.728  -3.022  -3.714  0.00  0.00    +0.023 A 
ATOM      8  C   LIG    1        1.235  -2.068  -2.821  0.00  0.00    +0.047 A 
ENDBRANCH   1   2
BRANCH   1   9
ATOM      9  C   LIG    1        2.160  -0.141  -0.963  0.00  0.00    +0.262 C 
BRANCH   9  10
ATOM     10  C   LIG    1        2.404   0.904   0.140  0.00  0.00    +0.177 C 
BRANCH  10  11
ATOM     11  O   LIG    1        2.468   0.257   1.421  0.00  0.00    -0.386 OA
ATOM     12  H   LIG    1        1.564  -0.058   1.609  0.00  0.00    +0.210 HD
ENDBRANCH  10  11
BRANCH  10  13
ATOM     13  C   LIG    1        3.732   1.644  -0.052  0.00  0.00    +0.190 C 
BRANCH  13  14
ATOM     14  O   LIG    1        4.818   0.716  -0.052  0.00  0.00    -0.392 OA
ATOM     15  H   LIG    1        4.661   0.142   0.724  0.00  0.00    +0.209 HD
ENDBRANCH  13  14
ENDBRANCH  10  13
ENDBRANCH   9  10
ENDBRANCH   1   9
TORSDOF 6
