REMARK  Name = *****
REMARK                            x       y       z     vdW  Elec       q    Type
REMARK                         _______ _______ _______ _____ _____    ______ ____
ROOT
ATOM      1  CA  ALA A  1        7.534   0.601  -4.451  0.00  0.00    +0.138 C 
ATOM      2  CB  ALA A  1        8.192  -0.774  -4.194  0.00  0.00    +0.034 C 
ENDROOT
BRANCH   1   3
ATOM      3  C   ALA A  1        8.706   1.616  -4.609  0.00  0.00    +0.233 C 
ATOM      4  N   UNK A  2        9.271   2.150  -3.451  0.00  0.00    -0.282 N 
ATOM      5  C   UNK A  2        8.803   1.875  -2.080  0.00  0.00    +0.189 C 
ATOM      6  C   UNK A  2        9.990   1.512  -1.190  0.00  0.00    +0.069 C 
ATOM      7  C   UNK A  2       10.937   2.678  -1.140  0.00  0.00    -0.040 A 
ATOM      8  C   UNK A  2       11.088   3.471  -2.293  0.00  0.00    -0.027 A 
ATOM      9  C   UNK A  2       11.923   4.594  -2.228  0.00  0.00    +0.005 A 
ATOM     10  C   UNK A  2       12.568   4.934  -1.035  0.00  0.00    +0.000 A 
ATOM     11  C   UNK A  2       12.402   4.146   0.102  0.00  0.00    +0.000 A 
ATOM     12  C   UNK A  2       11.597   3.011   0.049  0.00  0.00    +0.004 A 
ATOM     13  C   UNK A  2       10.354   3.141  -3.585  0.00  0.00    +0.144 C 
ATOM     14  O   ALA A  1        9.188   1.844  -5.724  0.00  0.00    -0.274 OA
BRANCH   5  15
ATOM     15  C   UNK A  2        7.973   3.013  -1.480  0.00  0.00    +0.326 C 
ATOM     16  O   UNK A  2        8.114   3.532  -0.376  0.00  0.00    -0.249 OA
BRANCH  15  17
ATOM     17  O   UNK A  2        6.897   3.344  -2.212  0.00  0.00    -0.479 OA
ATOM     18  H   UNK A  2        6.438   4.011  -1.658  0.00  0.00    +0.295 HD
ENDBRANCH  15  17
ENDBRANCH   5  15
ENDBRANCH   1   3
BRANCH   1  19
ATOM     19  N   ALA A  1        6.635   0.509  -5.630  0.00  0.00    -0.294 NA
ATOM     20  H   ALA A  1        7.181   0.211  -6.441  0.00  0.00    +0.123 HD
BRANCH  19  21
ATOM     21  C   UNK A  0        5.841   1.720  -6.001  0.00  0.00    +0.164 C 
BRANCH  21  22
ATOM     22  C   UNK A  0        6.709   2.797  -6.681  0.00  0.00    +0.324 C 
ATOM     23  O   UNK A  0        7.208   3.751  -6.126  0.00  0.00    -0.249 OA
BRANCH  22  24
ATOM     24  O   UNK A  0        6.716   2.562  -8.032  0.00  0.00    -0.464 OA
BRANCH  24  26
ATOM     25  C   UNK A  0        5.855   4.548  -9.059  0.00  0.00    +0.048 C 
ATOM     26  C   UNK A  0        7.085   3.681  -8.843  0.00  0.00    +0.229 C 
ENDBRANCH  24  26
ENDBRANCH  22  24
ENDBRANCH  21  22
BRANCH  21  27
ATOM     27  C   UNK A  0        4.931   2.333  -4.902  0.00  0.00    +0.035 C 
BRANCH  27  28
ATOM     28  C   UNK A  0        4.117   3.586  -5.317  0.00  0.00    +0.037 C 
BRANCH  28  29
ATOM     29  C   UNK A  0        3.250   4.117  -4.184  0.00  0.00    -0.047 A 
ATOM     30  C   UNK A  0        3.803   4.995  -3.238  0.00  0.00    +0.003 A 
ATOM     31  C   UNK A  0        3.049   5.455  -2.154  0.00  0.00    +0.000 A 
ATOM     32  C   UNK A  0        1.729   5.039  -1.997  0.00  0.00    +0.000 A 
ATOM     33  C   UNK A  0        1.158   4.186  -2.939  0.00  0.00    +0.000 A 
ATOM     34  C   UNK A  0        1.910   3.733  -4.032  0.00  0.00    +0.003 A 
ENDBRANCH  28  29
ENDBRANCH  27  28
ENDBRANCH  21  27
ENDBRANCH  19  21
ENDBRANCH   1  19
TORSDOF 11
