REMARK  Name = *****
REMARK                            x       y       z     vdW  Elec       q    Type
REMARK                         _______ _______ _______ _____ _____    ______ ____
ROOT
ATOM      1  C   LIG    1        5.285   0.294   2.526  0.00  0.00    +0.110 A 
ATOM      2  N   LIG    1        5.349  -1.095   2.385  0.00  0.00    -0.324 N 
ATOM      3  C   LIG    1        6.183  -1.548   3.420  0.00  0.00    +0.062 A 
ATOM      4  C   LIG    1        6.431  -0.423   4.171  0.00  0.00    +0.138 A 
ATOM      5  N   LIG    1        5.804   0.666   3.675  0.00  0.00    -0.240 NA
ENDROOT
BRANCH   3   6
ATOM      6  C   LIG    1        6.628  -2.892   3.539  0.00  0.00    +0.038 C 
ATOM      7  C   LIG    1        7.836  -3.285   4.031  0.00  0.00    +0.043 C 
BRANCH   7   8
ATOM      8  C   LIG    1        8.094  -4.759   4.037  0.00  0.00    +0.333 C 
ATOM      9  O   LIG    1        8.842  -5.307   4.819  0.00  0.00    -0.245 OA
BRANCH   8  10
ATOM     10  O   LIG    1        7.476  -5.472   3.069  0.00  0.00    -0.477 OA
ATOM     11  H   LIG    1        6.918  -5.007   2.427  0.00  0.00    +0.295 HD
ENDBRANCH   8  10
ENDBRANCH   7   8
BRANCH   7  12
ATOM     12  C   LIG    1        8.912  -2.403   4.713  0.00  0.00    +0.084 C 
BRANCH  12  13
ATOM     13  C   LIG    1       10.399  -2.765   4.856  0.00  0.00    -0.006 A 
ATOM     14  S   LIG    1       11.386  -1.765   5.881  0.00  0.00    -0.101 S 
ATOM     15  C   LIG    1       12.625  -2.943   5.963  0.00  0.00    +0.045 A 
ATOM     16  C   LIG    1       12.405  -3.962   5.069  0.00  0.00    +0.008 A 
ATOM     17  C   LIG    1       11.170  -3.804   4.364  0.00  0.00    +0.011 A 
ENDBRANCH  12  13
ENDBRANCH   7  12
ENDBRANCH   3   6
BRANCH   1  18
ATOM     18  C   LIG    1        4.863   1.336   1.536  0.00  0.00    +0.074 C 
BRANCH  18  19
ATOM     19  C   LIG    1        3.432   1.816   1.727  0.00  0.00    +0.007 C 
BRANCH  19  21
ATOM     20  C   LIG    1        1.012   1.297   1.346  0.00  0.00    +0.004 C 
ATOM     21  C   LIG    1        2.427   0.769   1.286  0.00  0.00    -0.003 C 
ENDBRANCH  19  21
ENDBRANCH  18  19
ENDBRANCH   1  18
BRANCH   2  22
ATOM     22  C   LIG    1        4.847  -1.893   1.252  0.00  0.00    +0.158 C 
BRANCH  22  23
ATOM     23  C   LIG    1        3.485  -2.556   1.433  0.00  0.00    -0.028 A 
ATOM     24  C   LIG    1        2.884  -3.179   0.321  0.00  0.00    +0.006 A 
ATOM     25  C   LIG    1        1.547  -3.612   0.367  0.00  0.00    +0.015 A 
ATOM     26  C   LIG    1        0.789  -3.430   1.529  0.00  0.00    +0.059 A 
ATOM     27  C   LIG    1        1.402  -2.881   2.659  0.00  0.00    +0.015 A 
ATOM     28  C   LIG    1        2.751  -2.501   2.626  0.00  0.00    +0.006 A 
BRANCH  26  29
ATOM     29  C   LIG    1       -0.670  -3.748   1.473  0.00  0.00    +0.337 C 
ATOM     30  O   LIG    1       -1.306  -3.730   0.463  0.00  0.00    -0.245 OA
BRANCH  29  31
ATOM     31  O   LIG    1       -1.193  -4.081   2.687  0.00  0.00    -0.477 OA
ATOM     32  H   LIG    1       -0.561  -4.193   3.412  0.00  0.00    +0.295 HD
ENDBRANCH  29  31
ENDBRANCH  26  29
ENDBRANCH  22  23
ENDBRANCH   2  22
TORSDOF 12
