REMARK  Name = *****
REMARK                            x       y       z     vdW  Elec       q    Type
REMARK                         _______ _______ _______ _____ _____    ______ ____
ROOT
ATOM      1  O   LIG    1        0.981  -0.065  -0.041  0.00  0.00    -0.267 OA
ATOM      2  C   LIG    1        2.203   0.010  -0.043  0.00  0.00    +0.262 C 
ATOM      3  C   LIG    1        2.947   1.230   0.049  0.00  0.00    +0.102 A 
ATOM      4  C   LIG    1        4.318   1.168   0.042  0.00  0.00    +0.163 A 
ATOM      5  N   LIG    1        4.749   2.457   0.146  0.00  0.00    -0.260 N 
ATOM      6  H   LIG    1        5.706   2.788   0.178  0.00  0.00    +0.191 HD
ATOM      7  N   LIG    1        3.736   3.352   0.215  0.00  0.00    -0.180 NA
ATOM      8  N   LIG    1        5.102   0.067  -0.044  0.00  0.00    -0.218 NA
ATOM      9  C   LIG    1        4.407  -1.028  -0.128  0.00  0.00    +0.201 C 
ATOM     10  C   LIG    1        2.635   2.589   0.156  0.00  0.00    +0.149 A 
ATOM     11  N   LIG    1        3.025  -1.101  -0.132  0.00  0.00    -0.313 N 
ATOM     12  H   LIG    1        2.556  -1.991  -0.198  0.00  0.00    +0.170 HD
ENDROOT
TORSDOF 0
