REMARK  Name = *****
REMARK                            x       y       z     vdW  Elec       q    Type
REMARK                         _______ _______ _______ _____ _____    ______ ____
ROOT
ATOM      1  C   LIG    1        1.028   0.098  -0.071  0.00  0.00    +0.044 C 
ATOM      2  C   LIG    1        2.528   0.089  -0.065  0.00  0.00    -0.050 C 
ATOM      3  C   LIG    1        3.205  -1.138   0.017  0.00  0.00    +0.013 C 
ATOM      4  C   LIG    1        4.613  -1.170   0.023  0.00  0.00    +0.004 C 
ATOM      5  C   LIG    1        5.572  -2.220   0.095  0.00  0.00    -0.017 C 
ATOM      6  C   LIG    1        5.420  -3.696   0.212  0.00  0.00    +0.037 C 
ATOM      7  C   LIG    1        6.750  -4.410  -0.127  0.00  0.00    +0.007 C 
ATOM      8  C   LIG    1        7.973  -3.733   0.540  0.00  0.00    +0.025 C 
ATOM      9  C   LIG    1        8.143  -2.259   0.086  0.00  0.00    +0.101 C 
ATOM     10  N   LIG    1        9.050  -1.517   0.970  0.00  0.00    -0.306 NA
ATOM     11  H   LIG    1        8.850  -1.801   1.930  0.00  0.00    +0.123 HD
ATOM     12  C   LIG    1        8.911  -0.042   0.897  0.00  0.00    +0.103 C 
ATOM     13  C   LIG    1        7.829   0.564  -0.022  0.00  0.00    +0.137 C 
ATOM     14  N   LIG    1        6.651  -0.278  -0.016  0.00  0.00    -0.341 NA
ATOM     15  C   LIG    1        6.806  -1.625   0.064  0.00  0.00    +0.040 C 
ATOM     16  C   LIG    1        5.319   0.044  -0.050  0.00  0.00    +0.050 C 
ATOM     17  C   LIG    1        4.660   1.279  -0.135  0.00  0.00    +0.026 C 
ATOM     18  C   LIG    1        3.259   1.278  -0.141  0.00  0.00    +0.005 C 
ENDROOT
TORSDOF 0
