REMARK  Name = *****
REMARK                            x       y       z     vdW  Elec       q    Type
REMARK                         _______ _______ _______ _____ _____    ______ ____
ROOT
ATOM      1  C   LIG    1       -2.530  -2.865   2.406  0.00  0.00    +0.034 A 
ATOM      2  C   LIG    1       -2.548  -1.553   1.925  0.00  0.00    +0.031 A 
ATOM      3  C   LIG    1       -3.731  -0.802   1.918  0.00  0.00    -0.023 A 
ATOM      4  C   LIG    1       -4.924  -1.375   2.360  0.00  0.00    +0.008 A 
ATOM      5  C   LIG    1       -4.923  -2.677   2.839  0.00  0.00    +0.002 A 
ATOM      6  C   LIG    1       -3.732  -3.419   2.861  0.00  0.00    +0.023 A 
ENDROOT
BRANCH   1   8
ATOM      7  C   LIG    1       -0.973  -4.813   2.743  0.00  0.00    +0.218 C 
ATOM      8  N   LIG    1       -1.274  -3.537   2.373  0.00  0.00    -0.285 N 
ATOM      9  H   LIG    1       -0.497  -2.955   2.041  0.00  0.00    +0.155 HD
ATOM     10  O   LIG    1       -1.775  -5.587   3.292  0.00  0.00    -0.275 OA
BRANCH   7  11
ATOM     11  C   LIG    1        0.479  -5.309   2.483  0.00  0.00    +0.114 C 
BRANCH  11  12
ATOM     12  C   LIG    1        1.023  -5.313   1.012  0.00  0.00    +0.075 C 
BRANCH  12  14
ATOM     13  C   LIG    1        3.604  -5.297   1.675  0.00  0.00    +0.005 C 
ATOM     14  C   LIG    1        2.462  -5.938   0.884  0.00  0.00    +0.015 C 
ENDBRANCH  12  14
BRANCH  12  15
ATOM     15  C   LIG    1        1.113  -3.863   0.496  0.00  0.00    +0.311 C 
ATOM     16  O   LIG    1        0.933  -2.887   1.191  0.00  0.00    -0.250 OA
BRANCH  15  17
ATOM     17  O   LIG    1        1.436  -3.726  -0.809  0.00  0.00    -0.480 OA
ATOM     18  H   LIG    1        1.604  -4.540  -1.311  0.00  0.00    +0.295 HD
ENDBRANCH  15  17
ENDBRANCH  12  15
BRANCH  12  19
ATOM     19  C   LIG    1        0.027  -6.123   0.127  0.00  0.00    +0.015 C 
ATOM     20  C   LIG    1       -0.113  -7.610   0.456  0.00  0.00    +0.005 C 
ENDBRANCH  12  19
ENDBRANCH  11  12
ENDBRANCH   7  11
ENDBRANCH   1   8
BRANCH   3  21
ATOM     21  C   LIG    1       -3.789   0.567   1.426  0.00  0.00    +0.010 C 
ATOM     22  C   LIG    1       -2.786   1.452   1.512  0.00  0.00    +0.035 C 
BRANCH  22  23
ATOM     23  C   LIG    1       -2.949   2.788   1.060  0.00  0.00    +0.101 A 
ATOM     24  S   LIG    1       -4.495   3.581   1.138  0.00  0.00    -0.076 S 
ATOM     25  C   LIG    1       -3.827   4.963   0.409  0.00  0.00    +0.070 A 
ATOM     26  C   LIG    1       -2.484   4.768   0.191  0.00  0.00    +0.052 A 
ATOM     27  N   LIG    1       -1.980   3.549   0.594  0.00  0.00    -0.244 NA
BRANCH  26  28
ATOM     28  C   LIG    1       -1.612   5.828  -0.452  0.00  0.00    +0.038 C 
ATOM     29  C   LIG    1       -0.534   6.404   0.511  0.00  0.00    +0.010 C 
ATOM     30  C   LIG    1        0.439   6.403  -0.680  0.00  0.00    +0.001 C 
ATOM     31  C   LIG    1       -0.421   5.280  -1.285  0.00  0.00    +0.010 C 
ENDBRANCH  26  28
ENDBRANCH  22  23
ENDBRANCH   3  21
TORSDOF 10
