REMARK  Name = *****
REMARK                            x       y       z     vdW  Elec       q    Type
REMARK                         _______ _______ _______ _____ _____    ______ ____
ROOT
ATOM      1  C   LIG    1        4.346  -9.603  -1.578  0.00  0.00    +0.158 C 
ENDROOT
BRANCH   1   2
ATOM      2  C   LIG    1        3.709  -8.368  -0.970  0.00  0.00    -0.016 A 
ATOM      3  C   LIG    1        3.258  -8.358   0.364  0.00  0.00    +0.033 A 
ATOM      4  C   LIG    1        2.632  -7.226   0.925  0.00  0.00    +0.075 A 
ATOM      5  C   LIG    1        2.483  -6.083   0.124  0.00  0.00    +0.138 A 
ATOM      6  C   LIG    1        2.940  -6.074  -1.194  0.00  0.00    +0.048 A 
ATOM      7  C   LIG    1        3.550  -7.205  -1.732  0.00  0.00    +0.010 A 
BRANCH   4   8
ATOM      8  N   LIG    1        2.207  -7.344   2.269  0.00  0.00    -0.285 N 
ATOM      9  H   LIG    1        2.365  -8.224   2.741  0.00  0.00    +0.155 HD
ATOM     10  C   LIG    1        1.576  -6.434   3.061  0.00  0.00    +0.330 C 
ATOM     11  O   LIG    1        1.276  -6.685   4.218  0.00  0.00    -0.279 OA
ENDBRANCH   4   8
BRANCH   5  12
ATOM     12  O   LIG    1        1.898  -4.945   0.601  0.00  0.00    -0.505 OA
ATOM     13  H   LIG    1        1.910  -4.264  -0.091  0.00  0.00    +0.292 HD
ENDBRANCH   5  12
ENDBRANCH   1   2
BRANCH   1  14
ATOM     14  O   LIG    1        4.097  -9.623  -2.992  0.00  0.00    -0.386 OA
ATOM     15  H   LIG    1        4.830 -10.149  -3.371  0.00  0.00    +0.210 HD
ENDBRANCH   1  14
BRANCH   1  16
ATOM     16  C   LIG    1        5.875  -9.672  -1.346  0.00  0.00    +0.117 C 
BRANCH  16  17
ATOM     17  N   LIG    1        6.451 -10.827  -2.072  0.00  0.00    -0.310 NA
ATOM     18  H   LIG    1        5.972 -11.679  -1.768  0.00  0.00    +0.122 HD
BRANCH  17  19
ATOM     19  C   LIG    1        7.901 -11.007  -1.826  0.00  0.00    +0.055 C 
ATOM     20  C   LIG    1        8.341 -12.251  -2.614  0.00  0.00    +0.024 C 
BRANCH  19  21
ATOM     21  C   LIG    1        8.732  -9.765  -2.227  0.00  0.00    +0.053 C 
BRANCH  21  25
ATOM     22  C   LIG    1       12.956 -10.206  -1.462  0.00  0.00    +0.120 A 
ATOM     23  C   LIG    1       12.112  -9.695  -0.477  0.00  0.00    +0.046 A 
ATOM     24  C   LIG    1       10.746  -9.554  -0.726  0.00  0.00    +0.007 A 
ATOM     25  C   LIG    1       10.211  -9.908  -1.970  0.00  0.00    -0.046 A 
ATOM     26  C   LIG    1       11.065 -10.403  -2.962  0.00  0.00    +0.007 A 
ATOM     27  C   LIG    1       12.428 -10.551  -2.707  0.00  0.00    +0.046 A 
BRANCH  22  29
ATOM     28  C   LIG    1       14.784 -10.572  -0.011  0.00  0.00    +0.277 C 
ATOM     29  O   LIG    1       14.309 -10.366  -1.336  0.00  0.00    -0.495 OA
ENDBRANCH  22  29
ENDBRANCH  21  25
ENDBRANCH  19  21
ENDBRANCH  17  19
ENDBRANCH  16  17
ENDBRANCH   1  16
TORSDOF 10
