REMARK  Name = *****
REMARK                            x       y       z     vdW  Elec       q    Type
REMARK                         _______ _______ _______ _____ _____    ______ ____
ROOT
ATOM      1  C   LIG    1        1.629   1.792  -1.581  0.00  0.00    +0.067 C 
ATOM      2  C   LIG    1        2.746   1.349  -0.696  0.00  0.00    +0.059 C 
ATOM      3  N   LIG    1        3.807   2.241  -0.494  0.00  0.00    -0.282 N 
ATOM      4  C   LIG    1        3.528   3.495   0.226  0.00  0.00    +0.171 C 
ATOM      5  N   LIG    1        4.859   1.476   0.074  0.00  0.00    -0.216 N 
ATOM      6  C   LIG    1        4.353   0.206   0.393  0.00  0.00    +0.293 C 
ATOM      7  O   LIG    1        4.918  -0.769   0.878  0.00  0.00    -0.264 OA
ATOM      8  C   LIG    1        2.935   0.134  -0.147  0.00  0.00    +0.119 C 
ENDROOT
BRANCH   5   9
ATOM      9  C   LIG    1        6.196   1.714  -0.370  0.00  0.00    +0.067 A 
ATOM     10  C   LIG    1        6.544   2.902  -1.035  0.00  0.00    +0.028 A 
ATOM     11  C   LIG    1        7.842   3.124  -1.505  0.00  0.00    +0.002 A 
ATOM     12  C   LIG    1        8.817   2.148  -1.340  0.00  0.00    +0.000 A 
ATOM     13  C   LIG    1        8.496   0.961  -0.693  0.00  0.00    +0.002 A 
ATOM     14  C   LIG    1        7.203   0.754  -0.203  0.00  0.00    +0.028 A 
ENDBRANCH   5   9
BRANCH   8  15
ATOM     15  N   LIG    1        2.194  -1.045  -0.075  0.00  0.00    -0.306 N 
ATOM     16  C   LIG    1        0.855  -1.046   0.513  0.00  0.00    +0.131 C 
BRANCH  15  17
ATOM     17  C   LIG    1        2.406  -2.142  -1.076  0.00  0.00    +0.305 C 
BRANCH  17  18
ATOM     18  S   LIG    1        4.056  -2.511  -1.795  0.00  0.00    +0.096 S 
ATOM     19  O   LIG    1        4.687  -1.281  -2.247  0.00  0.00    -0.146 OA
ATOM     20  O   LIG    1        3.946  -3.650  -2.667  0.00  0.00    -0.146 OA
BRANCH  18  21
ATOM     21  O   LIG    1        4.844  -2.982  -0.463  0.00  0.00    -0.253 OA
ATOM     22  H   LIG    1        5.234  -2.185  -0.019  0.00  0.00    +0.244 HD
ENDBRANCH  18  21
ENDBRANCH  17  18
ENDBRANCH  15  17
ENDBRANCH   8  15
TORSDOF 5
