REMARK  Name = *****
REMARK                            x       y       z     vdW  Elec       q    Type
REMARK                         _______ _______ _______ _____ _____    ______ ____
ROOT
ATOM      1  C   LIG    1        5.378   1.544   0.121  0.00  0.00    +0.016 C 
ATOM      2  C   LIG    1        5.734   2.836   0.104  0.00  0.00    +0.079 C 
ENDROOT
BRANCH   2   3
ATOM      3  C   LIG    1        7.106   3.363   0.186  0.00  0.00    +0.208 C 
ATOM      4  N   LIG    1        7.794   3.719  -0.941  0.00  0.00    -0.194 NA
ATOM      5  C   LIG    1        7.176   3.418  -2.256  0.00  0.00    +0.439 C 
ATOM      6  C   LIG    1        9.020   4.340  -0.849  0.00  0.00    +0.215 C 
ATOM      7  C   LIG    1        9.537   4.658   0.430  0.00  0.00    +0.048 C 
ATOM      8  C   LIG    1       10.754   5.361   0.558  0.00  0.00    +0.037 C 
ATOM      9  C   LIG    1       11.533   5.754  -0.541  0.00  0.00    +0.030 C 
ATOM     10  C   LIG    1       11.015   5.412  -1.795  0.00  0.00    +0.029 C 
ATOM     11  C   LIG    1        8.836   4.286   1.572  0.00  0.00    +0.021 C 
ATOM     12  C   LIG    1        9.803   4.711  -1.950  0.00  0.00    +0.081 C 
ATOM     13  C   LIG    1        7.625   3.627   1.451  0.00  0.00    +0.079 C 
BRANCH   9  14
ATOM     14  N   LIG    1       12.713   6.484  -0.389  0.00  0.00    -0.336 NA
ATOM     15  C   LIG    1       13.515   6.814  -1.573  0.00  0.00    +0.129 C 
ATOM     16  C   LIG    1       13.507   6.308   0.833  0.00  0.00    +0.129 C 
ENDBRANCH   9  14
ENDBRANCH   2   3
BRANCH   1  22
ATOM     17  C   LIG    1        0.383   1.402   0.717  0.00  0.00    +0.064 C 
ATOM     18  C   LIG    1        1.762   1.042   0.273  0.00  0.00    +0.021 C 
ATOM     19  N   LIG    1        2.154  -0.174  -0.302  0.00  0.00    -0.317 NA
ATOM     20  C   LIG    1        3.561  -0.124  -0.446  0.00  0.00    +0.028 C 
ATOM     21  C   LIG    1        4.361  -1.202  -1.110  0.00  0.00    +0.064 C 
ATOM     22  C   LIG    1        4.013   1.093   0.050  0.00  0.00    -0.004 C 
ATOM     23  C   LIG    1        2.886   1.817   0.475  0.00  0.00    +0.031 C 
BRANCH  19  24
ATOM     24  C   LIG    1        1.281  -1.268  -0.661  0.00  0.00    +0.046 C 
ATOM     25  C   LIG    1        1.714  -2.599  -0.579  0.00  0.00    +0.026 C 
ATOM     26  C   LIG    1        0.876  -3.659  -0.947  0.00  0.00    +0.002 C 
ATOM     27  C   LIG    1       -0.426  -3.411  -1.361  0.00  0.00    +0.000 C 
ATOM     28  C   LIG    1       -0.885  -2.100  -1.424  0.00  0.00    +0.002 C 
ATOM     29  C   LIG    1       -0.034  -1.036  -1.095  0.00  0.00    +0.026 C 
ENDBRANCH  19  24
ENDBRANCH   1  22
TORSDOF 4
