REMARK  Name = *****
REMARK                            x       y       z     vdW  Elec       q    Type
REMARK                         _______ _______ _______ _____ _____    ______ ____
ROOT
ATOM      1  C   LIG    1        8.063  -9.296  -5.658  0.00  0.00    +0.062 C 
ATOM      2  C   LIG    1        6.921  -9.962  -4.902  0.00  0.00    +0.021 C 
ATOM      3  C   LIG    1        6.131  -9.230  -4.050  0.00  0.00    +0.015 C 
ENDROOT
BRANCH   2   4
ATOM      4  N   LIG    1        6.775 -11.348  -5.137  0.00  0.00    -0.273 N 
ATOM      5  C   LIG    1        5.593 -11.893  -5.617  0.00  0.00    +0.333 C 
ATOM      6  O   LIG    1        5.391 -13.099  -5.824  0.00  0.00    -0.279 OA
BRANCH   4   7
ATOM      7  C   LIG    1        7.914 -12.268  -4.902  0.00  0.00    +0.153 C 
BRANCH   7   8
ATOM      8  C   LIG    1        8.815 -12.594  -6.065  0.00  0.00    +0.028 A 
ATOM      9  C   LIG    1       10.197 -12.487  -6.010  0.00  0.00    +0.124 A 
ATOM     10  N   LIG    1       11.018 -12.890  -6.990  0.00  0.00    -0.218 NA
ATOM     11  C   LIG    1       10.456 -13.419  -8.088  0.00  0.00    +0.128 A 
ATOM     12  C   LIG    1       11.368 -13.866  -9.187  0.00  0.00    +0.088 C 
ATOM     13  N   LIG    1        9.135 -13.579  -8.254  0.00  0.00    -0.240 NA
ATOM     14  C   LIG    1        8.349 -13.172  -7.233  0.00  0.00    +0.121 A 
BRANCH   9  15
ATOM     15  N   LIG    1       10.868 -11.943  -4.916  0.00  0.00    -0.343 N 
ATOM     16  H   LIG    1       10.605 -10.976  -4.764  0.00  0.00    +0.144 HD
ATOM     17  H   LIG    1       11.858 -11.996  -5.159  0.00  0.00    +0.144 HD
ENDBRANCH   9  15
ENDBRANCH   7   8
ENDBRANCH   4   7
ENDBRANCH   2   4
BRANCH   3  18
ATOM     18  S   LIG    1        6.330  -7.450  -4.039  0.00  0.00    -0.060 S 
BRANCH  18  19
ATOM     19  S   LIG    1        4.418  -6.760  -4.445  0.00  0.00    -0.086 S 
BRANCH  19  20
ATOM     20  C   LIG    1        4.184  -7.104  -6.225  0.00  0.00    +0.113 C 
BRANCH  20  21
ATOM     21  C   LIG    1        2.899  -6.487  -6.809  0.00  0.00    +0.129 C 
ATOM     22  O   LIG    1        2.645  -7.123  -8.084  0.00  0.00    -0.376 OA
ATOM     23  C   LIG    1        2.394  -6.119  -9.071  0.00  0.00    +0.160 C 
ATOM     24  C   LIG    1        3.057  -4.860  -8.573  0.00  0.00    +0.030 C 
ATOM     25  C   LIG    1        2.956  -4.983  -7.071  0.00  0.00    +0.035 C 
ENDBRANCH  20  21
ENDBRANCH  19  20
ENDBRANCH  18  19
ENDBRANCH   3  18
BRANCH   3  26
ATOM     26  C   LIG    1        5.141  -9.774  -3.013  0.00  0.00    +0.072 C 
BRANCH  26  27
ATOM     27  C   LIG    1        5.697 -10.509  -1.779  0.00  0.00    +0.161 C 
BRANCH  27  28
ATOM     28  O   LIG    1        6.656  -9.739  -1.064  0.00  0.00    -0.395 OA
ATOM     29  H   LIG    1        7.537 -10.095  -1.269  0.00  0.00    +0.209 HD
ENDBRANCH  27  28
ENDBRANCH  26  27
ENDBRANCH   3  26
TORSDOF 11
