REMARK  Name = *****
REMARK                            x       y       z     vdW  Elec       q    Type
REMARK                         _______ _______ _______ _____ _____    ______ ____
ROOT
ATOM      1  C   LIG    1      -10.262  -0.828   4.041  0.00  0.00    +0.176 C 
ATOM      2  C   LIG    1      -11.183  -0.159   5.152  0.00  0.00    +0.018 C 
ATOM      3  C   LIG    1      -12.534   0.346   4.563  0.00  0.00    +0.016 C 
ATOM      4  C   LIG    1      -10.367   1.112   5.585  0.00  0.00    +0.003 C 
ATOM      5  C   LIG    1       -9.502   0.978   6.866  0.00  0.00    -0.003 C 
ATOM      6  C   LIG    1      -10.190   0.240   8.035  0.00  0.00    +0.002 C 
ATOM      7  C   LIG    1      -10.627  -1.132   7.530  0.00  0.00    +0.005 C 
ATOM      8  C   LIG    1      -11.220   1.065   8.903  0.00  0.00    -0.007 C 
ATOM      9  C   LIG    1      -11.553   0.223  10.170  0.00  0.00    +0.016 C 
ATOM     10  C   LIG    1      -10.594   2.422   9.258  0.00  0.00    -0.060 C 
ATOM     11  C   LIG    1      -11.153   3.172  10.230  0.00  0.00    +0.046 C 
ATOM     12  C   LIG    1      -12.544   3.553   9.778  0.00  0.00    +0.156 C 
ATOM     13  O   LIG    1      -13.011   4.636  10.120  0.00  0.00    -0.293 OA
ATOM     14  C   LIG    1      -13.376   2.500   9.047  0.00  0.00    +0.080 C 
ATOM     15  C   LIG    1       -9.941   3.170   8.109  0.00  0.00    +0.032 C 
ATOM     16  C   LIG    1      -12.565   1.461   8.242  0.00  0.00    +0.019 C 
ATOM     17  C   LIG    1       -8.927   2.317   7.359  0.00  0.00    +0.008 C 
ATOM     18  C   LIG    1       -9.503   1.481   4.357  0.00  0.00    +0.009 C 
ATOM     19  C   LIG    1      -11.547  -1.098   6.330  0.00  0.00    +0.011 C 
ATOM     20  C   LIG    1       -9.775   0.436   3.285  0.00  0.00    +0.057 C 
ENDROOT
BRANCH   1  21
ATOM     21  C   LIG    1      -11.029  -1.758   3.038  0.00  0.00    +0.174 C 
ATOM     22  O   LIG    1      -11.179  -1.450   1.850  0.00  0.00    -0.293 OA
ATOM     23  C   LIG    1      -11.604  -3.071   3.507  0.00  0.00    +0.090 C 
ENDBRANCH   1  21
BRANCH   1  24
ATOM     24  O   LIG    1       -9.137  -1.433   4.733  0.00  0.00    -0.450 OA
BRANCH  24  25
ATOM     25  C   LIG    1       -8.059  -1.866   4.030  0.00  0.00    +0.308 C 
ATOM     26  O   LIG    1       -8.021  -2.025   2.828  0.00  0.00    -0.251 OA
BRANCH  25  27
ATOM     27  C   LIG    1       -6.852  -2.019   4.942  0.00  0.00    +0.120 C 
BRANCH  27  28
ATOM     28  C   LIG    1       -5.968  -0.776   4.840  0.00  0.00    +0.011 C 
BRANCH  28  29
ATOM     29  C   LIG    1       -4.692  -0.875   5.682  0.00  0.00    +0.000 C 
BRANCH  29  31
ATOM     30  C   LIG    1       -2.564   0.324   6.366  0.00  0.00    +0.004 C 
ATOM     31  C   LIG    1       -3.843   0.395   5.545  0.00  0.00    -0.003 C 
ENDBRANCH  29  31
ENDBRANCH  28  29
ENDBRANCH  27  28
ENDBRANCH  25  27
ENDBRANCH  24  25
ENDBRANCH   1  24
TORSDOF 7
