REMARK  Name = *****
REMARK                            x       y       z     vdW  Elec       q    Type
REMARK                         _______ _______ _______ _____ _____    ______ ____
ROOT
ATOM      1  C   LIG    1        2.768   1.718   1.631  0.00  0.00    -0.008 A 
ATOM      2  C   LIG    1        1.518   1.328   1.111  0.00  0.00    -0.004 A 
ATOM      3  C   LIG    1        0.794   0.035   0.980  0.00  0.00    -0.009 A 
ATOM      4  C   LIG    1       -0.359   0.200   0.176  0.00  0.00    -0.008 A 
ATOM      5  C   LIG    1       -0.332   1.628  -0.304  0.00  0.00    -0.009 C 
ATOM      6  C   LIG    1       -0.792   2.067  -1.473  0.00  0.00    +0.017 C 
ATOM      7  C   LIG    1       -1.284  -0.833   0.012  0.00  0.00    +0.029 A 
ATOM      8  C   LIG    1       -0.972  -2.097   0.562  0.00  0.00    +0.042 A 
ATOM      9 CL   LIG    1       -1.984  -3.458   0.251  0.00  0.00    -0.084 Cl
ATOM     10  C   LIG    1        0.144  -2.248   1.376  0.00  0.00    +0.020 A 
ATOM     11  C   LIG    1        0.948  -1.177   1.658  0.00  0.00    +0.010 A 
ATOM     12  C   LIG    1        0.663   2.329   0.548  0.00  0.00    -0.008 A 
ATOM     13  C   LIG    1        0.783   3.672   0.831  0.00  0.00    +0.029 A 
ATOM     14  C   LIG    1        1.889   4.052   1.584  0.00  0.00    +0.042 A 
ATOM     15 CL   LIG    1        2.053   5.688   2.070  0.00  0.00    -0.084 Cl
ATOM     16  C   LIG    1        2.880   3.108   1.922  0.00  0.00    +0.027 A 
ENDROOT
BRANCH   6  17
ATOM     17  C   LIG    1       -0.508   3.350  -2.228  0.00  0.00    -0.024 A 
ATOM     18  C   LIG    1       -1.363   4.454  -2.137  0.00  0.00    +0.009 A 
ATOM     19  C   LIG    1       -1.156   5.600  -2.950  0.00  0.00    +0.020 A 
ATOM     20  C   LIG    1       -0.086   5.646  -3.835  0.00  0.00    +0.041 A 
ATOM     21 CL   LIG    1        0.150   7.034  -4.835  0.00  0.00    -0.084 Cl
ATOM     22  C   LIG    1        0.790   4.573  -3.918  0.00  0.00    +0.020 A 
ATOM     23  C   LIG    1        0.578   3.420  -3.112  0.00  0.00    +0.009 A 
ENDBRANCH   6  17
BRANCH   1  24
ATOM     24  C   LIG    1        4.040   0.815   1.620  0.00  0.00    +0.159 C 
BRANCH  24  25
ATOM     25  O   LIG    1        5.254   1.484   1.973  0.00  0.00    -0.386 OA
ATOM     26  H   LIG    1        5.172   2.436   1.832  0.00  0.00    +0.210 HD
ENDBRANCH  24  25
BRANCH  24  27
ATOM     27  C   LIG    1        3.988  -0.501   2.446  0.00  0.00    +0.120 C 
BRANCH  27  28
ATOM     28  N   LIG    1        5.023  -1.595   2.427  0.00  0.00    -0.300 NA
BRANCH  28  29
ATOM     29  C   LIG    1        6.270  -1.159   3.107  0.00  0.00    +0.084 C 
BRANCH  29  30
ATOM     30  C   LIG    1        7.310  -2.206   3.660  0.00  0.00    +0.015 C 
BRANCH  30  32
ATOM     31  C   LIG    1        9.124  -4.003   2.808  0.00  0.00    +0.004 C 
ATOM     32  C   LIG    1        8.029  -3.000   2.595  0.00  0.00    -0.002 C 
ENDBRANCH  30  32
ENDBRANCH  29  30
ENDBRANCH  28  29
BRANCH  28  33
ATOM     33  C   LIG    1        5.087  -2.087   1.016  0.00  0.00    +0.084 C 
BRANCH  33  34
ATOM     34  C   LIG    1        5.883  -3.341   0.750  0.00  0.00    +0.015 C 
BRANCH  34  35
ATOM     35  C   LIG    1        6.112  -3.945  -0.611  0.00  0.00    -0.002 C 
ATOM     36  C   LIG    1        4.847  -4.325  -1.310  0.00  0.00    +0.004 C 
ENDBRANCH  34  35
ENDBRANCH  33  34
ENDBRANCH  28  33
ENDBRANCH  27  28
ENDBRANCH  24  27
ENDBRANCH   1  24
TORSDOF 11
