REMARK  Name = *****
REMARK                            x       y       z     vdW  Elec       q    Type
REMARK                         _______ _______ _______ _____ _____    ______ ____
ROOT
ATOM      1  C   LIG    1        5.453  -2.852   0.080  0.00  0.00    +0.054 C 
ENDROOT
BRANCH   1   5
ATOM      2  C   LIG    1        7.423  -1.264   4.483  0.00  0.00    +0.044 C 
ATOM      3  C   LIG    1        7.493  -2.148   3.277  0.00  0.00    -0.050 A 
ATOM      4  C   LIG    1        6.506  -2.091   2.292  0.00  0.00    +0.011 A 
ATOM      5  C   LIG    1        6.547  -2.897   1.142  0.00  0.00    +0.002 A 
ATOM      6  C   LIG    1        7.642  -3.779   1.006  0.00  0.00    +0.121 A 
ATOM      7  C   LIG    1        8.640  -3.832   1.970  0.00  0.00    +0.046 A 
ATOM      8  C   LIG    1        8.578  -3.024   3.100  0.00  0.00    +0.007 A 
BRANCH   6   9
ATOM      9  O   LIG    1        7.717  -4.577  -0.100  0.00  0.00    -0.506 OA
ATOM     10  H   LIG    1        8.462  -5.197   0.020  0.00  0.00    +0.292 HD
ENDBRANCH   6   9
ENDBRANCH   1   5
BRANCH   1  11
ATOM     11  C   LIG    1        4.299  -3.826   0.349  0.00  0.00    -0.040 A 
ATOM     12  C   LIG    1        3.618  -3.843   1.575  0.00  0.00    +0.004 A 
ATOM     13  C   LIG    1        2.491  -4.645   1.765  0.00  0.00    +0.000 A 
ATOM     14  C   LIG    1        2.030  -5.448   0.725  0.00  0.00    +0.000 A 
ATOM     15  C   LIG    1        2.703  -5.460  -0.492  0.00  0.00    +0.000 A 
ATOM     16  C   LIG    1        3.835  -4.662  -0.682  0.00  0.00    +0.004 A 
ENDBRANCH   1  11
BRANCH   1  17
ATOM     17  C   LIG    1        4.825  -1.452  -0.193  0.00  0.00    +0.028 C 
BRANCH  17  18
ATOM     18  C   LIG    1        5.862  -0.381  -0.588  0.00  0.00    +0.086 C 
BRANCH  18  19
ATOM     19  N   LIG    1        5.340   0.976  -0.894  0.00  0.00    -0.297 NA
BRANCH  19  20
ATOM     20  C   LIG    1        4.125   0.963  -1.754  0.00  0.00    +0.051 C 
ATOM     21  C   LIG    1        4.258   0.273  -3.120  0.00  0.00    +0.024 C 
ATOM     22  C   LIG    1        3.417   2.318  -1.918  0.00  0.00    +0.024 C 
ENDBRANCH  19  20
BRANCH  19  23
ATOM     23  C   LIG    1        6.420   1.943  -1.253  0.00  0.00    +0.051 C 
ATOM     24  C   LIG    1        7.194   1.644  -2.545  0.00  0.00    +0.024 C 
ATOM     25  C   LIG    1        7.460   2.173  -0.127  0.00  0.00    +0.024 C 
ENDBRANCH  19  23
ENDBRANCH  18  19
ENDBRANCH  17  18
ENDBRANCH   1  17
TORSDOF 8
