REMARK  Name = *****
REMARK                            x       y       z     vdW  Elec       q    Type
REMARK                         _______ _______ _______ _____ _____    ______ ____
ROOT
ATOM      1  C   LIG    1        7.764  -1.071   5.897  0.00  0.00    +0.065 C 
ATOM      2  C   LIG    1        6.957  -2.333   6.130  0.00  0.00    +0.096 C 
ATOM      3  C   LIG    1        7.853  -3.492   6.615  0.00  0.00    +0.065 C 
ATOM      4  C   LIG    1        8.947  -3.187   7.356  0.00  0.00    +0.016 C 
ATOM      5  C   LIG    1        9.894  -4.166   7.988  0.00  0.00    +0.061 C 
ATOM      6  N   LIG    1        9.275  -1.851   7.541  0.00  0.00    -0.321 N 
ATOM      7  H   LIG    1       10.178  -1.685   7.979  0.00  0.00    +0.152 HD
ATOM      8  C   LIG    1        8.845  -0.857   6.671  0.00  0.00    +0.016 C 
ATOM      9  C   LIG    1        9.690   0.377   6.655  0.00  0.00    +0.061 C 
ENDROOT
BRANCH   2  10
ATOM     10  C   LIG    1        5.871  -1.945   7.137  0.00  0.00    -0.029 A 
ATOM     11  C   LIG    1        5.817  -2.608   8.370  0.00  0.00    +0.088 A 
ATOM     12  C   LIG    1        5.015  -2.143   9.384  0.00  0.00    +0.273 A 
ATOM     13  C   LIG    1        4.253  -0.983   9.159  0.00  0.00    +0.084 A 
ATOM     14  C   LIG    1        4.083  -0.490   7.850  0.00  0.00    +0.007 A 
ATOM     15  C   LIG    1        4.910  -0.955   6.856  0.00  0.00    +0.005 A 
BRANCH  12  16
ATOM     16  N   LIG    1        4.885  -3.030  10.564  0.00  0.00    +0.080 N 
ATOM     17  O   LIG    1        5.262  -4.215  10.454  0.00  0.00    -0.576 OA
ATOM     18  O   LIG    1        4.397  -2.558  11.598  0.00  0.00    +0.041 OA
ENDBRANCH  12  16
ENDBRANCH   2  10
BRANCH   1  19
ATOM     19  C   LIG    1        7.304  -0.145   4.805  0.00  0.00    +0.338 C 
ATOM     20  O   LIG    1        7.861   0.803   4.419  0.00  0.00    -0.245 OA
BRANCH  19  21
ATOM     21  O   LIG    1        6.114  -0.628   4.306  0.00  0.00    -0.459 OA
BRANCH  21  22
ATOM     22  C   LIG    1        6.053  -0.913   2.911  0.00  0.00    +0.260 C 
BRANCH  22  23
ATOM     23  C   LIG    1        5.824   0.340   2.094  0.00  0.00    +0.200 C 
BRANCH  23  25
ATOM     24  C   LIG    1        5.559   1.187  -0.070  0.00  0.00    +0.194 C 
ATOM     25  O   LIG    1        5.690   0.007   0.715  0.00  0.00    -0.380 OA
ENDBRANCH  23  25
ENDBRANCH  22  23
ENDBRANCH  21  22
ENDBRANCH  19  21
ENDBRANCH   1  19
BRANCH   3  26
ATOM     26  C   LIG    1        7.403  -4.880   6.333  0.00  0.00    +0.338 C 
ATOM     27  O   LIG    1        7.819  -5.900   6.890  0.00  0.00    -0.245 OA
BRANCH  26  28
ATOM     28  O   LIG    1        6.407  -4.848   5.426  0.00  0.00    -0.457 OA
BRANCH  28  29
ATOM     29  C   LIG    1        5.178  -5.516   5.775  0.00  0.00    +0.260 C 
BRANCH  29  30
ATOM     30  C   LIG    1        4.362  -4.675   6.725  0.00  0.00    +0.014 C 
ATOM     31  C   LIG    1        3.566  -5.043   7.755  0.00  0.00    +0.007 C 
BRANCH  31  32
ATOM     32  C   LIG    1        2.686  -4.161   8.607  0.00  0.00    -0.025 A 
ATOM     33  C   LIG    1        2.257  -2.913   8.160  0.00  0.00    +0.008 A 
ATOM     34  C   LIG    1        1.679  -1.956   9.038  0.00  0.00    +0.001 A 
ATOM     35  C   LIG    1        1.623  -2.196  10.408  0.00  0.00    +0.000 A 
ATOM     36  C   LIG    1        1.895  -3.477  10.857  0.00  0.00    +0.001 A 
ATOM     37  C   LIG    1        2.397  -4.455   9.957  0.00  0.00    +0.008 A 
ENDBRANCH  31  32
ENDBRANCH  29  30
ENDBRANCH  28  29
ENDBRANCH  26  28
ENDBRANCH   3  26
TORSDOF 12
