REMARK  Name = *****
REMARK                            x       y       z     vdW  Elec       q    Type
REMARK                         _______ _______ _______ _____ _____    ______ ____
ROOT
ATOM      1  C   LIG    1        3.044   0.328   1.442  0.00  0.00    +0.354 C 
ATOM      2  C   LIG    1        2.988  -0.529   2.686  0.00  0.00    +0.492 C 
ATOM      3  N   LIG    1        4.370  -1.023   2.850  0.00  0.00    -0.191 N 
ATOM      4  O   LIG    1        4.549  -2.257   2.564  0.00  0.00    -0.624 OA
ATOM      5  C   LIG    1        5.366  -0.233   3.237  0.00  0.00    +0.233 C 
ATOM      6  C   LIG    1        5.061   1.207   3.497  0.00  0.00    +0.100 A 
ATOM      7  C   LIG    1        4.266   1.963   2.607  0.00  0.00    +0.190 A 
ATOM      8  C   LIG    1        4.037   3.314   2.896  0.00  0.00    +0.057 A 
ATOM      9  C   LIG    1        4.539   3.898   4.061  0.00  0.00    +0.024 A 
ATOM     10  C   LIG    1        5.285   3.129   4.949  0.00  0.00    +0.042 A 
ATOM     11 CL   LIG    1        5.876   3.839   6.400  0.00  0.00    -0.084 Cl
ATOM     12  C   LIG    1        5.552   1.789   4.675  0.00  0.00    +0.038 A 
ATOM     13  N   LIG    1        3.674   1.470   1.431  0.00  0.00    -0.039 NA
ENDROOT
BRANCH   5  14
ATOM     14  C   LIG    1        6.771  -0.735   3.385  0.00  0.00    +0.048 A 
ATOM     15  C   LIG    1        7.843   0.119   3.083  0.00  0.00    +0.014 A 
ATOM     16  C   LIG    1        9.165  -0.317   3.226  0.00  0.00    +0.001 A 
ATOM     17  C   LIG    1        9.430  -1.616   3.650  0.00  0.00    +0.000 A 
ATOM     18  C   LIG    1        8.375  -2.474   3.948  0.00  0.00    +0.001 A 
ATOM     19  C   LIG    1        7.053  -2.031   3.833  0.00  0.00    +0.014 A 
ENDBRANCH   5  14
BRANCH   1  21
ATOM     20  C   LIG    1        2.749   0.301  -1.010  0.00  0.00    +0.273 C 
ATOM     21  N   LIG    1        2.418  -0.170   0.317  0.00  0.00    -0.235 N 
ATOM     22  H   LIG    1        2.181  -1.158   0.344  0.00  0.00    +0.291 HD
ENDBRANCH   1  21
TORSDOF 2
