REMARK  Name = *****
REMARK                            x       y       z     vdW  Elec       q    Type
REMARK                         _______ _______ _______ _____ _____    ______ ____
ROOT
ATOM      1 SI   LIG    1        2.705   0.042  -0.052  0.00  0.00    +0.000 Si
ENDROOT
BRANCH   1   2
ATOM      2  O   LIG    1        1.067   0.036  -0.028  0.00  0.00    +0.000 OA
ATOM      3  H   LIG    1        0.622  -0.471  -0.720  0.00  0.00    +0.000 HD
ENDBRANCH   1   2
BRANCH   1   4
ATOM      4  O   LIG    1        3.256   1.184   0.984  0.00  0.00    +0.000 OA
ATOM      5  H   LIG    1        2.975   1.055   1.900  0.00  0.00    +0.000 HD
ENDBRANCH   1   4
BRANCH   1   6
ATOM      6  O   LIG    1        3.232   0.345  -1.571  0.00  0.00    +0.000 OA
ATOM      7  H   LIG    1        2.968  -0.266  -2.272  0.00  0.00    +0.000 HD
ENDBRANCH   1   6
BRANCH   1   8
ATOM      8  O   LIG    1        3.239  -1.430   0.432  0.00  0.00    +0.000 OA
ATOM      9  H   LIG    1        3.128  -2.161  -0.189  0.00  0.00    +0.000 HD
ENDBRANCH   1   8
TORSDOF 4
