REMARK  Name = *****
REMARK                            x       y       z     vdW  Elec       q    Type
REMARK                         _______ _______ _______ _____ _____    ______ ____
ROOT
ATOM      1  C   LIG    1        2.976   1.737   1.086  0.00  0.00    -0.000 C 
ATOM      2  C   LIG    1        3.708   2.378   2.015  0.00  0.00    -0.066 C 
ATOM      3  C   LIG    1        3.379   2.317   3.518  0.00  0.00    +0.021 C 
ATOM      4  C   LIG    1        1.908   2.023   3.815  0.00  0.00    +0.009 C 
ATOM      5  C   LIG    1        1.727   2.425   5.263  0.00  0.00    +0.005 C 
ATOM      6  C   LIG    1        2.562   3.707   5.466  0.00  0.00    -0.002 C 
ATOM      7  C   LIG    1        3.639   3.666   4.294  0.00  0.00    -0.022 C 
ATOM      8  C   LIG    1        5.042   3.627   4.950  0.00  0.00    +0.012 C 
ATOM      9  C   LIG    1        3.548   4.822   3.267  0.00  0.00    +0.008 C 
ATOM     10  C   LIG    1        4.572   4.716   2.131  0.00  0.00    +0.005 C 
ATOM     11  C   LIG    1        4.867   3.287   1.694  0.00  0.00    +0.031 C 
ENDROOT
BRANCH   1  19
ATOM     12  C   LIG    1        0.162   0.740  -0.405  0.00  0.00    +0.015 C 
ATOM     13  C   LIG    1        1.270   0.313  -1.032  0.00  0.00    -0.023 C 
ATOM     14  C   LIG    1        1.491  -1.086  -1.579  0.00  0.00    +0.147 C 
ATOM     15  C   LIG    1        1.906  -1.057  -3.057  0.00  0.00    +0.067 C 
ATOM     16  C   LIG    1        3.047  -0.075  -3.335  0.00  0.00    +0.122 C 
ATOM     17  C   LIG    1        2.761   1.312  -2.752  0.00  0.00    +0.067 C 
ATOM     18  C   LIG    1        2.398   1.212  -1.282  0.00  0.00    -0.040 C 
ATOM     19  C   LIG    1        3.138   1.829  -0.350  0.00  0.00    +0.004 C 
BRANCH  14  20
ATOM     20  O   LIG    1        0.319  -1.888  -1.451  0.00  0.00    -0.387 OA
ATOM     21  H   LIG    1       -0.380  -1.457  -1.971  0.00  0.00    +0.210 HD
ENDBRANCH  14  20
BRANCH  16  22
ATOM     22  O   LIG    1        4.281  -0.591  -2.830  0.00  0.00    -0.391 OA
ATOM     23  H   LIG    1        4.288  -0.488  -1.862  0.00  0.00    +0.210 HD
ENDBRANCH  16  22
ENDBRANCH   1  19
BRANCH   6  24
ATOM     24  C   LIG    1        1.714   5.013   5.663  0.00  0.00    -0.010 C 
ATOM     25  C   LIG    1        2.605   6.246   5.924  0.00  0.00    +0.008 C 
BRANCH  24  26
ATOM     26  C   LIG    1        0.708   4.886   6.847  0.00  0.00    +0.003 C 
BRANCH  26  27
ATOM     27  C   LIG    1       -0.214   6.103   7.040  0.00  0.00    +0.000 C 
BRANCH  27  28
ATOM     28  C   LIG    1       -1.217   5.931   8.196  0.00  0.00    +0.003 C 
BRANCH  28  29
ATOM     29  C   LIG    1       -0.616   5.718   9.602  0.00  0.00    -0.017 C 
ATOM     30  C   LIG    1       -1.736   5.534  10.633  0.00  0.00    +0.007 C 
ATOM     31  C   LIG    1        0.293   6.866  10.045  0.00  0.00    +0.007 C 
ENDBRANCH  28  29
ENDBRANCH  27  28
ENDBRANCH  26  27
ENDBRANCH  24  26
ENDBRANCH   6  24
TORSDOF 8
