REMARK  Name = *****
REMARK                            x       y       z     vdW  Elec       q    Type
REMARK                         _______ _______ _______ _____ _____    ______ ____
ROOT
ATOM      1  C   LIG    1        1.828   1.125   1.097  0.00  0.00    +0.258 C 
ATOM      2  N   LIG    1        1.446   1.846  -0.017  0.00  0.00    -0.281 N 
ATOM      3  H   LIG    1        1.602   1.393  -0.911  0.00  0.00    +0.155 HD
ATOM      4  O   LIG    1        1.954   1.601   2.229  0.00  0.00    -0.269 OA
ENDROOT
BRANCH   1  11
ATOM      5  C   LIG    1        3.832  -0.450   2.711  0.00  0.00    +0.087 C 
ATOM      6  C   LIG    1        3.074  -1.016   1.538  0.00  0.00    +0.113 C 
ATOM      7  O   LIG    1        3.444  -2.335   1.316  0.00  0.00    -0.494 OA
ATOM      8  C   LIG    1        3.226  -2.845   0.001  0.00  0.00    +0.239 C 
ATOM      9  C   LIG    1        1.768  -2.750  -0.389  0.00  0.00    +0.115 C 
ATOM     10  S   LIG    1        1.343  -1.007  -0.588  0.00  0.00    -0.114 S 
ATOM     11  C   LIG    1        2.185  -0.318   0.788  0.00  0.00    +0.107 C 
ENDBRANCH   1  11
BRANCH   2  12
ATOM     12  C   LIG    1        1.136   3.213  -0.031  0.00  0.00    +0.034 A 
ATOM     13  C   LIG    1        0.429   3.835   1.000  0.00  0.00    +0.023 A 
ATOM     14  C   LIG    1        0.150   5.201   0.927  0.00  0.00    +0.002 A 
ATOM     15  C   LIG    1        0.613   5.952  -0.153  0.00  0.00    +0.000 A 
ATOM     16  C   LIG    1        1.322   5.332  -1.180  0.00  0.00    +0.002 A 
ATOM     17  C   LIG    1        1.553   3.958  -1.136  0.00  0.00    +0.023 A 
ENDBRANCH   2  12
TORSDOF 2
