REMARK  Name = *****
REMARK                            x       y       z     vdW  Elec       q    Type
REMARK                         _______ _______ _______ _____ _____    ______ ____
ROOT
ATOM      1  C   LIG    1        3.064  -3.422   1.847  0.00  0.00    +0.041 C 
ATOM      2  C   LIG    1        2.191  -2.214   1.477  0.00  0.00    +0.131 C 
ENDROOT
BRANCH   2   3
ATOM      3  C   LIG    1        2.728  -0.941   2.204  0.00  0.00    +0.326 C 
ATOM      4  O   LIG    1        3.636  -0.240   1.805  0.00  0.00    -0.249 OA
BRANCH   3   5
ATOM      5  O   LIG    1        2.111  -0.705   3.392  0.00  0.00    -0.479 OA
ATOM      6  H   LIG    1        1.359  -1.357   3.448  0.00  0.00    +0.295 HD
ENDBRANCH   3   5
ENDBRANCH   2   3
BRANCH   2   7
ATOM      7  N   LIG    1        0.757  -2.467   1.868  0.00  0.00    -0.243 NA
ATOM      8  H   LIG    1        0.396  -3.214   1.260  0.00  0.00    +0.141 HD
BRANCH   7   9
ATOM      9  N   LIG    1        0.564  -2.769   3.283  0.00  0.00    -0.270 NA
ATOM     10  H   LIG    1       -0.404  -3.078   3.456  0.00  0.00    +0.137 HD
ATOM     11  H   LIG    1        1.137  -3.553   3.621  0.00  0.00    +0.137 HD
ENDBRANCH   7   9
ENDBRANCH   2   7
BRANCH   2  12
ATOM     12  C   LIG    1        2.298  -1.912  -0.058  0.00  0.00    +0.070 C 
BRANCH  12  13
ATOM     13  C   LIG    1        1.857  -2.986  -1.040  0.00  0.00    -0.041 A 
ATOM     14  C   LIG    1        0.541  -3.009  -1.527  0.00  0.00    +0.052 A 
ATOM     15  C   LIG    1        0.163  -3.970  -2.459  0.00  0.00    +0.159 A 
ATOM     16  C   LIG    1        1.071  -4.916  -2.923  0.00  0.00    +0.158 A 
ATOM     17  C   LIG    1        2.381  -4.906  -2.467  0.00  0.00    +0.049 A 
ATOM     18  C   LIG    1        2.771  -3.940  -1.528  0.00  0.00    +0.007 A 
BRANCH  15  19
ATOM     19  O   LIG    1       -1.120  -3.974  -2.930  0.00  0.00    -0.503 OA
ATOM     20  H   LIG    1       -1.137  -4.699  -3.587  0.00  0.00    +0.292 HD
ENDBRANCH  15  19
BRANCH  16  21
ATOM     21  O   LIG    1        0.626  -5.834  -3.835  0.00  0.00    -0.503 OA
ATOM     22  H   LIG    1        1.361  -6.436  -4.045  0.00  0.00    +0.292 HD
ENDBRANCH  16  21
ENDBRANCH  12  13
ENDBRANCH   2  12
TORSDOF 8
