REMARK  Name = *****
REMARK                            x       y       z     vdW  Elec       q    Type
REMARK                         _______ _______ _______ _____ _____    ______ ____
ROOT
ATOM      1  C   LIG    1       -0.821   0.595  -0.579  0.00  0.00    +0.015 C 
ATOM      2  C   LIG    1       -2.298   0.236  -0.240  0.00  0.00    +0.008 C 
ATOM      3  C   LIG    1       -2.273  -0.536   1.119  0.00  0.00    +0.183 C 
ATOM      4  C   LIG    1       -2.434  -2.022   0.773  0.00  0.00    +0.045 C 
ATOM      5  C   LIG    1       -2.273  -2.121  -0.741  0.00  0.00    +0.008 C 
ATOM      6  C   LIG    1       -2.823  -0.793  -1.281  0.00  0.00    +0.002 C 
ATOM      7  C   LIG    1       -4.353  -0.794  -1.606  0.00  0.00    +0.001 C 
ATOM      8  C   LIG    1       -4.980   0.628  -1.619  0.00  0.00    +0.023 C 
ATOM      9  C   LIG    1       -6.502   0.642  -1.742  0.00  0.00    -0.041 A 
ATOM     10  C   LIG    1       -7.271  -0.521  -1.564  0.00  0.00    -0.041 A 
ATOM     11  C   LIG    1       -6.621  -1.863  -1.393  0.00  0.00    +0.036 C 
ATOM     12  C   LIG    1       -8.672  -0.445  -1.584  0.00  0.00    +0.049 A 
ATOM     13  C   LIG    1       -9.304   0.779  -1.751  0.00  0.00    +0.117 A 
ATOM     14  C   LIG    1       -8.565   1.935  -1.955  0.00  0.00    +0.045 A 
ATOM     15  C   LIG    1       -7.170   1.863  -1.964  0.00  0.00    +0.008 A 
ATOM     16  C   LIG    1       -4.581   1.412  -0.358  0.00  0.00    +0.009 C 
ATOM     17  C   LIG    1       -5.229  -1.752  -0.781  0.00  0.00    +0.009 C 
ATOM     18  C   LIG    1       -3.074   1.558  -0.244  0.00  0.00    +0.011 C 
ENDROOT
BRANCH  13  19
ATOM     19  O   LIG    1      -10.666   0.803  -1.699  0.00  0.00    -0.507 OA
ATOM     20  H   LIG    1      -10.957   1.729  -1.717  0.00  0.00    +0.292 HD
ENDBRANCH  13  19
BRANCH   3  21
ATOM     21  O   LIG    1       -3.312  -0.106   2.011  0.00  0.00    -0.461 OA
BRANCH  21  22
ATOM     22  C   LIG    1       -3.119  -0.400   3.330  0.00  0.00    +0.307 C 
ATOM     23  O   LIG    1       -2.189  -1.060   3.776  0.00  0.00    -0.251 OA
BRANCH  22  24
ATOM     24  C   LIG    1       -4.208   0.246   4.156  0.00  0.00    +0.121 C 
BRANCH  24  25
ATOM     25  C   LIG    1       -4.035  -0.030   5.655  0.00  0.00    +0.015 C 
BRANCH  25  26
ATOM     26  C   LIG    1       -5.127   0.615   6.522  0.00  0.00    -0.010 C 
ATOM     27  C   LIG    1       -4.959   0.248   8.009  0.00  0.00    +0.003 C 
ATOM     28  C   LIG    1       -5.256   1.527   8.777  0.00  0.00    +0.000 C 
ATOM     29  C   LIG    1       -4.702   2.607   7.868  0.00  0.00    +0.000 C 
ATOM     30  C   LIG    1       -5.133   2.154   6.481  0.00  0.00    +0.003 C 
ENDBRANCH  25  26
ENDBRANCH  24  25
ENDBRANCH  22  24
ENDBRANCH  21  22
ENDBRANCH   3  21
TORSDOF 6
