REMARK  Name = *****
REMARK                            x       y       z     vdW  Elec       q    Type
REMARK                         _______ _______ _______ _____ _____    ______ ____
ROOT
ATOM      1  C   LIG    1        4.278   3.978  -5.886  0.00  0.00    +0.322 C 
ATOM      2  C   LIG    1        4.557   5.426  -6.130  0.00  0.00    +0.079 A 
ATOM      3  C   LIG    1        3.798   6.440  -5.537  0.00  0.00    +0.028 A 
ATOM      4  C   LIG    1        4.171   7.779  -5.703  0.00  0.00    +0.016 A 
ATOM      5  C   LIG    1        5.261   8.105  -6.522  0.00  0.00    +0.001 A 
ATOM      6  C   LIG    1        5.959   7.099  -7.190  0.00  0.00    +0.001 A 
ATOM      7  S   LIG    1        2.257   6.085  -4.700  0.00  0.00    -0.084 S 
ATOM      8  C   LIG    1        1.473   5.266  -6.092  0.00  0.00    +0.063 A 
ATOM      9  C   LIG    1        2.024   4.099  -6.660  0.00  0.00    +0.190 A 
ATOM     10  C   LIG    1        1.396   3.535  -7.774  0.00  0.00    +0.056 A 
ATOM     11  C   LIG    1        0.273   4.122  -8.349  0.00  0.00    +0.004 A 
ATOM     12  C   LIG    1       -0.256   5.291  -7.800  0.00  0.00    +0.001 A 
ATOM     13  C   LIG    1        0.342   5.857  -6.671  0.00  0.00    +0.019 A 
ATOM     14  C   LIG    1        5.623   5.760  -6.991  0.00  0.00    +0.017 A 
ATOM     15  N   LIG    1        3.128   3.409  -6.143  0.00  0.00    -0.040 NA
ENDROOT
BRANCH   1  19
ATOM     16  N   LIG    1        6.930   1.220  -3.796  0.00  0.00    -0.293 NA
ATOM     17  C   LIG    1        6.450   0.962  -5.173  0.00  0.00    +0.128 C 
ATOM     18  C   LIG    1        5.173   1.723  -5.564  0.00  0.00    +0.241 C 
ATOM     19  N   LIG    1        5.316   3.188  -5.384  0.00  0.00    -0.218 N 
ATOM     20  C   LIG    1        5.835   3.530  -4.020  0.00  0.00    +0.241 C 
ATOM     21  C   LIG    1        7.089   2.691  -3.664  0.00  0.00    +0.128 C 
BRANCH  16  22
ATOM     22  C   LIG    1        6.022   0.684  -2.760  0.00  0.00    +0.112 C 
BRANCH  22  23
ATOM     23  C   LIG    1        5.855  -0.846  -2.798  0.00  0.00    +0.175 C 
BRANCH  23  24
ATOM     24  O   LIG    1        4.954  -1.256  -1.765  0.00  0.00    -0.376 OA
BRANCH  24  25
ATOM     25  C   LIG    1        4.734  -2.667  -1.815  0.00  0.00    +0.187 C 
BRANCH  25  26
ATOM     26  C   LIG    1        3.764  -3.066  -0.712  0.00  0.00    +0.184 C 
BRANCH  26  27
ATOM     27  O   LIG    1        3.550  -4.471  -0.733  0.00  0.00    -0.393 OA
ATOM     28  H   LIG    1        2.978  -4.678   0.026  0.00  0.00    +0.209 HD
ENDBRANCH  26  27
ENDBRANCH  25  26
ENDBRANCH  24  25
ENDBRANCH  23  24
ENDBRANCH  22  23
ENDBRANCH  16  22
ENDBRANCH   1  19
TORSDOF 7
