REMARK  Name = *****
REMARK                            x       y       z     vdW  Elec       q    Type
REMARK                         _______ _______ _______ _____ _____    ______ ____
ROOT
ATOM      1  C   LIG    1        2.523  -0.931  -0.276  0.00  0.00    +0.226 C 
ATOM      2  N   LIG    1        3.883  -0.689  -0.329  0.00  0.00    -0.304 N 
ATOM      3  H   LIG    1        4.222   0.261  -0.202  0.00  0.00    +0.149 HD
ATOM      4  O   LIG    1        2.048  -2.034  -0.522  0.00  0.00    -0.275 OA
ENDROOT
BRANCH   1   6
ATOM      5  C   LIG    1        0.207  -0.063   0.186  0.00  0.00    +0.028 C 
ATOM      6  C   LIG    1        1.683   0.291   0.095  0.00  0.00    +0.126 C 
BRANCH   6   7
ATOM      7  S   LIG    1        1.958   1.599  -1.159  0.00  0.00    -0.166 S 
ATOM      8  H   LIG    1        1.462   0.922  -2.207  0.00  0.00    +0.102 HD
ENDBRANCH   6   7
ENDBRANCH   1   6
BRANCH   2   9
ATOM      9  C   LIG    1        4.826  -1.762  -0.631  0.00  0.00    +0.224 C 
BRANCH   9  10
ATOM     10  C   LIG    1        5.168  -1.837  -2.113  0.00  0.00    +0.322 C 
ATOM     11  O   LIG    1        5.934  -2.669  -2.590  0.00  0.00    -0.249 OA
BRANCH  10  12
ATOM     12  O   LIG    1        4.604  -0.866  -2.868  0.00  0.00    -0.479 OA
ATOM     13  H   LIG    1        4.026  -0.296  -2.325  0.00  0.00    +0.295 HD
ENDBRANCH  10  12
ENDBRANCH   9  10
ENDBRANCH   2   9
TORSDOF 5
