REMARK  Name = *****
REMARK                            x       y       z     vdW  Elec       q    Type
REMARK                         _______ _______ _______ _____ _____    ______ ____
ROOT
ATOM      1  C   LIG    1        2.898   1.692   0.418  0.00  0.00    -0.000 A 
ATOM      2  C   LIG    1        3.697   2.591   1.126  0.00  0.00    +0.122 A 
ATOM      3  C   LIG    1        3.589   3.972   0.923  0.00  0.00    +0.069 A 
ATOM      4  C   LIG    1        2.661   4.532   0.024  0.00  0.00    +0.041 A 
ATOM      5  C   LIG    1        1.741   3.694  -0.644  0.00  0.00    -0.020 A 
ATOM      6  C   LIG    1        1.920   2.286  -0.429  0.00  0.00    +0.013 A 
ENDROOT
BRANCH   1   8
ATOM      7  C   LIG    1        2.111  -0.610  -0.431  0.00  0.00    +0.016 C 
ATOM      8  C   LIG    1        3.085   0.151   0.504  0.00  0.00    -0.009 C 
ATOM      9  C   LIG    1        4.521  -0.270   0.097  0.00  0.00    +0.016 C 
ATOM     10  C   LIG    1        2.838  -0.409   1.924  0.00  0.00    +0.016 C 
ENDBRANCH   1   8
BRANCH   4  11
ATOM     11  N   LIG    1        2.688   5.936  -0.117  0.00  0.00    -0.281 N 
ATOM     12  H   LIG    1        1.811   6.421  -0.252  0.00  0.00    +0.155 HD
ATOM     13  C   LIG    1        3.838   6.705  -0.262  0.00  0.00    +0.253 C 
ATOM     14  O   LIG    1        4.975   6.267  -0.291  0.00  0.00    -0.270 OA
BRANCH  13  15
ATOM     15  C   LIG    1        3.576   8.174  -0.458  0.00  0.00    +0.100 C 
ATOM     16  C   LIG    1        2.225   8.803  -0.410  0.00  0.00    +0.202 C 
ATOM     17  O   LIG    1        1.214   8.129  -0.228  0.00  0.00    -0.286 OA
ATOM     18  C   LIG    1        2.107  10.270  -0.591  0.00  0.00    +0.046 C 
ATOM     19  C   LIG    1        3.271  11.013  -0.835  0.00  0.00    +0.050 C 
ATOM     20  C   LIG    1        3.157  12.388  -1.056  0.00  0.00    +0.026 C 
ATOM     21  C   LIG    1        1.907  13.013  -1.002  0.00  0.00    +0.002 C 
ATOM     22  C   LIG    1        0.758  12.268  -0.730  0.00  0.00    +0.001 C 
ATOM     23  N   LIG    1        4.505  10.360  -0.917  0.00  0.00    -0.360 NA
ATOM     24  H   LIG    1        5.353  10.914  -0.968  0.00  0.00    +0.165 HD
ATOM     25  C   LIG    1        0.855  10.893  -0.526  0.00  0.00    +0.014 C 
ATOM     26  C   LIG    1        4.605   9.006  -0.703  0.00  0.00    +0.100 C 
ENDBRANCH  13  15
ENDBRANCH   4  11
BRANCH   5  27
ATOM     27  C   LIG    1        0.650   4.110  -1.686  0.00  0.00    -0.011 C 
ATOM     28  C   LIG    1       -0.748   3.558  -1.298  0.00  0.00    +0.015 C 
ATOM     29  C   LIG    1        1.000   3.534  -3.081  0.00  0.00    +0.015 C 
ATOM     30  C   LIG    1        0.434   5.618  -1.914  0.00  0.00    +0.015 C 
ENDBRANCH   5  27
BRANCH   2  31
ATOM     31  O   LIG    1        4.613   2.144   2.038  0.00  0.00    -0.506 OA
ATOM     32  H   LIG    1        5.045   2.913   2.447  0.00  0.00    +0.292 HD
ENDBRANCH   2  31
TORSDOF 5
