REMARK  Name = *****
REMARK                            x       y       z     vdW  Elec       q    Type
REMARK                         _______ _______ _______ _____ _____    ______ ____
ROOT
ATOM      1  C   LIG    1       -7.141 -11.034  -1.723  0.00  0.00    +0.186 C 
ATOM      2  O   LIG    1       -7.130  -9.933  -0.703  0.00  0.00    -0.459 OA
ATOM      3  C   LIG    1       -6.501  -8.770  -0.981  0.00  0.00    +0.328 C 
ATOM      4  O   LIG    1       -5.727  -8.634  -1.922  0.00  0.00    -0.249 OA
ATOM      5  C   LIG    1       -6.569  -7.669   0.144  0.00  0.00    +0.185 C 
ATOM      6  N   LIG    1       -7.850  -7.609   0.917  0.00  0.00    -0.281 N 
ATOM      7  C   LIG    1       -8.746  -6.529   0.494  0.00  0.00    +0.109 C 
ATOM      8  C   LIG    1       -8.103  -5.157   0.749  0.00  0.00    +0.019 C 
ATOM      9  C   LIG    1       -6.602  -5.139   0.434  0.00  0.00    +0.004 C 
ATOM     10  C   LIG    1       -7.976  -8.015   2.236  0.00  0.00    +0.288 C 
ATOM     11  O   LIG    1       -9.063  -8.017   2.868  0.00  0.00    -0.267 OA
ATOM     12  C   LIG    1       -6.713  -8.407   3.006  0.00  0.00    +0.276 C 
ATOM     13  O   LIG    1       -6.017  -7.502   3.489  0.00  0.00    -0.281 OA
ATOM     14  C   LIG    1       -6.443  -9.934   3.087  0.00  0.00    +0.240 C 
ATOM     15  O   LIG    1       -5.027  -9.995   2.879  0.00  0.00    -0.339 OA
ATOM     16  C   LIG    1       -4.417 -11.290   2.974  0.00  0.00    +0.125 C 
ATOM     17  C   LIG    1       -5.333 -12.347   3.606  0.00  0.00    +0.032 C 
ATOM     18  C   LIG    1       -6.111 -11.809   4.795  0.00  0.00    +0.011 C 
ATOM     19  C   LIG    1       -3.982 -11.757   1.571  0.00  0.00    +0.067 C 
ATOM     20  C   LIG    1       -2.598 -11.249   1.058  0.00  0.00    +0.146 C 
ATOM     21  C   LIG    1       -1.718 -12.413   0.579  0.00  0.00    -0.044 C 
ATOM     22  C   LIG    1       -1.323 -13.347   1.711  0.00  0.00    +0.041 C 
ATOM     23  C   LIG    1       -1.258 -12.728  -0.657  0.00  0.00    +0.001 C 
ATOM     24  C   LIG    1       -1.413 -12.130  -1.984  0.00  0.00    +0.000 C 
ATOM     25  C   LIG    1       -0.949 -12.799  -3.058  0.00  0.00    -0.000 C 
ATOM     26  C   LIG    1       -0.959 -12.486  -4.473  0.00  0.00    -0.004 C 
ATOM     27  C   LIG    1       -2.020 -12.119  -5.209  0.00  0.00    -0.024 C 
ATOM     28  C   LIG    1       -2.036 -12.235  -6.726  0.00  0.00    +0.009 C 
ATOM     29  C   LIG    1       -2.542 -10.963  -7.409  0.00  0.00    +0.012 C 
ATOM     30  C   LIG    1       -2.905 -13.457  -7.142  0.00  0.00    +0.018 C 
ATOM     31  C   LIG    1       -2.060 -14.731  -7.340  0.00  0.00    +0.056 C 
ATOM     32  C   LIG    1       -1.852 -14.961  -8.845  0.00  0.00    +0.015 C 
ATOM     33  C   LIG    1       -2.480 -16.052  -6.675  0.00  0.00    +0.167 C 
ATOM     34  O   LIG    1       -1.663 -16.991  -6.680  0.00  0.00    -0.294 OA
ATOM     35  C   LIG    1       -3.878 -16.288  -6.082  0.00  0.00    +0.216 C 
ATOM     36  C   LIG    1       -4.133 -15.550  -4.723  0.00  0.00    +0.176 C 
ATOM     37  C   LIG    1       -4.912 -16.269  -3.618  0.00  0.00    -0.045 C 
ATOM     38  C   LIG    1       -4.911 -17.784  -3.693  0.00  0.00    +0.041 C 
ATOM     39  C   LIG    1       -5.501 -15.703  -2.532  0.00  0.00    -0.015 C 
ATOM     40  C   LIG    1       -5.490 -14.325  -1.869  0.00  0.00    +0.075 C 
ATOM     41  C   LIG    1       -4.300 -14.386  -0.910  0.00  0.00    +0.019 C 
ATOM     42  C   LIG    1       -5.459 -12.973  -2.636  0.00  0.00    +0.143 C 
ATOM     43  O   LIG    1       -5.084 -12.906  -3.806  0.00  0.00    -0.297 OA
ATOM     44  C   LIG    1       -6.775 -10.446   4.516  0.00  0.00    +0.054 C 
ATOM     45  C   LIG    1       -8.275 -10.530   4.825  0.00  0.00    +0.013 C 
ATOM     46  C   LIG    1       -6.201  -6.298  -0.473  0.00  0.00    +0.034 C 
ATOM     47  C   LIG    1       -5.739 -11.661  -1.864  0.00  0.00    +0.119 C 
ENDROOT
BRANCH   1  48
ATOM     48  C   LIG    1       -7.880 -10.530  -3.006  0.00  0.00    +0.027 C 
ATOM     49  C   LIG    1       -9.219  -9.911  -2.563  0.00  0.00    +0.011 C 
BRANCH  48  50
ATOM     50  C   LIG    1       -8.021 -11.651  -4.068  0.00  0.00    +0.010 C 
BRANCH  50  55
ATOM     51  C   LIG    1       -9.785 -13.787  -5.862  0.00  0.00    +0.147 C 
ATOM     52  C   LIG    1      -11.198 -13.213  -5.561  0.00  0.00    +0.147 C 
ATOM     53  C   LIG    1      -11.050 -12.048  -4.582  0.00  0.00    +0.034 C 
ATOM     54  C   LIG    1      -10.237 -10.954  -5.264  0.00  0.00    +0.006 C 
ATOM     55  C   LIG    1       -8.784 -11.397  -5.396  0.00  0.00    -0.008 C 
ATOM     56  C   LIG    1       -8.790 -12.670  -6.304  0.00  0.00    +0.037 C 
BRANCH  51  58
ATOM     57  C   LIG    1      -10.030 -15.486  -4.162  0.00  0.00    +0.194 C 
ATOM     58  O   LIG    1       -9.227 -14.442  -4.702  0.00  0.00    -0.377 OA
ENDBRANCH  51  58
BRANCH  52  59
ATOM     59  O   LIG    1      -11.891 -12.807  -6.752  0.00  0.00    -0.372 OA
BRANCH  59  60
ATOM     60  C   LIG    1      -13.237 -12.429  -6.432  0.00  0.00    +0.188 C 
BRANCH  60  61
ATOM     61  C   LIG    1      -14.022 -12.073  -7.673  0.00  0.00    +0.184 C 
BRANCH  61  62
ATOM     62  O   LIG    1      -15.321 -11.650  -7.276  0.00  0.00    -0.393 OA
ATOM     63  H   LIG    1      -15.766 -11.315  -8.072  0.00  0.00    +0.209 HD
ENDBRANCH  61  62
ENDBRANCH  60  61
ENDBRANCH  59  60
ENDBRANCH  52  59
ENDBRANCH  50  55
ENDBRANCH  48  50
ENDBRANCH   1  48
BRANCH  20  64
ATOM     64  O   LIG    1       -2.718 -10.323  -0.019  0.00  0.00    -0.375 OA
ATOM     65  C   LIG    1       -3.407  -9.141   0.321  0.00  0.00    +0.194 C 
ENDBRANCH  20  64
BRANCH  35  66
ATOM     66  O   LIG    1       -4.847 -15.945  -7.088  0.00  0.00    -0.369 OA
ATOM     67  C   LIG    1       -6.168 -16.369  -6.771  0.00  0.00    +0.195 C 
ENDBRANCH  35  66
BRANCH  36  68
ATOM     68  O   LIG    1       -2.915 -15.133  -4.127  0.00  0.00    -0.385 OA
ATOM     69  H   LIG    1       -3.095 -14.225  -3.811  0.00  0.00    +0.210 HD
ENDBRANCH  36  68
BRANCH  14  70
ATOM     70  O   LIG    1       -7.108 -10.669   2.086  0.00  0.00    -0.358 OA
ATOM     71  H   LIG    1       -8.070 -10.583   2.212  0.00  0.00    +0.213 HD
ENDBRANCH  14  70
TORSDOF 12
