REMARK  Name = *****
REMARK                            x       y       z     vdW  Elec       q    Type
REMARK                         _______ _______ _______ _____ _____    ______ ____
ROOT
ATOM      1  C   LIG    1        3.884   1.434   1.190  0.00  0.00    +0.022 C 
ENDROOT
BRANCH   1   2
ATOM      2  C   LIG    1        2.389   1.684   0.867  0.00  0.00    +0.051 C 
ATOM      3  C   LIG    1        1.479   1.310   2.040  0.00  0.00    +0.024 C 
BRANCH   2   5
ATOM      4  C   LIG    1        0.717   1.226  -0.866  0.00  0.00    +0.101 C 
ATOM      5  N   LIG    1        2.041   0.905  -0.340  0.00  0.00    -0.317 NA
ATOM      6  H   LIG    1        2.729   1.097  -1.069  0.00  0.00    +0.122 HD
ENDBRANCH   2   5
ENDBRANCH   1   2
BRANCH   1   7
ATOM      7  C   LIG    1        4.422   2.128   2.453  0.00  0.00    +0.029 C 
BRANCH   7   8
ATOM      8  C   LIG    1        4.306   3.629   2.397  0.00  0.00    -0.028 C 
ATOM      9  C   LIG    1        3.645   4.447   3.233  0.00  0.00    -0.080 C 
ATOM     10  C   LIG    1        3.593   5.930   2.964  0.00  0.00    +0.038 C 
ATOM     11  C   LIG    1        2.899   4.023   4.472  0.00  0.00    +0.038 C 
ENDBRANCH   7   8
ENDBRANCH   1   7
TORSDOF 4
