REMARK  Name = *****
REMARK                            x       y       z     vdW  Elec       q    Type
REMARK                         _______ _______ _______ _____ _____    ______ ____
ROOT
ATOM      1  C   LIG    1        3.300  -2.022  -0.003  0.00  0.00    +0.161 C 
ENDROOT
BRANCH   1   2
ATOM      2  C   LIG    1        2.737  -2.551   1.308  0.00  0.00    -0.018 A 
ATOM      3  C   LIG    1        3.255  -2.175   2.553  0.00  0.00    +0.006 A 
ATOM      4  C   LIG    1        2.690  -2.648   3.741  0.00  0.00    +0.000 A 
ATOM      5  C   LIG    1        1.586  -3.499   3.700  0.00  0.00    +0.000 A 
ATOM      6  C   LIG    1        1.045  -3.868   2.474  0.00  0.00    +0.000 A 
ATOM      7  C   LIG    1        1.608  -3.393   1.286  0.00  0.00    +0.006 A 
ENDBRANCH   1   2
BRANCH   1   9
ATOM      8  C   LIG    1        5.211  -1.184  -1.467  0.00  0.00    +0.027 C 
ATOM      9  C   LIG    1        4.849  -1.724  -0.067  0.00  0.00    +0.086 C 
BRANCH   9  10
ATOM     10  N   LIG    1        5.722  -2.844   0.376  0.00  0.00    -0.303 NA
ATOM     11  C   LIG    1        7.123  -2.445   0.526  0.00  0.00    +0.105 C 
ATOM     12  C   LIG    1        5.627  -4.037  -0.463  0.00  0.00    +0.105 C 
ENDBRANCH   9  10
ENDBRANCH   1   9
BRANCH   1  13
ATOM     13  O   LIG    1        2.586  -0.815  -0.319  0.00  0.00    -0.386 OA
ATOM     14  H   LIG    1        2.271  -0.437   0.521  0.00  0.00    +0.210 HD
ENDBRANCH   1  13
TORSDOF 4
