REMARK  Name = *****
REMARK                            x       y       z     vdW  Elec       q    Type
REMARK                         _______ _______ _______ _____ _____    ______ ____
ROOT
ATOM      1  C   LIG    1        3.883   2.059   1.292  0.00  0.00    +0.284 C 
ENDROOT
BRANCH   1   3
ATOM      2  O   LIG    1        3.861   0.971   3.950  0.00  0.00    -0.257 OA
ATOM      3  P   LIG    1        4.479   0.923   2.590  0.00  0.00    +0.356 P 
BRANCH   3   4
ATOM      4  O   LIG    1        4.423  -0.559   1.968  0.00  0.00    -0.323 OA
ATOM      5  H   LIG    1        4.548  -1.256   2.640  0.00  0.00    +0.220 HD
ENDBRANCH   3   4
BRANCH   3   6
ATOM      6  O   LIG    1        6.073   1.115   2.686  0.00  0.00    -0.323 OA
ATOM      7  H   LIG    1        6.467   0.675   3.459  0.00  0.00    +0.220 HD
ENDBRANCH   3   6
ENDBRANCH   1   3
BRANCH   1   8
ATOM      8  P   LIG    1        2.123   1.933   0.925  0.00  0.00    +0.356 P 
ATOM      9  O   LIG    1        1.573   0.637   0.432  0.00  0.00    -0.257 OA
BRANCH   8  10
ATOM     10  O   LIG    1        1.740   3.120  -0.094  0.00  0.00    -0.323 OA
ATOM     11  H   LIG    1        0.871   2.987  -0.513  0.00  0.00    +0.220 HD
ENDBRANCH   8  10
BRANCH   8  12
ATOM     12  O   LIG    1        1.332   2.463   2.215  0.00  0.00    -0.323 OA
ATOM     13  H   LIG    1        0.376   2.278   2.188  0.00  0.00    +0.220 HD
ENDBRANCH   8  12
ENDBRANCH   1   8
BRANCH   1  14
ATOM     14  N   LIG    1        4.706   1.700   0.092  0.00  0.00    -0.291 NA
ATOM     15  H   LIG    1        4.584   0.696  -0.078  0.00  0.00    +0.124 HD
BRANCH  14  16
ATOM     16  C   LIG    1        4.473   2.462  -1.142  0.00  0.00    +0.055 C 
ATOM     17  C   LIG    1        4.671   3.973  -0.931  0.00  0.00    +0.019 C 
ATOM     18  C   LIG    1        4.423   4.829  -2.174  0.00  0.00    +0.002 C 
ATOM     19  C   LIG    1        5.558   4.745  -3.186  0.00  0.00    +0.000 C 
ATOM     20  C   LIG    1        5.457   3.590  -4.174  0.00  0.00    +0.000 C 
ATOM     21  C   LIG    1        4.987   2.242  -3.638  0.00  0.00    +0.002 C 
ATOM     22  C   LIG    1        5.426   1.892  -2.216  0.00  0.00    +0.019 C 
ENDBRANCH  14  16
ENDBRANCH   1  14
TORSDOF 8
