REMARK  Name = *****
REMARK                            x       y       z     vdW  Elec       q    Type
REMARK                         _______ _______ _______ _____ _____    ______ ____
ROOT
ATOM      1  C   LIG    1        2.396  -1.963  -2.810  0.00  0.00    +0.122 A 
ATOM      2  C   LIG    1        2.176  -2.095  -4.185  0.00  0.00    +0.046 A 
ATOM      3  C   LIG    1        2.002  -3.360  -4.778  0.00  0.00    +0.007 A 
ATOM      4  C   LIG    1        2.013  -4.532  -4.008  0.00  0.00    -0.046 A 
ATOM      5  C   LIG    1        2.278  -4.399  -2.643  0.00  0.00    +0.007 A 
ATOM      6  C   LIG    1        2.459  -3.132  -2.055  0.00  0.00    +0.046 A 
ENDROOT
BRANCH   1   7
ATOM      7  O   LIG    1        2.526  -0.675  -2.359  0.00  0.00    -0.475 OA
BRANCH   7   9
ATOM      8  C   LIG    1        4.135  -0.920  -0.487  0.00  0.00    +0.067 C 
ATOM      9  C   LIG    1        2.788  -0.362  -0.982  0.00  0.00    +0.200 C 
ATOM     10  C   LIG    1        2.957   1.179  -0.920  0.00  0.00    +0.067 C 
BRANCH   9  11
ATOM     11  C   LIG    1        1.633  -0.716  -0.009  0.00  0.00    +0.348 C 
ATOM     12  O   LIG    1        1.735  -1.473   0.935  0.00  0.00    -0.246 OA
BRANCH  11  13
ATOM     13  O   LIG    1        0.461  -0.081  -0.280  0.00  0.00    -0.478 OA
ATOM     14  H   LIG    1        0.478   0.454  -1.097  0.00  0.00    +0.295 HD
ENDBRANCH  11  13
ENDBRANCH   9  11
ENDBRANCH   7   9
ENDBRANCH   1   7
BRANCH   4  15
ATOM     15  C   LIG    1        1.799  -5.889  -4.655  0.00  0.00    +0.054 C 
BRANCH  15  16
ATOM     16  C   LIG    1        0.598  -6.704  -4.140  0.00  0.00    +0.109 C 
BRANCH  16  17
ATOM     17  N   LIG    1        0.434  -7.975  -4.857  0.00  0.00    -0.311 N 
ATOM     18  H   LIG    1       -0.321  -8.036  -5.524  0.00  0.00    +0.149 HD
ATOM     19  C   LIG    1        1.157  -9.114  -4.546  0.00  0.00    +0.244 C 
ATOM     20  O   LIG    1        1.999  -9.147  -3.654  0.00  0.00    -0.270 OA
BRANCH  19  21
ATOM     21  C   LIG    1        0.858 -10.358  -5.336  0.00  0.00    +0.037 A 
ATOM     22  C   LIG    1        1.117 -11.611  -4.754  0.00  0.00    +0.014 A 
ATOM     23  C   LIG    1        0.862 -12.797  -5.459  0.00  0.00    +0.021 A 
ATOM     24  C   LIG    1        0.352 -12.736  -6.753  0.00  0.00    +0.041 A 
ATOM     25 CL   LIG    1        0.034 -14.187  -7.623  0.00  0.00    -0.084 Cl
ATOM     26  C   LIG    1        0.108 -11.501  -7.351  0.00  0.00    +0.021 A 
ATOM     27  C   LIG    1        0.365 -10.314  -6.649  0.00  0.00    +0.014 A 
ENDBRANCH  19  21
ENDBRANCH  16  17
ENDBRANCH  15  16
ENDBRANCH   4  15
TORSDOF 8
