REMARK  Name = *****
REMARK                            x       y       z     vdW  Elec       q    Type
REMARK                         _______ _______ _______ _____ _____    ______ ____
ROOT
ATOM      1  C   LIG    1        7.453   0.318  -4.102  0.00  0.00    +0.190 C 
ENDROOT
BRANCH   1   2
ATOM      2  C   LIG    1        8.174  -1.020  -4.354  0.00  0.00    -0.005 A 
ATOM      3  C   LIG    1        7.997  -1.735  -5.551  0.00  0.00    +0.007 A 
ATOM      4  C   LIG    1        8.679  -2.931  -5.795  0.00  0.00    +0.000 A 
ATOM      5  C   LIG    1        9.557  -3.441  -4.845  0.00  0.00    +0.000 A 
ATOM      6  C   LIG    1        9.746  -2.760  -3.648  0.00  0.00    +0.000 A 
ATOM      7  C   LIG    1        9.066  -1.562  -3.408  0.00  0.00    +0.007 A 
ENDBRANCH   1   2
BRANCH   1   8
ATOM      8  C   LIG    1        7.765   1.399  -5.171  0.00  0.00    +0.036 C 
ATOM      9  C   LIG    1        7.237   2.798  -4.803  0.00  0.00    +0.007 C 
ATOM     10  C   LIG    1        8.038   3.723  -5.701  0.00  0.00    +0.000 C 
ATOM     11  C   LIG    1        9.441   3.146  -5.638  0.00  0.00    +0.000 C 
ATOM     12  C   LIG    1        9.263   1.639  -5.448  0.00  0.00    +0.007 C 
ENDBRANCH   1   8
BRANCH   1  13
ATOM     13  C   LIG    1        5.900   0.108  -4.036  0.00  0.00    +0.344 C 
ATOM     14  O   LIG    1        5.237   0.250  -3.022  0.00  0.00    -0.247 OA
BRANCH  13  15
ATOM     15  O   LIG    1        5.383  -0.305  -5.245  0.00  0.00    -0.454 OA
BRANCH  15  19
ATOM     16  C   LIG    1        2.593  -3.147  -7.466  0.00  0.00    +0.192 C 
ATOM     17  N   LIG    1        3.820  -2.382  -6.987  0.00  0.00    +0.242 N 
ATOM     18  C   LIG    1        3.474  -0.896  -6.662  0.00  0.00    +0.178 C 
ATOM     19  C   LIG    1        3.979  -0.656  -5.229  0.00  0.00    +0.226 C 
ATOM     20  C   LIG    1        3.793  -2.019  -4.591  0.00  0.00    +0.101 C 
ATOM     21  C   LIG    1        4.301  -2.978  -5.652  0.00  0.00    +0.136 C 
ATOM     22  C   LIG    1        4.899  -2.466  -8.059  0.00  0.00    +0.192 C 
ENDBRANCH  15  19
ENDBRANCH  13  15
ENDBRANCH   1  13
BRANCH   1  23
ATOM     23  O   LIG    1        7.902   0.831  -2.836  0.00  0.00    -0.373 OA
ATOM     24  H   LIG    1        7.180   0.706  -2.191  0.00  0.00    +0.211 HD
ENDBRANCH   1  23
TORSDOF 6
