REMARK  Name = *****
REMARK                            x       y       z     vdW  Elec       q    Type
REMARK                         _______ _______ _______ _____ _____    ______ ____
ROOT
ATOM      1  N   LIG    1        3.073   0.348   1.553  0.00  0.00    -0.310 NA
ATOM      2  H   LIG    1        2.987  -0.672   1.513  0.00  0.00    +0.122 HD
ENDROOT
BRANCH   1   4
ATOM      3  C   LIG    1        2.633   2.485   0.379  0.00  0.00    +0.024 C 
ATOM      4  C   LIG    1        2.497   0.956   0.333  0.00  0.00    +0.055 C 
BRANCH   4   5
ATOM      5  C   LIG    1        1.006   0.515   0.217  0.00  0.00    +0.053 C 
BRANCH   5   6
ATOM      6  C   LIG    1        0.231   1.054  -0.972  0.00  0.00    -0.042 A 
ATOM      7  C   LIG    1       -0.921   1.835  -0.762  0.00  0.00    +0.053 A 
ATOM      8  C   LIG    1       -1.569   2.371  -1.852  0.00  0.00    +0.167 A 
ATOM      9  O   LIG    1       -2.655   3.189  -1.810  0.00  0.00    -0.453 OA
ATOM     10  C   LIG    1       -2.850   3.457  -3.213  0.00  0.00    +0.466 C 
ATOM     11  O   LIG    1       -1.912   2.758  -4.063  0.00  0.00    -0.453 OA
ATOM     12  C   LIG    1       -1.147   2.125  -3.139  0.00  0.00    +0.166 A 
ATOM     13  C   LIG    1       -0.062   1.315  -3.393  0.00  0.00    +0.050 A 
ATOM     14  C   LIG    1        0.631   0.777  -2.302  0.00  0.00    +0.007 A 
ENDBRANCH   5   6
ENDBRANCH   4   5
ENDBRANCH   1   4
BRANCH   1  15
ATOM     15  C   LIG    1        4.501   0.657   1.766  0.00  0.00    +0.117 C 
BRANCH  15  16
ATOM     16  C   LIG    1        5.059  -0.026   3.040  0.00  0.00    +0.158 C 
BRANCH  16  17
ATOM     17  C   LIG    1        6.509   0.336   3.307  0.00  0.00    -0.014 A 
ATOM     18  C   LIG    1        6.866   1.013   4.484  0.00  0.00    +0.055 A 
ATOM     19  C   LIG    1        8.198   1.328   4.721  0.00  0.00    +0.159 A 
ATOM     20  C   LIG    1        9.191   0.980   3.810  0.00  0.00    +0.158 A 
ATOM     21  C   LIG    1        8.862   0.311   2.639  0.00  0.00    +0.049 A 
ATOM     22  C   LIG    1        7.523  -0.011   2.392  0.00  0.00    +0.010 A 
BRANCH  19  23
ATOM     23  O   LIG    1        8.532   1.987   5.871  0.00  0.00    -0.503 OA
ATOM     24  H   LIG    1        9.501   2.105   5.813  0.00  0.00    +0.292 HD
ENDBRANCH  19  23
BRANCH  20  25
ATOM     25  O   LIG    1       10.481   1.315   4.115  0.00  0.00    -0.503 OA
ATOM     26  H   LIG    1       11.056   0.984   3.404  0.00  0.00    +0.292 HD
ENDBRANCH  20  25
ENDBRANCH  16  17
BRANCH  16  27
ATOM     27  O   LIG    1        4.952  -1.449   2.911  0.00  0.00    -0.386 OA
ATOM     28  H   LIG    1        5.540  -1.829   3.587  0.00  0.00    +0.210 HD
ENDBRANCH  16  27
ENDBRANCH  15  16
ENDBRANCH   1  15
TORSDOF 9
