REMARK  Name = *****
REMARK                            x       y       z     vdW  Elec       q    Type
REMARK                         _______ _______ _______ _____ _____    ______ ____
ROOT
ATOM      1  C   LIG    1        2.993  -0.904  -1.151  0.00  0.00    -0.037 C 
ATOM      2  C   LIG    1        2.045  -1.436  -1.962  0.00  0.00    -0.037 C 
ENDROOT
BRANCH   1   3
ATOM      3  C   LIG    1        4.429  -1.075  -1.457  0.00  0.00    -0.021 A 
ATOM      4  C   LIG    1        5.104  -0.113  -2.219  0.00  0.00    +0.012 A 
ATOM      5  C   LIG    1        6.462  -0.267  -2.505  0.00  0.00    +0.046 A 
ATOM      6  C   LIG    1        7.142  -1.385  -2.037  0.00  0.00    +0.117 A 
ATOM      7  C   LIG    1        6.486  -2.358  -1.289  0.00  0.00    +0.046 A 
ATOM      8  C   LIG    1        5.128  -2.201  -0.999  0.00  0.00    +0.012 A 
BRANCH   6   9
ATOM      9  O   LIG    1        8.468  -1.491  -2.336  0.00  0.00    -0.507 OA
ATOM     10  H   LIG    1        8.811  -2.308  -1.940  0.00  0.00    +0.292 HD
ENDBRANCH   6   9
ENDBRANCH   1   3
BRANCH   2  11
ATOM     11  C   LIG    1        0.610  -1.244  -1.671  0.00  0.00    -0.021 A 
ATOM     12  C   LIG    1       -0.064  -0.116  -2.158  0.00  0.00    +0.012 A 
ATOM     13  C   LIG    1       -1.423   0.062  -1.888  0.00  0.00    +0.046 A 
ATOM     14  C   LIG    1       -2.106  -0.887  -1.140  0.00  0.00    +0.117 A 
ATOM     15  C   LIG    1       -1.452  -2.012  -0.645  0.00  0.00    +0.046 A 
ATOM     16  C   LIG    1       -0.092  -2.187  -0.909  0.00  0.00    +0.012 A 
BRANCH  14  17
ATOM     17  O   LIG    1       -3.433  -0.680  -0.909  0.00  0.00    -0.507 OA
ATOM     18  H   LIG    1       -3.780  -1.434  -0.404  0.00  0.00    +0.292 HD
ENDBRANCH  14  17
ENDBRANCH   2  11
BRANCH   1  20
ATOM     19  C   LIG    1        2.592   1.336   0.013  0.00  0.00    +0.009 C 
ATOM     20  C   LIG    1        2.728  -0.175   0.157  0.00  0.00    +0.033 C 
ENDBRANCH   1  20
BRANCH   2  21
ATOM     21  C   LIG    1        2.309  -2.205  -3.246  0.00  0.00    +0.033 C 
ATOM     22  C   LIG    1        2.353  -3.715  -3.030  0.00  0.00    +0.009 C 
ENDBRANCH   2  21
TORSDOF 6
