REMARK  Name = *****
REMARK                            x       y       z     vdW  Elec       q    Type
REMARK                         _______ _______ _______ _____ _____    ______ ____
ROOT
ATOM      1  C   LIG    1        2.867   1.450  -0.053  0.00  0.00    +0.304 C 
ATOM      2  O   LIG    1        3.134   2.180   0.889  0.00  0.00    -0.251 OA
ENDROOT
BRANCH   1   4
ATOM      3  C   LIG    1        0.969  -0.161  -0.013  0.00  0.00    +0.015 C 
ATOM      4  C   LIG    1        2.472   0.003   0.086  0.00  0.00    +0.117 C 
ENDBRANCH   1   4
BRANCH   1   5
ATOM      5  O   LIG    1        2.880   1.881  -1.334  0.00  0.00    -0.481 OA
ATOM      6  H   LIG    1        2.638   1.194  -1.984  0.00  0.00    +0.295 HD
ENDBRANCH   1   5
TORSDOF 2
