REMARK  Name = *****
REMARK                            x       y       z     vdW  Elec       q    Type
REMARK                         _______ _______ _______ _____ _____    ______ ____
ROOT
ATOM      1  C   LIG    1        5.394  -0.211  -3.715  0.00  0.00    +0.245 C 
ATOM      2  N   LIG    1        5.485  -1.563  -3.677  0.00  0.00    -0.307 N 
ATOM      3  H   LIG    1        5.359  -2.104  -2.820  0.00  0.00    +0.149 HD
ATOM      4  O   LIG    1        5.446   0.447  -4.742  0.00  0.00    -0.270 OA
ENDROOT
BRANCH   1   9
ATOM      5  C   LIG    1        4.860   2.543  -1.167  0.00  0.00    +0.166 A 
ATOM      6  C   LIG    1        4.622   1.817   0.032  0.00  0.00    +0.203 A 
ATOM      7  C   LIG    1        4.649   0.410  -0.002  0.00  0.00    +0.166 A 
ATOM      8  C   LIG    1        5.031  -0.243  -1.177  0.00  0.00    +0.062 A 
ATOM      9  C   LIG    1        5.172   0.458  -2.376  0.00  0.00    +0.044 A 
ATOM     10  C   LIG    1        5.067   1.850  -2.354  0.00  0.00    +0.062 A 
BRANCH   5  12
ATOM     11  C   LIG    1        5.133   4.716  -2.223  0.00  0.00    +0.277 C 
ATOM     12  O   LIG    1        4.858   3.913  -1.077  0.00  0.00    -0.491 OA
ENDBRANCH   5  12
BRANCH   6  13
ATOM     13  O   LIG    1        4.304   2.585   1.129  0.00  0.00    -0.488 OA
ATOM     14  C   LIG    1        4.484   2.021   2.422  0.00  0.00    +0.277 C 
ENDBRANCH   6  13
BRANCH   7  15
ATOM     15  O   LIG    1        4.279  -0.325   1.099  0.00  0.00    -0.491 OA
ATOM     16  C   LIG    1        3.700  -1.606   0.824  0.00  0.00    +0.277 C 
ENDBRANCH   7  15
ENDBRANCH   1   9
BRANCH   2  17
ATOM     17  C   LIG    1        5.654  -2.349  -4.874  0.00  0.00    +0.140 C 
BRANCH  17  18
ATOM     18  C   LIG    1        5.740  -3.815  -4.540  0.00  0.00    -0.030 A 
ATOM     19  C   LIG    1        4.653  -4.459  -3.929  0.00  0.00    +0.009 A 
ATOM     20  C   LIG    1        4.702  -5.823  -3.629  0.00  0.00    +0.046 A 
ATOM     21  C   LIG    1        5.852  -6.564  -3.895  0.00  0.00    +0.121 A 
ATOM     22  C   LIG    1        6.939  -5.927  -4.503  0.00  0.00    +0.046 A 
ATOM     23  C   LIG    1        6.886  -4.564  -4.824  0.00  0.00    +0.009 A 
BRANCH  21  24
ATOM     24  O   LIG    1        6.023  -7.893  -3.604  0.00  0.00    -0.491 OA
BRANCH  24  25
ATOM     25  C   LIG    1        4.940  -8.543  -2.918  0.00  0.00    +0.244 C 
BRANCH  25  26
ATOM     26  C   LIG    1        5.349  -9.991  -2.579  0.00  0.00    +0.124 C 
BRANCH  26  27
ATOM     27  N   LIG    1        4.321 -10.810  -1.895  0.00  0.00    -0.305 NA
ATOM     28  C   LIG    1        4.873 -12.143  -1.611  0.00  0.00    +0.104 C 
ATOM     29  C   LIG    1        3.114 -10.957  -2.712  0.00  0.00    +0.104 C 
ENDBRANCH  26  27
ENDBRANCH  25  26
ENDBRANCH  24  25
ENDBRANCH  21  24
ENDBRANCH  17  18
ENDBRANCH   2  17
TORSDOF 10
