REMARK  Name = *****
REMARK                            x       y       z     vdW  Elec       q    Type
REMARK                         _______ _______ _______ _____ _____    ______ ____
ROOT
ATOM      1  C   LIG    1        3.512   2.746   1.582  0.00  0.00    +0.009 A 
ATOM      2  C   LIG    1        2.284   1.892   1.459  0.00  0.00    +0.062 A 
ATOM      3  C   LIG    1        1.971   1.034   2.511  0.00  0.00    +0.137 A 
ATOM      4  N   LIG    1        2.596   0.903   3.685  0.00  0.00    -0.238 NA
ATOM      5  C   LIG    1        3.668   1.650   3.842  0.00  0.00    +0.122 A 
ATOM      6  C   LIG    1        4.165   2.490   2.829  0.00  0.00    +0.054 A 
ENDROOT
BRANCH   1   9
ATOM      7  C   LIG    1        2.829   4.492  -1.523  0.00  0.00    +0.044 C 
ATOM      8  C   LIG    1        4.050   4.467  -0.684  0.00  0.00    -0.043 A 
ATOM      9  C   LIG    1        4.315   3.868   0.618  0.00  0.00    -0.013 A 
ATOM     10  C   LIG    1        5.531   4.416   1.109  0.00  0.00    +0.009 A 
ATOM     11  C   LIG    1        6.423   5.216   0.346  0.00  0.00    +0.001 A 
ATOM     12  C   LIG    1        6.149   5.581  -0.953  0.00  0.00    +0.000 A 
ATOM     13  C   LIG    1        4.951   5.217  -1.456  0.00  0.00    +0.004 A 
ENDBRANCH   1   9
BRANCH   5  14
ATOM     14  N   LIG    1        4.371   1.532   5.047  0.00  0.00    -0.305 N 
ATOM     15  C   LIG    1        5.449   0.598   4.792  0.00  0.00    +0.157 C 
ATOM     16  C   LIG    1        6.253   0.483   6.051  0.00  0.00    +0.154 C 
ATOM     17  N   LIG    1        5.557   0.054   7.316  0.00  0.00    +0.263 N 
ATOM     18  C   LIG    1        5.078  -1.379   7.213  0.00  0.00    +0.195 C 
ATOM     19  C   LIG    1        4.383   1.044   7.513  0.00  0.00    +0.154 C 
ATOM     20  C   LIG    1        3.523   1.181   6.217  0.00  0.00    +0.157 C 
BRANCH  17  21
ATOM     21  C   LIG    1        6.579   0.165   8.459  0.00  0.00    +0.318 C 
BRANCH  21  22
ATOM     22  O   LIG    1        7.701  -0.680   8.410  0.00  0.00    -0.245 OA
BRANCH  22  23
ATOM     23  P   LIG    1        8.838  -0.595   7.295  0.00  0.00    +0.476 P 
ATOM     24  O   LIG    1        8.837  -1.737   6.340  0.00  0.00    -0.227 OA
BRANCH  23  25
ATOM     25  O   LIG    1       10.227  -0.335   7.995  0.00  0.00    -0.302 OA
ATOM     26  H   LIG    1       10.949  -0.576   7.384  0.00  0.00    +0.222 HD
ENDBRANCH  23  25
BRANCH  23  27
ATOM     27  O   LIG    1        8.688   0.787   6.505  0.00  0.00    -0.302 OA
ATOM     28  H   LIG    1        8.830   0.664   5.540  0.00  0.00    +0.222 HD
ENDBRANCH  23  27
ENDBRANCH  22  23
ENDBRANCH  21  22
ENDBRANCH  17  21
ENDBRANCH   5  14
BRANCH   2  29
ATOM     29  N   LIG    1        1.372   1.789   0.333  0.00  0.00    -0.272 N 
ATOM     30  C   LIG    1        0.146   1.096   0.184  0.00  0.00    +0.230 C 
ATOM     31  O   LIG    1       -0.288   0.381   1.018  0.00  0.00    -0.274 OA
ATOM     32  C   LIG    1        1.633   2.603  -0.682  0.00  0.00    +0.138 C 
BRANCH  30  33
ATOM     33  C   LIG    1       -0.651   1.226  -1.226  0.00  0.00    +0.067 C 
ATOM     34  C   LIG    1       -0.733   2.586  -1.994  0.00  0.00    +0.025 C 
ATOM     35  C   LIG    1       -2.119   1.007  -0.782  0.00  0.00    +0.025 C 
BRANCH  33  36
ATOM     36  C   LIG    1       -0.166   0.139  -2.218  0.00  0.00    -0.032 A 
ATOM     37  C   LIG    1        1.197  -0.114  -2.465  0.00  0.00    +0.017 A 
ATOM     38  C   LIG    1        1.639  -1.075  -3.388  0.00  0.00    +0.056 A 
ATOM     39  C   LIG    1        0.689  -1.826  -4.081  0.00  0.00    +0.024 A 
ATOM     40  C   LIG    1       -0.677  -1.603  -3.873  0.00  0.00    +0.056 A 
ATOM     41  C   LIG    1       -1.084  -0.621  -2.955  0.00  0.00    +0.017 A 
BRANCH  38  42
ATOM     42  C   LIG    1        3.123  -1.276  -3.579  0.00  0.00    +0.417 C 
ATOM     43  F   LIG    1        3.734  -1.701  -2.437  0.00  0.00    -0.166 F 
ATOM     44  F   LIG    1        3.758  -0.120  -3.925  0.00  0.00    -0.166 F 
ATOM     45  F   LIG    1        3.438  -2.184  -4.539  0.00  0.00    -0.166 F 
ENDBRANCH  38  42
BRANCH  40  46
ATOM     46  C   LIG    1       -1.722  -2.434  -4.578  0.00  0.00    +0.417 C 
ATOM     47  F   LIG    1       -2.136  -3.482  -3.816  0.00  0.00    -0.166 F 
ATOM     48  F   LIG    1       -1.281  -2.963  -5.749  0.00  0.00    -0.166 F 
ATOM     49  F   LIG    1       -2.843  -1.723  -4.884  0.00  0.00    -0.166 F 
ENDBRANCH  40  46
ENDBRANCH  33  36
ENDBRANCH  30  33
ENDBRANCH   2  29
TORSDOF 12
