REMARK  Name = *****
REMARK                            x       y       z     vdW  Elec       q    Type
REMARK                         _______ _______ _______ _____ _____    ______ ____
ROOT
ATOM      1  C   LIG    1        9.750   8.306   1.342  0.00  0.00    +0.080 C 
ENDROOT
BRANCH   1   2
ATOM      2  N   LIG    1        9.722   9.747   1.072  0.00  0.00    -0.325 NA
ATOM      3  H   LIG    1        8.908  10.130   1.557  0.00  0.00    +0.118 HD
ATOM      4  H   LIG    1       10.511  10.228   1.487  0.00  0.00    +0.118 HD
ENDBRANCH   1   2
BRANCH   1   5
ATOM      5  C   LIG    1       11.192   7.808   1.214  0.00  0.00    +0.132 C 
BRANCH   5   6
ATOM      6  O   LIG    1       11.533   7.944  -0.178  0.00  0.00    -0.390 OA
ATOM      7  H   LIG    1       10.902   8.611  -0.527  0.00  0.00    +0.210 HD
ENDBRANCH   5   6
BRANCH   5   8
ATOM      8  C   LIG    1       12.258   8.593   2.012  0.00  0.00    +0.046 C 
BRANCH   8   9
ATOM      9  C   LIG    1       12.289   8.651   3.566  0.00  0.00    +0.080 C 
BRANCH   9  10
ATOM     10  C   LIG    1       10.942   9.095   4.301  0.00  0.00    +0.216 C 
ATOM     11  N   LIG    1       10.673  10.478   4.389  0.00  0.00    -0.314 N 
ATOM     12  H   LIG    1       11.461  11.085   4.272  0.00  0.00    +0.149 HD
ATOM     13  O   LIG    1       10.216   8.273   4.734  0.00  0.00    -0.276 OA
BRANCH  11  14
ATOM     14  C   LIG    1        9.503  11.108   5.125  0.00  0.00    +0.119 C 
BRANCH  14  15
ATOM     15  C   LIG    1        8.062  11.002   4.498  0.00  0.00    +0.057 C 
ATOM     16  C   LIG    1        6.910  11.748   5.252  0.00  0.00    +0.022 C 
ATOM     17  C   LIG    1        7.585   9.547   4.474  0.00  0.00    +0.022 C 
BRANCH  15  18
ATOM     18  C   LIG    1        8.030  11.589   3.107  0.00  0.00    +0.218 C 
ATOM     19  O   LIG    1        6.935  11.566   2.383  0.00  0.00    -0.275 OA
ATOM     20  N   LIG    1        9.098  12.101   2.513  0.00  0.00    -0.329 N 
ATOM     21  H   LIG    1        9.011  12.421   1.555  0.00  0.00    +0.145 HD
ATOM     22  H   LIG    1        9.903  12.437   3.037  0.00  0.00    +0.145 HD
ENDBRANCH  15  18
ENDBRANCH  14  15
ENDBRANCH  11  14
ENDBRANCH   9  10
BRANCH   9  23
ATOM     23  C   LIG    1       13.529   9.509   4.004  0.00  0.00    -0.005 C 
ATOM     24  C   LIG    1       14.854   9.154   3.303  0.00  0.00    +0.008 C 
ATOM     25  C   LIG    1       13.772   9.472   5.517  0.00  0.00    +0.008 C 
ENDBRANCH   9  23
ENDBRANCH   8   9
ENDBRANCH   5   8
ENDBRANCH   1   5
BRANCH   1  26
ATOM     26  C   LIG    1        8.704   7.806   0.294  0.00  0.00    +0.025 C 
BRANCH  26  27
ATOM     27  C   LIG    1        8.538   6.300   0.095  0.00  0.00    -0.002 C 
BRANCH  27  28
ATOM     28  C   LIG    1        7.085   5.986  -0.404  0.00  0.00    -0.014 C 
ATOM     29  C   LIG    1        6.946   5.829  -1.908  0.00  0.00    +0.007 C 
ATOM     30  C   LIG    1        5.787   6.547   0.273  0.00  0.00    +0.007 C 
ENDBRANCH  27  28
BRANCH  27  31
ATOM     31  C   LIG    1        9.608   5.206  -0.443  0.00  0.00    +0.039 C 
BRANCH  31  36
ATOM     32  C   LIG    1        8.281   1.438  -0.354  0.00  0.00    +0.162 A 
ATOM     33  C   LIG    1        9.477   0.744  -0.444  0.00  0.00    +0.162 A 
ATOM     34  C   LIG    1       10.670   1.495  -0.476  0.00  0.00    +0.050 A 
ATOM     35  C   LIG    1       10.677   2.894  -0.329  0.00  0.00    +0.007 A 
ATOM     36  C   LIG    1        9.494   3.626  -0.427  0.00  0.00    -0.043 A 
ATOM     37  C   LIG    1        8.361   2.810  -0.651  0.00  0.00    +0.053 A 
BRANCH  33  38
ATOM     38  O   LIG    1        9.456  -0.620  -0.593  0.00  0.00    -0.491 OA
ATOM     39  C   LIG    1       10.675  -1.252  -0.212  0.00  0.00    +0.277 C 
ENDBRANCH  33  38
BRANCH  32  40
ATOM     40  O   LIG    1        7.039   0.851  -0.192  0.00  0.00    -0.488 OA
BRANCH  40  41
ATOM     41  C   LIG    1        6.234   1.214   0.987  0.00  0.00    +0.231 C 
BRANCH  41  42
ATOM     42  C   LIG    1        5.465   2.526   0.985  0.00  0.00    +0.069 C 
BRANCH  42  43
ATOM     43  C   LIG    1        6.323   3.655   1.405  0.00  0.00    +0.163 C 
BRANCH  43  45
ATOM     44  C   LIG    1        7.869   4.902   2.541  0.00  0.00    +0.193 C 
ATOM     45  O   LIG    1        6.820   3.941   2.705  0.00  0.00    -0.383 OA
ENDBRANCH  43  45
ENDBRANCH  42  43
ENDBRANCH  41  42
ENDBRANCH  40  41
ENDBRANCH  32  40
ENDBRANCH  31  36
ENDBRANCH  27  31
ENDBRANCH  26  27
ENDBRANCH   1  26
TORSDOF 21
