REMARK  Name = *****
REMARK                            x       y       z     vdW  Elec       q    Type
REMARK                         _______ _______ _______ _____ _____    ______ ____
ROOT
ATOM      1  C   LIG    1        7.846  -4.215   5.844  0.00  0.00    +0.210 C 
ATOM      2  C   LIG    1        8.477  -3.553   7.283  0.00  0.00    +0.126 C 
ATOM      3  C   LIG    1        7.696  -4.171   8.445  0.00  0.00    +0.048 C 
ATOM      4  C   LIG    1        8.736  -1.953   7.616  0.00  0.00    +0.158 C 
ATOM      5  C   LIG    1        8.357  -1.318   8.971  0.00  0.00    +0.065 C 
ATOM      6  C   LIG    1        9.564  -0.597   9.459  0.00  0.00    +0.016 C 
ATOM      7  C   LIG    1        7.212  -0.214   9.095  0.00  0.00    +0.066 C 
ATOM      8  N   LIG    1        7.442   0.909   8.448  0.00  0.00    -0.091 NA
ATOM      9  C   LIG    1        5.973  -0.652   9.996  0.00  0.00    +0.037 C 
ATOM     10  C   LIG    1        6.481  -1.374  11.189  0.00  0.00    +0.014 C 
ATOM     11  C   LIG    1        4.935  -1.516   9.224  0.00  0.00    +0.046 C 
ATOM     12  C   LIG    1        3.655  -2.276   9.491  0.00  0.00    +0.090 C 
ATOM     13  C   LIG    1        4.108  -3.656   9.795  0.00  0.00    +0.044 C 
ATOM     14  C   LIG    1        2.461  -2.427   8.264  0.00  0.00    +0.158 C 
ATOM     15  C   LIG    1        2.480  -1.945   6.446  0.00  0.00    +0.047 C 
ATOM     16  C   LIG    1        2.794  -0.377   5.876  0.00  0.00    +0.013 C 
ATOM     17  C   LIG    1        3.030  -2.676   5.203  0.00  0.00    +0.140 C 
ATOM     18  C   LIG    1        4.206  -3.531   5.699  0.00  0.00    +0.124 C 
ATOM     19  C   LIG    1        3.868  -4.934   6.138  0.00  0.00    +0.022 C 
ATOM     20  C   LIG    1        5.495  -3.569   5.061  0.00  0.00    +0.313 C 
ATOM     21  O   LIG    1        5.835  -2.643   3.864  0.00  0.00    -0.250 OA
ATOM     22  O   LIG    1        6.366  -4.202   5.762  0.00  0.00    -0.458 OA
ENDROOT
BRANCH   1  24
ATOM     23  C   LIG    1        7.817  -6.368   4.402  0.00  0.00    +0.007 C 
ATOM     24  C   LIG    1        8.286  -5.703   5.697  0.00  0.00    +0.044 C 
ENDBRANCH   1  24
BRANCH  12  25
ATOM     25  O   LIG    1        3.166  -1.697  10.712  0.00  0.00    -0.386 OA
ATOM     26  H   LIG    1        2.804  -0.812  10.537  0.00  0.00    +0.210 HD
ENDBRANCH  12  25
BRANCH   4  27
ATOM     27  O   LIG    1       10.080  -1.589   7.136  0.00  0.00    -0.388 OA
ATOM     28  H   LIG    1       10.074  -0.961   6.388  0.00  0.00    +0.210 HD
ENDBRANCH   4  27
BRANCH   2  29
ATOM     29  O   LIG    1        9.840  -4.057   7.346  0.00  0.00    -0.383 OA
ATOM     30  H   LIG    1       10.383  -3.328   6.969  0.00  0.00    +0.210 HD
ENDBRANCH   2  29
BRANCH  14  31
ATOM     31  O   LIG    1        1.187  -3.167   8.676  0.00  0.00    -0.342 OA
BRANCH  31  32
ATOM     32  C   LIG    1       -0.015  -2.377   9.290  0.00  0.00    +0.281 C 
ATOM     33  C   LIG    1        0.246  -1.263  10.389  0.00  0.00    +0.187 C 
ATOM     34  C   LIG    1        0.339   0.182   9.875  0.00  0.00    +0.092 C 
ATOM     35  C   LIG    1       -0.979   0.536   9.213  0.00  0.00    +0.053 C 
ATOM     36  C   LIG    1       -1.769  -0.712   8.629  0.00  0.00    +0.120 C 
ATOM     37  C   LIG    1       -2.886  -0.430   7.584  0.00  0.00    +0.038 C 
ATOM     38  O   LIG    1       -1.023  -1.931   8.307  0.00  0.00    -0.346 OA
BRANCH  34  39
ATOM     39  N   LIG    1        1.213   0.571   8.839  0.00  0.00    -0.303 NA
ATOM     40  C   LIG    1        2.574   0.879   9.009  0.00  0.00    +0.105 C 
ATOM     41  C   LIG    1        0.959  -0.168   7.669  0.00  0.00    +0.105 C 
ENDBRANCH  34  39
BRANCH  33  42
ATOM     42  O   LIG    1       -0.896  -1.233  11.286  0.00  0.00    -0.385 OA
ATOM     43  H   LIG    1       -0.618  -0.763  12.090  0.00  0.00    +0.210 HD
ENDBRANCH  33  42
ENDBRANCH  31  32
ENDBRANCH  14  31
BRANCH  17  44
ATOM     44  O   LIG    1        1.953  -3.245   4.424  0.00  0.00    -0.347 OA
BRANCH  44  45
ATOM     45  C   LIG    1        0.798  -2.480   3.877  0.00  0.00    +0.254 C 
ATOM     46  O   LIG    1        1.000  -1.597   2.782  0.00  0.00    -0.346 OA
ATOM     47  C   LIG    1        1.417  -0.254   3.061  0.00  0.00    +0.150 C 
ATOM     48  C   LIG    1        1.201   0.478   1.753  0.00  0.00    +0.040 C 
ATOM     49  C   LIG    1        0.689   0.586   4.185  0.00  0.00    +0.175 C 
ATOM     50  C   LIG    1       -0.511  -0.202   4.742  0.00  0.00    +0.099 C 
ATOM     51  C   LIG    1       -1.625   0.325   3.831  0.00  0.00    +0.044 C 
ATOM     52  C   LIG    1       -0.373  -1.847   4.712  0.00  0.00    +0.098 C 
BRANCH  50  53
ATOM     53  O   LIG    1       -0.922   0.232   6.030  0.00  0.00    -0.374 OA
ATOM     54  C   LIG    1       -1.158   1.613   6.345  0.00  0.00    +0.195 C 
ENDBRANCH  50  53
BRANCH  49  55
ATOM     55  O   LIG    1        1.175   1.709   4.963  0.00  0.00    -0.386 OA
ATOM     56  H   LIG    1        2.090   1.772   5.265  0.00  0.00    +0.210 HD
ENDBRANCH  49  55
ENDBRANCH  44  45
ENDBRANCH  17  44
BRANCH   8  57
ATOM     57  O   LIG    1        6.549   1.992   8.364  0.00  0.00    -0.365 OA
BRANCH  57  58
ATOM     58  C   LIG    1        5.205   1.631   8.239  0.00  0.00    +0.426 C 
BRANCH  58  59
ATOM     59  O   LIG    1        4.830   0.849   7.128  0.00  0.00    -0.340 OA
BRANCH  59  60
ATOM     60  C   LIG    1        5.331  -0.444   6.850  0.00  0.00    +0.192 C 
BRANCH  60  61
ATOM     61  C   LIG    1        6.340  -0.404   5.822  0.00  0.00    +0.187 C 
BRANCH  61  62
ATOM     62  O   LIG    1        6.981  -1.644   5.730  0.00  0.00    -0.381 OA
ATOM     63  C   LIG    1        8.194  -1.382   5.056  0.00  0.00    +0.194 C 
ENDBRANCH  61  62
ENDBRANCH  60  61
ENDBRANCH  59  60
ENDBRANCH  58  59
ENDBRANCH  57  58
ENDBRANCH   8  57
TORSDOF 18
