REMARK  Name = *****
REMARK                            x       y       z     vdW  Elec       q    Type
REMARK                         _______ _______ _______ _____ _____    ______ ____
ROOT
ATOM      1  C   LIG    1        0.957   0.312  -0.011  0.00  0.00    +0.149 C 
ATOM      2  N   LIG    1        2.411   0.135  -0.116  0.00  0.00    -0.349 N 
ATOM      3  C   LIG    1        3.022  -1.155  -0.166  0.00  0.00    +0.063 C 
ATOM      4  C   LIG    1        2.442  -2.380  -0.126  0.00  0.00    +0.183 C 
ATOM      5  C   LIG    1        4.500  -1.158  -0.276  0.00  0.00    +0.027 C 
ATOM      6  C   LIG    1        5.217  -0.024  -0.324  0.00  0.00    +0.003 C 
ATOM      7  C   LIG    1        4.553   1.254  -0.267  0.00  0.00    +0.018 C 
ATOM      8  C   LIG    1        3.217   1.277  -0.169  0.00  0.00    +0.086 C 
ENDROOT
BRANCH   4   9
ATOM      9  N   LIG    1        1.134  -2.616  -0.028  0.00  0.00    -0.036 NA
ATOM     10  O   LIG    1        0.838  -3.816  -0.007  0.00  0.00    -0.144 OA
ENDBRANCH   4   9
TORSDOF 1
