REMARK  Name = *****
REMARK                            x       y       z     vdW  Elec       q    Type
REMARK                         _______ _______ _______ _____ _____    ______ ____
ROOT
ATOM      1  C   LIG    1        2.578   2.889   3.795  0.00  0.00    +0.050 C 
ATOM      2  C   LIG    1        3.430   4.149   3.907  0.00  0.00    -0.037 A 
ATOM      3  C   LIG    1        3.287   5.210   2.981  0.00  0.00    -0.043 A 
ATOM      4  C   LIG    1        4.170   6.305   3.073  0.00  0.00    +0.004 A 
ATOM      5  C   LIG    1        5.115   6.401   4.096  0.00  0.00    +0.000 A 
ATOM      6  C   LIG    1        5.179   5.412   5.063  0.00  0.00    +0.000 A 
ATOM      7  C   LIG    1        2.196   5.328   1.925  0.00  0.00    +0.040 C 
ATOM      8  C   LIG    1        1.030   4.328   1.830  0.00  0.00    +0.040 C 
ATOM      9  C   LIG    1        0.392   3.978   3.154  0.00  0.00    -0.043 A 
ATOM     10  C   LIG    1       -0.915   4.390   3.444  0.00  0.00    +0.004 A 
ATOM     11  C   LIG    1       -1.479   4.119   4.689  0.00  0.00    +0.000 A 
ATOM     12  C   LIG    1       -0.742   3.438   5.657  0.00  0.00    +0.000 A 
ATOM     13  C   LIG    1        0.555   3.009   5.375  0.00  0.00    +0.004 A 
ATOM     14  C   LIG    1        4.336   4.311   4.975  0.00  0.00    +0.004 A 
ATOM     15  C   LIG    1        1.132   3.256   4.121  0.00  0.00    -0.037 A 
ENDROOT
BRANCH   1  16
ATOM     16  C   LIG    1        3.111   1.596   4.490  0.00  0.00    +0.017 C 
BRANCH  16  18
ATOM     17  C   LIG    1        4.616   0.904   2.524  0.00  0.00    +0.009 C 
ATOM     18  C   LIG    1        4.527   1.132   4.042  0.00  0.00    +0.001 C 
BRANCH  18  19
ATOM     19  C   LIG    1        4.968  -0.172   4.760  0.00  0.00    +0.087 C 
BRANCH  19  20
ATOM     20  N   LIG    1        4.960  -0.158   6.236  0.00  0.00    -0.308 NA
ATOM     21  C   LIG    1        5.848   0.862   6.797  0.00  0.00    +0.104 C 
ATOM     22  C   LIG    1        5.359  -1.477   6.740  0.00  0.00    +0.104 C 
ENDBRANCH  19  20
ENDBRANCH  18  19
ENDBRANCH  16  18
ENDBRANCH   1  16
TORSDOF 4
