REMARK  Name = *****
REMARK                            x       y       z     vdW  Elec       q    Type
REMARK                         _______ _______ _______ _____ _____    ______ ____
ROOT
ATOM      1  N   LIG    1        5.867   1.361  -6.007  0.00  0.00    +0.251 N 
ATOM      2  C   LIG    1        5.841   2.450  -4.881  0.00  0.00    +0.162 C 
ATOM      3  C   LIG    1        4.566   2.395  -4.026  0.00  0.00    +0.210 C 
ATOM      4  O   LIG    1        4.410   1.104  -3.440  0.00  0.00    -0.369 OA
ATOM      5  C   LIG    1        4.246   0.102  -4.444  0.00  0.00    +0.210 C 
ATOM      6  C   LIG    1        5.470   0.011  -5.371  0.00  0.00    +0.162 C 
ENDROOT
BRANCH   1   7
ATOM      7  C   LIG    1        7.329   1.246  -6.618  0.00  0.00    +0.171 C 
BRANCH   7  11
ATOM      8  C   LIG    1       10.665  -0.033  -4.065  0.00  0.00    +0.163 A 
ATOM      9  C   LIG    1        9.945  -0.986  -4.827  0.00  0.00    +0.162 A 
ATOM     10  C   LIG    1        8.906  -0.525  -5.657  0.00  0.00    +0.059 A 
ATOM     11  C   LIG    1        8.498   0.833  -5.726  0.00  0.00    +0.015 A 
ATOM     12  C   LIG    1        9.278   1.754  -4.990  0.00  0.00    +0.030 A 
ATOM     13 BR   LIG    1        9.041   3.636  -5.094  0.00  0.00    -0.050 Br
ATOM     14  C   LIG    1       10.318   1.316  -4.174  0.00  0.00    +0.065 A 
BRANCH   8  16
ATOM     15  C   LIG    1       12.587  -1.263  -3.393  0.00  0.00    +0.277 C 
ATOM     16  O   LIG    1       11.637  -0.245  -3.139  0.00  0.00    -0.491 OA
ENDBRANCH   8  16
BRANCH   9  17
ATOM     17  O   LIG    1       10.289  -2.307  -4.738  0.00  0.00    -0.491 OA
ATOM     18  C   LIG    1        9.316  -3.294  -5.111  0.00  0.00    +0.277 C 
ENDBRANCH   9  17
ENDBRANCH   7  11
ENDBRANCH   1   7
BRANCH   1  19
ATOM     19  C   LIG    1        4.871   1.866  -7.111  0.00  0.00    +0.162 C 
BRANCH  19  20
ATOM     20  C   LIG    1        4.660   1.011  -8.378  0.00  0.00    +0.210 C 
BRANCH  20  21
ATOM     21  O   LIG    1        5.818   0.932  -9.216  0.00  0.00    -0.374 OA
BRANCH  21  22
ATOM     22  C   LIG    1        5.520   0.202 -10.431  0.00  0.00    +0.160 C 
BRANCH  22  23
ATOM     23  C   LIG    1        6.759   0.152 -11.333  0.00  0.00    +0.032 C 
BRANCH  23  24
ATOM     24  C   LIG    1        6.593  -0.493 -12.735  0.00  0.00    -0.005 C 
ATOM     25  C   LIG    1        6.271  -1.999 -12.667  0.00  0.00    -0.002 C 
ATOM     26  C   LIG    1        6.319  -2.748 -14.081  0.00  0.00    -0.029 C 
ATOM     27  C   LIG    1        4.870  -2.139 -14.240  0.00  0.00    -0.005 C 
ATOM     28  C   LIG    1        4.842  -0.662 -14.659  0.00  0.00    +0.004 C 
ATOM     29  C   LIG    1        6.420  -4.283 -13.969  0.00  0.00    +0.011 C 
ATOM     30  C   LIG    1        7.314  -2.313 -15.165  0.00  0.00    +0.011 C 
ATOM     31  C   LIG    1        4.733  -2.281 -12.698  0.00  0.00    +0.008 C 
ATOM     32  C   LIG    1        5.554   0.232 -13.624  0.00  0.00    +0.004 C 
ENDBRANCH  23  24
ENDBRANCH  22  23
ENDBRANCH  21  22
ENDBRANCH  20  21
ENDBRANCH  19  20
ENDBRANCH   1  19
TORSDOF 10
