REMARK  Name = *****
REMARK                            x       y       z     vdW  Elec       q    Type
REMARK                         _______ _______ _______ _____ _____    ______ ____
ROOT
ATOM      1 CL   LIG    1       -0.144   0.295   0.745  0.00  0.00    -0.082 Cl
ATOM      2  C   LIG    1        1.553   0.210   0.437  0.00  0.00    +0.061 A 
ATOM      3  C   LIG    1        2.272  -0.986   0.520  0.00  0.00    +0.063 A 
ATOM      4 CL   LIG    1        1.522  -2.487   0.937  0.00  0.00    -0.082 Cl
ATOM      5  C   LIG    1        3.649  -1.001   0.261  0.00  0.00    +0.068 A 
ATOM      6  C   LIG    1        4.319   0.176  -0.089  0.00  0.00    +0.142 A 
ATOM      7  C   LIG    1        3.585   1.372  -0.170  0.00  0.00    +0.084 A 
ATOM      8 CL   LIG    1        4.343   2.866  -0.597  0.00  0.00    -0.080 Cl
ATOM      9  C   LIG    1        2.212   1.390   0.092  0.00  0.00    +0.045 A 
ENDROOT
BRANCH   6  10
ATOM     10  O   LIG    1        5.659   0.254  -0.367  0.00  0.00    -0.478 OA
BRANCH  10  11
ATOM     11  C   LIG    1        6.435  -0.938  -0.268  0.00  0.00    +0.318 C 
BRANCH  11  12
ATOM     12  C   LIG    1        7.823  -0.644  -0.637  0.00  0.00    -0.050 C 
ATOM     13  C   LIG    1        8.960  -0.424  -0.955  0.00  0.00    -0.027 C 
ATOM     14  I   LIG    1       10.924  -0.064  -1.522  0.00  0.00    +0.018 I 
ENDBRANCH  11  12
ENDBRANCH  10  11
ENDBRANCH   6  10
TORSDOF 3
