REMARK  Name = *****
REMARK                            x       y       z     vdW  Elec       q    Type
REMARK                         _______ _______ _______ _____ _____    ______ ____
ROOT
ATOM      1  C   LIG    1       -3.420  -2.215   0.069  0.00  0.00    +0.112 C 
ATOM      2  C   LIG    1       -4.606  -3.012   0.675  0.00  0.00    +0.217 C 
ATOM      3  O   LIG    1       -4.729  -4.124   1.587  0.00  0.00    -0.481 OA
ATOM      4  C   LIG    1       -6.126  -4.299   1.437  0.00  0.00    +0.166 A 
ATOM      5  C   LIG    1       -6.722  -3.104   1.015  0.00  0.00    +0.011 A 
ATOM      6  C   LIG    1       -7.989  -2.945   0.525  0.00  0.00    -0.038 A 
ATOM      7  C   LIG    1       -8.765  -4.104   0.540  0.00  0.00    +0.008 A 
ATOM      8  C   LIG    1       -8.220  -5.335   1.015  0.00  0.00    +0.049 A 
ATOM      9  C   LIG    1       -8.337  -1.592  -0.064  0.00  0.00    +0.055 C 
ATOM     10  C   LIG    1       -7.261  -0.407   0.182  0.00  0.00    +0.068 C 
ATOM     11  N   LIG    1       -7.545   0.192   1.520  0.00  0.00    -0.298 NA
ATOM     12  C   LIG    1       -7.130  -0.643   2.660  0.00  0.00    +0.086 C 
ATOM     13  C   LIG    1       -5.824  -1.460   2.500  0.00  0.00    +0.031 C 
ATOM     14  C   LIG    1       -5.784  -0.920   0.035  0.00  0.00    +0.000 C 
ATOM     15  C   LIG    1       -5.395  -1.430  -1.396  0.00  0.00    +0.018 C 
ATOM     16  C   LIG    1       -4.614   0.054   0.355  0.00  0.00    +0.012 C 
ATOM     17  C   LIG    1       -6.885  -5.445   1.450  0.00  0.00    +0.159 A 
ATOM     18  C   LIG    1       -5.704  -2.038   1.065  0.00  0.00    +0.047 C 
ATOM     19  C   LIG    1       -3.862  -1.960  -1.472  0.00  0.00    +0.057 C 
ATOM     20  C   LIG    1       -3.325  -0.759   0.625  0.00  0.00    +0.039 C 
ENDROOT
BRANCH   1  22
ATOM     21  C   LIG    1       -1.657  -2.993   1.501  0.00  0.00    +0.195 C 
ATOM     22  O   LIG    1       -2.170  -2.852   0.181  0.00  0.00    -0.372 OA
ENDBRANCH   1  22
BRANCH  17  23
ATOM     23  O   LIG    1       -6.336  -6.634   1.802  0.00  0.00    -0.503 OA
ATOM     24  H   LIG    1       -7.003  -7.330   1.683  0.00  0.00    +0.292 HD
ENDBRANCH  17  23
BRANCH  19  25
ATOM     25  C   LIG    1       -3.716  -3.052  -2.646  0.00  0.00    +0.074 C 
ATOM     26  C   LIG    1       -4.205  -2.327  -3.944  0.00  0.00    +0.042 C 
BRANCH  25  27
ATOM     27  C   LIG    1       -2.297  -3.740  -2.948  0.00  0.00    -0.009 C 
ATOM     28  C   LIG    1       -1.724  -4.597  -1.792  0.00  0.00    +0.013 C 
ATOM     29  C   LIG    1       -1.235  -2.690  -3.338  0.00  0.00    +0.013 C 
ATOM     30  C   LIG    1       -2.413  -4.745  -4.136  0.00  0.00    +0.013 C 
ENDBRANCH  25  27
BRANCH  25  31
ATOM     31  O   LIG    1       -4.694  -4.088  -2.460  0.00  0.00    -0.388 OA
ATOM     32  H   LIG    1       -4.336  -4.759  -1.856  0.00  0.00    +0.210 HD
ENDBRANCH  25  31
ENDBRANCH  19  25
BRANCH  11  33
ATOM     33  C   LIG    1       -7.238   1.618   1.661  0.00  0.00    +0.088 C 
BRANCH  33  34
ATOM     34  C   LIG    1       -7.970   2.249   2.820  0.00  0.00    +0.003 C 
ATOM     35  C   LIG    1       -7.204   2.671   4.058  0.00  0.00    +0.005 C 
ATOM     36  C   LIG    1       -7.769   3.714   3.139  0.00  0.00    +0.005 C 
ENDBRANCH  33  34
ENDBRANCH  11  33
TORSDOF 7
