REMARK  Name = *****
REMARK                            x       y       z     vdW  Elec       q    Type
REMARK                         _______ _______ _______ _____ _____    ______ ____
ROOT
ATOM      1  C   LIG    1        3.803   3.823   1.603  0.00  0.00    +0.160 C 
ENDROOT
BRANCH   1   2
ATOM      2  N   LIG    1        4.190   3.018   0.440  0.00  0.00    -0.302 N 
ATOM      3  H   LIG    1        4.873   3.472  -0.146  0.00  0.00    +0.149 HD
ATOM      4  C   LIG    1        3.327   2.156  -0.223  0.00  0.00    +0.234 C 
ATOM      5  O   LIG    1        2.166   1.972   0.143  0.00  0.00    -0.274 OA
BRANCH   4   6
ATOM      6  C   LIG    1        3.935   1.369  -1.422  0.00  0.00    +0.163 C 
BRANCH   6   7
ATOM      7  N   LIG    1        2.914   0.436  -1.933  0.00  0.00    -0.304 N 
ATOM      8  H   LIG    1        1.995   0.827  -2.111  0.00  0.00    +0.149 HD
ATOM      9  C   LIG    1        3.065  -0.926  -1.961  0.00  0.00    +0.215 C 
ATOM     10  O   LIG    1        4.073  -1.510  -1.579  0.00  0.00    -0.276 OA
BRANCH   9  11
ATOM     11  C   LIG    1        1.868  -1.662  -2.513  0.00  0.00    +0.114 C 
BRANCH  11  12
ATOM     12  C   LIG    1        0.886  -1.986  -1.406  0.00  0.00    +0.117 C 
BRANCH  12  13
ATOM     13  N   LIG    1       -0.273  -2.663  -1.946  0.00  0.00    -0.281 N 
ATOM     14  H   LIG    1       -0.267  -3.662  -2.117  0.00  0.00    +0.152 HD
ATOM     15  C   LIG    1       -1.395  -2.000  -2.301  0.00  0.00    +0.400 C 
ATOM     16  O   LIG    1       -1.519  -0.761  -2.243  0.00  0.00    -0.227 OA
BRANCH  15  17
ATOM     17  O   LIG    1       -2.372  -2.850  -2.656  0.00  0.00    -0.450 OA
BRANCH  17  18
ATOM     18  C   LIG    1       -3.706  -2.316  -2.587  0.00  0.00    +0.236 C 
BRANCH  18  19
ATOM     19  C   LIG    1       -4.245  -2.517  -1.161  0.00  0.00    +0.021 C 
ATOM     20  C   LIG    1       -4.210  -3.994  -0.756  0.00  0.00    +0.010 C 
ATOM     21  C   LIG    1       -5.664  -1.977  -1.010  0.00  0.00    +0.010 C 
ENDBRANCH  18  19
ENDBRANCH  17  18
ENDBRANCH  15  17
ENDBRANCH  12  13
ENDBRANCH  11  12
ENDBRANCH   9  11
ENDBRANCH   6   7
BRANCH   6  22
ATOM     22  C   LIG    1        4.364   2.249  -2.598  0.00  0.00    +0.069 C 
BRANCH  22  23
ATOM     23  C   LIG    1        5.387   3.291  -2.308  0.00  0.00    -0.020 C 
ATOM     24  C   LIG    1        5.186   4.714  -2.315  0.00  0.00    +0.003 C 
ATOM     25  C   LIG    1        6.422   5.295  -2.047  0.00  0.00    +0.047 C 
ATOM     26  C   LIG    1        6.629   6.675  -2.032  0.00  0.00    +0.026 C 
ATOM     27  C   LIG    1        5.508   7.496  -2.148  0.00  0.00    +0.002 C 
ATOM     28  C   LIG    1        4.247   6.954  -2.383  0.00  0.00    +0.001 C 
ATOM     29  N   LIG    1        7.308   4.275  -1.819  0.00  0.00    -0.360 NA
ATOM     30  H   LIG    1        8.268   4.406  -1.550  0.00  0.00    +0.165 HD
ATOM     31  C   LIG    1        4.078   5.568  -2.513  0.00  0.00    +0.010 C 
ATOM     32  C   LIG    1        6.688   3.064  -1.906  0.00  0.00    +0.087 C 
ENDBRANCH  22  23
ENDBRANCH   6  22
ENDBRANCH   4   6
ENDBRANCH   1   2
BRANCH   1  33
ATOM     33  C   LIG    1        4.961   4.794   2.045  0.00  0.00    +0.234 C 
ATOM     34  N   LIG    1        6.270   4.402   1.765  0.00  0.00    -0.302 N 
ATOM     35  H   LIG    1        6.418   3.543   1.249  0.00  0.00    +0.149 HD
ATOM     36  O   LIG    1        4.728   5.777   2.748  0.00  0.00    -0.274 OA
BRANCH  34  37
ATOM     37  C   LIG    1        7.467   5.112   2.316  0.00  0.00    +0.169 C 
BRANCH  37  38
ATOM     38  C   LIG    1        8.802   4.451   1.795  0.00  0.00    +0.234 C 
ATOM     39  N   LIG    1        9.249   4.871   0.552  0.00  0.00    -0.302 N 
ATOM     40  H   LIG    1        9.003   5.825   0.311  0.00  0.00    +0.149 HD
ATOM     41  O   LIG    1        9.319   3.504   2.387  0.00  0.00    -0.274 OA
BRANCH  39  42
ATOM     42  C   LIG    1       10.431   4.309  -0.157  0.00  0.00    +0.163 C 
BRANCH  42  43
ATOM     43  C   LIG    1       10.505   2.763  -0.260  0.00  0.00    +0.231 C 
ATOM     44  O   LIG    1       10.000   2.131  -1.184  0.00  0.00    -0.274 OA
ATOM     45  N   LIG    1       11.133   2.124   0.763  0.00  0.00    -0.328 N 
ATOM     46  H   LIG    1       11.242   1.122   0.750  0.00  0.00    +0.145 HD
ATOM     47  H   LIG    1       11.053   2.558   1.684  0.00  0.00    +0.145 HD
ENDBRANCH  42  43
BRANCH  42  48
ATOM     48  C   LIG    1       11.823   4.954   0.082  0.00  0.00    +0.067 C 
BRANCH  48  49
ATOM     49  C   LIG    1       12.376   4.849   1.481  0.00  0.00    -0.045 C 
ATOM     50  C   LIG    1       12.012   5.780   2.454  0.00  0.00    +0.003 C 
ATOM     51  C   LIG    1       12.311   5.540   3.795  0.00  0.00    +0.000 C 
ATOM     52  C   LIG    1       12.932   4.353   4.178  0.00  0.00    +0.000 C 
ATOM     53  C   LIG    1       13.368   3.458   3.208  0.00  0.00    +0.000 C 
ATOM     54  C   LIG    1       13.161   3.748   1.861  0.00  0.00    +0.003 C 
ENDBRANCH  48  49
ENDBRANCH  42  48
ENDBRANCH  39  42
ENDBRANCH  37  38
BRANCH  37  55
ATOM     55  C   LIG    1        7.441   5.045   3.855  0.00  0.00    +0.152 C 
BRANCH  55  56
ATOM     56  C   LIG    1        8.619   5.744   4.474  0.00  0.00    +0.307 C 
ATOM     57  O   LIG    1        9.157   6.731   3.995  0.00  0.00    -0.251 OA
BRANCH  56  58
ATOM     58  O   LIG    1        8.991   5.218   5.663  0.00  0.00    -0.481 OA
ATOM     59  H   LIG    1        8.462   4.448   5.951  0.00  0.00    +0.295 HD
ENDBRANCH  56  58
ENDBRANCH  55  56
ENDBRANCH  37  55
ENDBRANCH  34  37
ENDBRANCH   1  33
BRANCH   1  60
ATOM     60  C   LIG    1        3.336   2.946   2.787  0.00  0.00    +0.042 C 
BRANCH  60  61
ATOM     61  C   LIG    1        4.449   2.036   3.299  0.00  0.00    +0.071 C 
BRANCH  61  63
ATOM     62  C   LIG    1        5.491   0.084   4.899  0.00  0.00    +0.084 C 
ATOM     63  S   LIG    1        3.912   0.936   4.642  0.00  0.00    -0.164 S 
ENDBRANCH  61  63
ENDBRANCH  60  61
ENDBRANCH   1  60
TORSDOF 24
