REMARK  Name = *****
REMARK                            x       y       z     vdW  Elec       q    Type
REMARK                         _______ _______ _______ _____ _____    ______ ____
ROOT
ATOM      1  C   LIG    1        3.272  -0.640   0.823  0.00  0.00    +0.060 C 
ATOM      2  C   LIG    1        4.490  -0.846  -0.115  0.00  0.00    +0.169 C 
ATOM      3  N   LIG    1        5.553  -1.310   0.791  0.00  0.00    -0.284 N 
ATOM      4  C   LIG    1        6.558  -2.224   0.493  0.00  0.00    +0.237 C 
ATOM      5  C   LIG    1        7.208  -2.246  -0.919  0.00  0.00    +0.168 C 
ATOM      6  N   LIG    1        8.612  -1.938  -0.641  0.00  0.00    -0.269 N 
ATOM      7  H   LIG    1        9.074  -2.488   0.075  0.00  0.00    +0.153 HD
ATOM      8  C   LIG    1        9.119  -0.690  -0.767  0.00  0.00    +0.401 C 
ATOM      9  O   LIG    1       10.305  -0.606  -0.130  0.00  0.00    -0.447 OA
ATOM     10  C   LIG    1       10.910   0.694   0.004  0.00  0.00    +0.182 C 
ATOM     11  C   LIG    1       11.427   0.992   1.387  0.00  0.00    +0.033 C 
ATOM     12  C   LIG    1       11.352   2.372   1.965  0.00  0.00    +0.007 C 
ATOM     13  C   LIG    1       10.146   2.533   2.894  0.00  0.00    +0.001 C 
ATOM     14  C   LIG    1        8.922   3.066   2.151  0.00  0.00    +0.006 C 
ATOM     15  C   LIG    1        7.678   3.161   3.036  0.00  0.00    +0.082 C 
ATOM     16  C   LIG    1        6.977   1.817   3.280  0.00  0.00    +0.295 C 
ATOM     17  C   LIG    1        5.637   2.080   3.932  0.00  0.00    +0.171 A 
ATOM     18  C   LIG    1        4.430   1.731   3.336  0.00  0.00    +0.244 A 
ATOM     19  O   LIG    1        4.385   1.127   2.101  0.00  0.00    -0.470 OA
ATOM     20  N   LIG    1        3.241   2.186   3.800  0.00  0.00    -0.209 NA
ATOM     21  C   LIG    1        3.280   3.038   4.857  0.00  0.00    +0.097 A 
ATOM     22  C   LIG    1        4.502   3.332   5.508  0.00  0.00    +0.090 A 
ATOM     23  C   LIG    1        4.537   4.234   6.559  0.00  0.00    +0.033 A 
ATOM     24  C   LIG    1        3.386   4.900   6.962  0.00  0.00    +0.048 A 
ATOM     25  C   LIG    1        2.175   4.625   6.338  0.00  0.00    +0.122 A 
ATOM     26  C   LIG    1        2.129   3.695   5.294  0.00  0.00    +0.075 A 
ATOM     27  N   LIG    1        5.660   2.813   5.084  0.00  0.00    -0.239 NA
ATOM     28  F   LIG    1        7.773   1.030   4.062  0.00  0.00    -0.198 F 
ATOM     29  F   LIG    1        6.895   1.165   2.085  0.00  0.00    -0.198 F 
ATOM     30  C   LIG    1       12.390   0.692   0.271  0.00  0.00    +0.052 C 
ATOM     31  O   LIG    1        8.561   0.252  -1.355  0.00  0.00    -0.227 OA
ATOM     32  O   LIG    1        7.037  -2.928   1.393  0.00  0.00    -0.274 OA
ATOM     33  C   LIG    1        5.110  -1.206   2.184  0.00  0.00    +0.153 C 
ATOM     34  C   LIG    1        3.922  -0.230   2.165  0.00  0.00    +0.198 C 
ENDROOT
BRANCH   2  35
ATOM     35  C   LIG    1        4.833   0.317  -1.086  0.00  0.00    +0.235 C 
ATOM     36  N   LIG    1        4.676   1.617  -0.648  0.00  0.00    -0.299 N 
ATOM     37  H   LIG    1        4.513   1.767   0.349  0.00  0.00    +0.150 HD
ATOM     38  O   LIG    1        5.207   0.031  -2.226  0.00  0.00    -0.274 OA
BRANCH  36  39
ATOM     39  C   LIG    1        4.931   2.838  -1.437  0.00  0.00    +0.121 C 
ATOM     40  C   LIG    1        6.143   2.792  -2.383  0.00  0.00    +0.090 C 
ATOM     41  C   LIG    1        4.746   2.826  -2.950  0.00  0.00    +0.047 C 
BRANCH  39  42
ATOM     42  C   LIG    1        4.628   4.131  -0.667  0.00  0.00    +0.256 C 
ATOM     43  N   LIG    1        3.758   5.066  -1.270  0.00  0.00    -0.188 N 
ATOM     44  H   LIG    1        3.079   4.729  -1.950  0.00  0.00    +0.176 HD
ATOM     45  O   LIG    1        5.118   4.274   0.438  0.00  0.00    -0.272 OA
BRANCH  43  46
ATOM     46  S   LIG    1        3.201   6.463  -0.526  0.00  0.00    +0.051 S 
ATOM     47  O   LIG    1        3.266   6.316   0.909  0.00  0.00    -0.155 OA
ATOM     48  O   LIG    1        1.928   6.725  -1.170  0.00  0.00    -0.155 OA
BRANCH  46  49
ATOM     49  C   LIG    1        4.304   7.854  -0.950  0.00  0.00    +0.104 C 
ATOM     50  C   LIG    1        3.911   8.703  -2.134  0.00  0.00    +0.033 C 
ATOM     51  C   LIG    1        3.670   9.212  -0.736  0.00  0.00    +0.033 C 
ATOM     52  C   LIG    1        5.728   7.622  -0.604  0.00  0.00    +0.037 C 
ENDBRANCH  46  49
ENDBRANCH  43  46
ENDBRANCH  39  42
BRANCH  40  53
ATOM     53  C   LIG    1        7.067   3.880  -2.759  0.00  0.00    +0.347 C 
ATOM     54  F   LIG    1        8.286   3.662  -2.209  0.00  0.00    -0.209 F 
ATOM     55  F   LIG    1        7.240   3.829  -4.108  0.00  0.00    -0.209 F 
ENDBRANCH  40  53
ENDBRANCH  36  39
ENDBRANCH   2  35
BRANCH   5  56
ATOM     56  C   LIG    1        7.087  -3.578  -1.722  0.00  0.00    -0.011 C 
ATOM     57  C   LIG    1        5.611  -3.905  -2.005  0.00  0.00    +0.013 C 
ATOM     58  C   LIG    1        7.729  -4.785  -1.010  0.00  0.00    +0.013 C 
ATOM     59  C   LIG    1        7.796  -3.403  -3.089  0.00  0.00    +0.013 C 
ENDBRANCH   5  56
BRANCH   1  61
ATOM     60  C   LIG    1        1.565  -0.265  -1.006  0.00  0.00    +0.004 C 
ATOM     61  C   LIG    1        2.124   0.238   0.320  0.00  0.00    +0.006 C 
ENDBRANCH   1  61
BRANCH  25  62
ATOM     62  O   LIG    1        1.123   5.363   6.798  0.00  0.00    -0.495 OA
ATOM     63  C   LIG    1       -0.156   4.750   6.705  0.00  0.00    +0.277 C 
ENDBRANCH  25  62
TORSDOF 9
