REMARK  Name = *****
REMARK                            x       y       z     vdW  Elec       q    Type
REMARK                         _______ _______ _______ _____ _____    ______ ____
ROOT
ATOM      1  C   LIG    1        6.913  -1.547  -1.561  0.00  0.00    +0.017 A 
ATOM      2  C   LIG    1        7.689  -0.613  -0.872  0.00  0.00    +0.012 A 
ATOM      3  C   LIG    1        9.069  -0.797  -0.756  0.00  0.00    +0.009 A 
ATOM      4  C   LIG    1        9.708  -1.907  -1.337  0.00  0.00    -0.018 A 
ATOM      5  C   LIG    1        8.903  -2.827  -2.032  0.00  0.00    +0.009 A 
ATOM      6  C   LIG    1        7.523  -2.660  -2.138  0.00  0.00    +0.012 A 
ENDROOT
BRANCH   4   7
ATOM      7  C   LIG    1       11.168  -2.104  -1.225  0.00  0.00    -0.018 A 
ATOM      8  C   LIG    1       11.730  -3.394  -1.188  0.00  0.00    +0.008 A 
ATOM      9  C   LIG    1       13.110  -3.585  -1.101  0.00  0.00    +0.001 A 
ATOM     10  C   LIG    1       13.960  -2.487  -1.032  0.00  0.00    +0.000 A 
ATOM     11  C   LIG    1       13.432  -1.200  -1.055  0.00  0.00    +0.001 A 
ATOM     12  C   LIG    1       12.052  -1.013  -1.158  0.00  0.00    +0.008 A 
ENDBRANCH   4   7
BRANCH   1  13
ATOM     13  C   LIG    1        5.447  -1.333  -1.653  0.00  0.00    +0.164 C 
ATOM     14  O   LIG    1        4.953  -0.304  -1.191  0.00  0.00    -0.292 OA
BRANCH  13  15
ATOM     15  C   LIG    1        4.581  -2.416  -2.269  0.00  0.00    +0.091 C 
BRANCH  15  16
ATOM     16  C   LIG    1        3.103  -2.047  -2.259  0.00  0.00    +0.128 C 
BRANCH  16  18
ATOM     17  O   LIG    1        1.574  -2.887  -0.604  0.00  0.00    -0.251 OA
ATOM     18  C   LIG    1        2.465  -2.094  -0.893  0.00  0.00    +0.305 C 
BRANCH  18  19
ATOM     19  O   LIG    1        2.910  -1.181  -0.009  0.00  0.00    -0.481 OA
ATOM     20  H   LIG    1        3.625  -0.591  -0.366  0.00  0.00    +0.295 HD
ENDBRANCH  18  19
ENDBRANCH  16  18
ENDBRANCH  15  16
ENDBRANCH  13  15
ENDBRANCH   1  13
TORSDOF 6
