REMARK  Name = *****
REMARK                            x       y       z     vdW  Elec       q    Type
REMARK                         _______ _______ _______ _____ _____    ______ ____
ROOT
ATOM      1  C   LIG    1        1.139  -0.095   0.308  0.00  0.00    +0.144 C 
ATOM      2  N   LIG    1        2.538  -0.023  -0.019  0.00  0.00    -0.207 N 
ATOM      3  C   LIG    1        3.261   1.125  -0.062  0.00  0.00    +0.268 C 
ATOM      4  O   LIG    1        2.937   2.224   0.356  0.00  0.00    -0.271 OA
ATOM      5  C   LIG    1        4.511   0.781  -0.831  0.00  0.00    +0.185 C 
ATOM      6  C   LIG    1        4.236   1.019  -2.317  0.00  0.00    +0.066 C 
ATOM      7  C   LIG    1        5.765   1.494  -0.365  0.00  0.00    +0.066 C 
ATOM      8  O   LIG    1        4.599  -0.633  -0.592  0.00  0.00    -0.434 OA
ATOM      9  C   LIG    1        3.357  -1.072  -0.226  0.00  0.00    +0.410 C 
ATOM     10  O   LIG    1        3.083  -2.258  -0.090  0.00  0.00    -0.226 OA
ENDROOT
TORSDOF 0
