REMARK  Name = *****
REMARK                            x       y       z     vdW  Elec       q    Type
REMARK                         _______ _______ _______ _____ _____    ______ ____
ROOT
ATOM      1  C   LIG    1        9.451  -0.258  -1.275  0.00  0.00    +0.317 C 
ATOM      2  O   LIG    1        8.740  -0.520  -2.235  0.00  0.00    -0.250 OA
ENDROOT
BRANCH   1   3
ATOM      3  O   LIG    1       10.728  -0.705  -1.098  0.00  0.00    -0.461 OA
BRANCH   3  11
ATOM      4  C   LIG    1       13.773  -5.075  -1.492  0.00  0.00    +0.105 C 
ATOM      5  N   LIG    1       12.912  -3.899  -1.586  0.00  0.00    -0.294 NA
ATOM      6  C   LIG    1       13.445  -2.872  -2.514  0.00  0.00    +0.091 C 
ATOM      7  C   LIG    1       13.051  -3.394  -3.874  0.00  0.00    +0.166 C 
ATOM      8  C   LIG    1       11.851  -4.256  -3.650  0.00  0.00    +0.166 C 
ATOM      9  O   LIG    1       11.777  -3.057  -4.419  0.00  0.00    -0.365 OA
ATOM     10  C   LIG    1       12.753  -1.561  -2.114  0.00  0.00    +0.066 C 
ATOM     11  C   LIG    1       11.212  -1.653  -2.080  0.00  0.00    +0.180 C 
ATOM     12  C   LIG    1       10.664  -3.058  -1.738  0.00  0.00    +0.066 C 
ATOM     13  C   LIG    1       11.583  -4.209  -2.167  0.00  0.00    +0.091 C 
ENDBRANCH   3  11
ENDBRANCH   1   3
BRANCH   1  14
ATOM     14  C   LIG    1        9.020   0.591  -0.092  0.00  0.00    +0.153 C 
BRANCH  14  15
ATOM     15  C   LIG    1        9.240   2.076  -0.340  0.00  0.00    -0.032 A 
ATOM     16  C   LIG    1       10.152   2.800   0.446  0.00  0.00    +0.004 A 
ATOM     17  C   LIG    1       10.354   4.166   0.228  0.00  0.00    +0.000 A 
ATOM     18  C   LIG    1        9.650   4.825  -0.777  0.00  0.00    +0.000 A 
ATOM     19  C   LIG    1        8.745   4.119  -1.565  0.00  0.00    +0.000 A 
ATOM     20  C   LIG    1        8.542   2.755  -1.351  0.00  0.00    +0.004 A 
ENDBRANCH  14  15
BRANCH  14  21
ATOM     21  C   LIG    1        7.556   0.236   0.221  0.00  0.00    +0.175 C 
BRANCH  21  22
ATOM     22  O   LIG    1        7.119   0.839   1.439  0.00  0.00    -0.394 OA
ATOM     23  H   LIG    1        7.146   1.804   1.305  0.00  0.00    +0.209 HD
ENDBRANCH  21  22
ENDBRANCH  14  21
ENDBRANCH   1  14
TORSDOF 6
