REMARK  Name = *****
REMARK                            x       y       z     vdW  Elec       q    Type
REMARK                         _______ _______ _______ _____ _____    ______ ____
ROOT
ATOM      1  N   LIG    1        6.969  -0.905  -1.508  0.00  0.00    -0.297 N 
ATOM      2  C   LIG    1        7.836  -1.628  -0.651  0.00  0.00    +0.048 A 
ATOM      3  C   LIG    1        8.836  -0.985   0.116  0.00  0.00    +0.034 A 
ATOM      4  C   LIG    1        9.648  -1.717   0.992  0.00  0.00    +0.017 A 
ATOM      5  C   LIG    1        9.567  -3.100   1.064  0.00  0.00    +0.001 A 
ATOM      6  C   LIG    1        8.657  -3.764   0.241  0.00  0.00    +0.002 A 
ATOM      7  S   LIG    1        9.151   0.760   0.034  0.00  0.00    -0.086 S 
ATOM      8  C   LIG    1        8.154   1.254  -1.350  0.00  0.00    +0.034 A 
ATOM      9  C   LIG    1        8.228   2.603  -1.712  0.00  0.00    +0.017 A 
ATOM     10  C   LIG    1        7.442   3.118  -2.725  0.00  0.00    +0.001 A 
ATOM     11  C   LIG    1        6.657   2.244  -3.486  0.00  0.00    +0.002 A 
ATOM     12  C   LIG    1        6.607   0.891  -3.149  0.00  0.00    +0.024 A 
ATOM     13  C   LIG    1        7.806  -3.034  -0.589  0.00  0.00    +0.024 A 
ATOM     14  C   LIG    1        7.243   0.390  -2.008  0.00  0.00    +0.048 A 
ENDROOT
BRANCH   1  15
ATOM     15  C   LIG    1        5.522  -1.335  -1.486  0.00  0.00    +0.129 C 
BRANCH  15  16
ATOM     16  C   LIG    1        4.485  -0.379  -0.768  0.00  0.00    +0.071 C 
ATOM     17  C   LIG    1        4.886  -0.035   0.678  0.00  0.00    +0.026 C 
BRANCH  16  18
ATOM     18  N   LIG    1        3.041  -0.792  -0.803  0.00  0.00    -0.299 NA
BRANCH  18  20
ATOM     19  C   LIG    1        2.812  -0.288  -3.321  0.00  0.00    +0.020 C 
ATOM     20  C   LIG    1        2.480  -1.153  -2.111  0.00  0.00    +0.081 C 
ENDBRANCH  18  20
BRANCH  18  21
ATOM     21  C   LIG    1        2.572  -1.737   0.237  0.00  0.00    +0.081 C 
ATOM     22  C   LIG    1        2.979  -3.202   0.082  0.00  0.00    +0.020 C 
ENDBRANCH  18  21
ENDBRANCH  16  18
ENDBRANCH  15  16
ENDBRANCH   1  15
TORSDOF 5
