REMARK  Name = *****
REMARK                            x       y       z     vdW  Elec       q    Type
REMARK                         _______ _______ _______ _____ _____    ______ ____
ROOT
ATOM      1  O   LIG    1        2.140  -0.190   1.180  0.00  0.00    -0.273 OA
ATOM      2  C   LIG    1        3.205  -0.166   0.571  0.00  0.00    +0.241 C 
ATOM      3  N   LIG    1        3.853   1.054   0.250  0.00  0.00    -0.261 N 
ATOM      4  C   LIG    1        4.953   1.104  -0.667  0.00  0.00    +0.046 A 
ATOM      5  C   LIG    1        5.951   0.106  -0.686  0.00  0.00    +0.023 A 
ATOM      6  C   LIG    1        6.919   0.051  -1.702  0.00  0.00    +0.032 A 
ATOM      7  C   LIG    1        7.034   1.110  -2.588  0.00  0.00    +0.042 A 
ATOM      8  C   LIG    1        6.134   2.166  -2.525  0.00  0.00    +0.022 A 
ATOM      9 CL   LIG    1        8.327   1.138  -3.718  0.00  0.00    -0.084 Cl
ATOM     10  C   LIG    1        6.087  -0.860   0.440  0.00  0.00    +0.075 C 
ATOM     11  N   LIG    1        5.117  -1.643   0.792  0.00  0.00    -0.273 NA
ATOM     12  C   LIG    1        5.066   2.129  -1.617  0.00  0.00    +0.026 A 
ATOM     13  C   LIG    1        3.845  -1.470   0.088  0.00  0.00    +0.238 C 
ENDROOT
BRANCH  10  14
ATOM     14  C   LIG    1        7.377  -0.900   1.230  0.00  0.00    +0.001 A 
ATOM     15  C   LIG    1        7.491  -1.782   2.313  0.00  0.00    +0.010 A 
ATOM     16  C   LIG    1        8.665  -1.831   3.074  0.00  0.00    +0.001 A 
ATOM     17  C   LIG    1        9.745  -1.012   2.752  0.00  0.00    +0.000 A 
ATOM     18  C   LIG    1        9.643  -0.122   1.691  0.00  0.00    +0.001 A 
ATOM     19  C   LIG    1        8.459  -0.048   0.955  0.00  0.00    +0.010 A 
ENDBRANCH  10  14
BRANCH   3  20
ATOM     20  C   LIG    1        3.127   2.241   0.741  0.00  0.00    +0.226 C 
BRANCH  20  21
ATOM     21  C   LIG    1        3.704   3.661   0.801  0.00  0.00    +0.406 C 
ATOM     22  F   LIG    1        3.655   4.150   2.064  0.00  0.00    -0.169 F 
ATOM     23  F   LIG    1        2.956   4.492   0.030  0.00  0.00    -0.169 F 
ATOM     24  F   LIG    1        4.980   3.781   0.394  0.00  0.00    -0.169 F 
ENDBRANCH  20  21
ENDBRANCH   3  20
TORSDOF 3
