REMARK  Name = *****
REMARK                            x       y       z     vdW  Elec       q    Type
REMARK                         _______ _______ _______ _____ _____    ______ ____
ROOT
ATOM      1  C   LIG    1        3.062   1.112  -0.408  0.00  0.00    +0.120 A 
ATOM      2  C   LIG    1        4.144   1.050  -1.287  0.00  0.00    +0.046 A 
ATOM      3  C   LIG    1        4.657   2.222  -1.855  0.00  0.00    +0.012 A 
ATOM      4  C   LIG    1        4.096   3.468  -1.546  0.00  0.00    -0.011 A 
ATOM      5  C   LIG    1        3.008   3.526  -0.669  0.00  0.00    +0.012 A 
ATOM      6  C   LIG    1        2.499   2.354  -0.105  0.00  0.00    +0.046 A 
ENDROOT
BRANCH   4   7
ATOM      7  C   LIG    1        4.622   4.687  -2.160  0.00  0.00    +0.028 A 
ATOM      8  S   LIG    1        5.864   5.535  -1.319  0.00  0.00    -0.051 S 
ATOM      9  S   LIG    1        6.016   7.005  -2.729  0.00  0.00    -0.044 S 
ATOM     10  C   LIG    1        4.813   6.371  -3.844  0.00  0.00    +0.064 A 
ATOM     11  S   LIG    1        4.448   7.102  -5.301  0.00  0.00    -0.044 S 
ATOM     12  C   LIG    1        4.179   5.136  -3.339  0.00  0.00    +0.039 A 
ENDBRANCH   4   7
BRANCH   1  14
ATOM     13  C   LIG    1        3.017  -1.238  -0.047  0.00  0.00    +0.277 C 
ATOM     14  O   LIG    1        2.468   0.048   0.212  0.00  0.00    -0.495 OA
ENDBRANCH   1  14
TORSDOF 2
