REMARK  Name = *****
REMARK                            x       y       z     vdW  Elec       q    Type
REMARK                         _______ _______ _______ _____ _____    ______ ____
ROOT
ATOM      1  C   LIG    1       -0.103   1.570  -0.017  0.00  0.00    -0.003 C 
ENDROOT
BRANCH   1   2
ATOM      2  C   LIG    1       -1.661   1.747   0.244  0.00  0.00    -0.008 C 
ATOM      3  C   LIG    1       -2.503   2.195  -0.961  0.00  0.00    +0.004 C 
ATOM      4  C   LIG    1       -3.052   1.039  -1.772  0.00  0.00    +0.000 C 
ATOM      5  C   LIG    1       -4.000   0.209  -0.926  0.00  0.00    +0.000 C 
ATOM      6  C   LIG    1       -3.371  -0.294   0.365  0.00  0.00    +0.000 C 
ATOM      7  C   LIG    1       -2.423   0.685   1.079  0.00  0.00    +0.004 C 
ENDBRANCH   1   2
BRANCH   1   8
ATOM      8  C   LIG    1        0.515   2.853  -0.760  0.00  0.00    -0.008 C 
ATOM      9  C   LIG    1        0.055   4.242  -0.253  0.00  0.00    +0.004 C 
ATOM     10  C   LIG    1        0.700   4.659   1.064  0.00  0.00    +0.000 C 
ATOM     11  C   LIG    1        2.221   4.624   0.977  0.00  0.00    +0.000 C 
ATOM     12  C   LIG    1        2.719   3.269   0.489  0.00  0.00    +0.000 C 
ATOM     13  C   LIG    1        2.063   2.886  -0.835  0.00  0.00    +0.004 C 
ENDBRANCH   1   8
BRANCH   1  14
ATOM     14  C   LIG    1        0.372   0.308  -0.812  0.00  0.00    +0.022 C 
BRANCH  14  15
ATOM     15  C   LIG    1       -0.027  -1.106  -0.363  0.00  0.00    +0.054 C 
ATOM     16  N   LIG    1        0.370  -2.123  -1.361  0.00  0.00    -0.313 NA
ATOM     17  H   LIG    1       -0.158  -2.973  -1.178  0.00  0.00    +0.122 HD
ATOM     18  C   LIG    1        1.796  -2.450  -1.324  0.00  0.00    +0.081 C 
ATOM     19  C   LIG    1        2.243  -2.916   0.057  0.00  0.00    +0.015 C 
ATOM     20  C   LIG    1        1.901  -1.881   1.116  0.00  0.00    +0.003 C 
ATOM     21  C   LIG    1        0.420  -1.515   1.047  0.00  0.00    +0.019 C 
ENDBRANCH  14  15
ENDBRANCH   1  14
TORSDOF 4
