REMARK  Name = *****
REMARK                            x       y       z     vdW  Elec       q    Type
REMARK                         _______ _______ _______ _____ _____    ______ ____
ROOT
ATOM      1  C   LIG    1        2.905   1.350   0.950  0.00  0.00    +0.253 C 
ENDROOT
BRANCH   1   3
ATOM      2  O   LIG    1        2.955   2.291   3.201  0.00  0.00    -0.248 OA
ATOM      3  C   LIG    1        2.443   1.532   2.389  0.00  0.00    +0.336 C 
BRANCH   3   4
ATOM      4  O   LIG    1        1.376   0.747   2.678  0.00  0.00    -0.479 OA
ATOM      5  H   LIG    1        1.155   0.247   1.851  0.00  0.00    +0.295 HD
ENDBRANCH   3   4
ENDBRANCH   1   3
BRANCH   1   6
ATOM      6  O   LIG    1        2.068   0.323   0.356  0.00  0.00    -0.378 OA
ATOM      7  H   LIG    1        2.583   0.027  -0.429  0.00  0.00    +0.211 HD
ENDBRANCH   1   6
BRANCH   1   8
ATOM      8  C   LIG    1        4.358   0.888   0.860  0.00  0.00    +0.179 C 
BRANCH   8   9
ATOM      9  O   LIG    1        4.612   0.573  -0.529  0.00  0.00    -0.386 OA
ATOM     10  H   LIG    1        5.588   0.598  -0.630  0.00  0.00    +0.210 HD
ENDBRANCH   8   9
BRANCH   8  11
ATOM     11  C   LIG    1        5.387   1.919   1.330  0.00  0.00    +0.190 C 
BRANCH  11  12
ATOM     12  O   LIG    1        6.692   1.367   1.123  0.00  0.00    -0.392 OA
ATOM     13  H   LIG    1        6.875   0.768   1.871  0.00  0.00    +0.209 HD
ENDBRANCH  11  12
ENDBRANCH   8  11
ENDBRANCH   1   8
TORSDOF 7
