REMARK  Name = *****
REMARK                            x       y       z     vdW  Elec       q    Type
REMARK                         _______ _______ _______ _____ _____    ______ ____
ROOT
ATOM      1  C   LIG    1        5.707   1.076   1.008  0.00  0.00    +0.085 C 
ATOM      2  C   LIG    1        5.980  -0.112   1.901  0.00  0.00    -0.027 A 
ATOM      3  C   LIG    1        6.821   0.236   2.967  0.00  0.00    -0.043 A 
ATOM      4  C   LIG    1        7.245  -0.707   3.888  0.00  0.00    +0.004 A 
ATOM      5  C   LIG    1        6.799  -2.021   3.741  0.00  0.00    +0.000 A 
ATOM      6  C   LIG    1        5.953  -2.374   2.677  0.00  0.00    +0.000 A 
ATOM      7  C   LIG    1        7.196   1.682   2.902  0.00  0.00    +0.037 C 
ATOM      8  C   LIG    1        5.542  -1.418   1.745  0.00  0.00    +0.005 A 
ATOM      9  C   LIG    1        6.101   2.221   1.974  0.00  0.00    +0.028 C 
ENDROOT
BRANCH   1  10
ATOM     10  N   LIG    1        6.500   0.973  -0.216  0.00  0.00    -0.299 NA
ATOM     11  H   LIG    1        7.480   0.829   0.017  0.00  0.00    +0.123 HD
BRANCH  10  12
ATOM     12  C   LIG    1        6.364   2.131  -1.087  0.00  0.00    +0.171 C 
BRANCH  12  14
ATOM     13  C   LIG    1        7.855   1.830  -3.282  0.00  0.00    +0.005 C 
ATOM     14  C   LIG    1        7.177   1.947  -2.296  0.00  0.00    -0.090 C 
ENDBRANCH  12  14
ENDBRANCH  10  12
ENDBRANCH   1  10
TORSDOF 3
