REMARK  Name = *****
REMARK                            x       y       z     vdW  Elec       q    Type
REMARK                         _______ _______ _______ _____ _____    ______ ____
ROOT
ATOM      1  C   LIG    1        2.346  -0.027   0.033  0.00  0.00    +0.025 A 
ATOM      2  C   LIG    1        3.051  -1.233   0.004  0.00  0.00    +0.041 A 
ATOM      3  C   LIG    1        4.452  -1.257  -0.104  0.00  0.00    +0.102 A 
ATOM      4  C   LIG    1        5.146  -0.041  -0.135  0.00  0.00    +0.131 A 
ATOM      5  C   LIG    1        4.459   1.169  -0.046  0.00  0.00    +0.048 A 
ATOM      6  C   LIG    1        3.066   1.169   0.058  0.00  0.00    +0.026 A 
ENDROOT
BRANCH   1   7
ATOM      7  N   LIG    1        0.968  -0.022   0.269  0.00  0.00    -0.358 N 
ATOM      8  H   LIG    1        0.491  -0.864  -0.043  0.00  0.00    +0.142 HD
ATOM      9  H   LIG    1        0.492   0.821  -0.037  0.00  0.00    +0.142 HD
ENDBRANCH   1   7
BRANCH   3  10
ATOM     10  C   LIG    1        5.105  -2.598  -0.170  0.00  0.00    +0.340 C 
ATOM     11  O   LIG    1        4.467  -3.640  -0.167  0.00  0.00    -0.245 OA
BRANCH  10  12
ATOM     12  O   LIG    1        6.452  -2.581  -0.237  0.00  0.00    -0.477 OA
ATOM     13  H   LIG    1        6.813  -1.667  -0.239  0.00  0.00    +0.295 HD
ENDBRANCH  10  12
ENDBRANCH   3  10
BRANCH   4  14
ATOM     14  O   LIG    1        6.514  -0.029  -0.235  0.00  0.00    -0.506 OA
ATOM     15  H   LIG    1        6.816   0.900  -0.245  0.00  0.00    +0.292 HD
ENDBRANCH   4  14
TORSDOF 4
