REMARK  Name = *****
REMARK                            x       y       z     vdW  Elec       q    Type
REMARK                         _______ _______ _______ _____ _____    ______ ____
ROOT
ATOM      1  C   LIG    1        6.698  -0.600   1.939  0.00  0.00    +0.159 A 
ATOM      2  C   LIG    1        7.457  -1.690   2.376  0.00  0.00    +0.164 A 
ATOM      3  F   LIG    1        7.041  -2.954   2.206  0.00  0.00    -0.202 F 
ATOM      4  C   LIG    1        8.664  -1.485   3.021  0.00  0.00    +0.057 A 
ATOM      5  C   LIG    1        9.099  -0.179   3.232  0.00  0.00    +0.068 A 
ATOM      6  C   LIG    1       10.374   0.033   3.931  0.00  0.00    +0.205 A 
ATOM      7  C   LIG    1       10.833   1.411   4.140  0.00  0.00    +0.122 A 
ATOM      8  C   LIG    1       10.041   2.388   3.674  0.00  0.00    +0.112 A 
ATOM      9  N   LIG    1        8.823   2.256   2.995  0.00  0.00    -0.297 N 
ATOM     10  O   LIG    1       11.040  -0.911   4.349  0.00  0.00    -0.286 OA
ATOM     11  C   LIG    1        8.333   0.905   2.787  0.00  0.00    +0.151 A 
ATOM     12  N   LIG    1        7.154   0.667   2.151  0.00  0.00    -0.211 NA
ENDROOT
BRANCH   9  13
ATOM     13  C   LIG    1        8.119   3.442   2.548  0.00  0.00    +0.083 A 
ATOM     14  C   LIG    1        8.791   4.625   2.151  0.00  0.00    +0.150 A 
ATOM     15  F   LIG    1       10.132   4.677   2.118  0.00  0.00    -0.203 F 
ATOM     16  C   LIG    1        8.114   5.776   1.747  0.00  0.00    +0.078 A 
ATOM     17  C   LIG    1        6.732   5.768   1.706  0.00  0.00    +0.126 A 
ATOM     18  F   LIG    1        6.072   6.862   1.309  0.00  0.00    -0.205 F 
ATOM     19  C   LIG    1        6.023   4.634   2.074  0.00  0.00    +0.040 A 
ATOM     20  C   LIG    1        6.711   3.490   2.502  0.00  0.00    +0.032 A 
ENDBRANCH   9  13
BRANCH   1  24
ATOM     21  C   LIG    1        2.724  -1.095   0.155  0.00  0.00    +0.061 C 
ATOM     22  C   LIG    1        4.063  -1.498  -0.402  0.00  0.00    +0.029 C 
ATOM     23  C   LIG    1        5.195  -1.924   0.481  0.00  0.00    +0.112 C 
ATOM     24  N   LIG    1        5.466  -0.756   1.325  0.00  0.00    -0.312 N 
ATOM     25  C   LIG    1        4.733   0.436   0.896  0.00  0.00    +0.112 C 
ATOM     26  C   LIG    1        3.776  -0.059  -0.144  0.00  0.00    +0.029 C 
BRANCH  21  27
ATOM     27  N   LIG    1        1.558  -1.174  -0.725  0.00  0.00    -0.327 NA
ATOM     28  H   LIG    1        1.150  -2.109  -0.707  0.00  0.00    +0.118 HD
ATOM     29  H   LIG    1        0.823  -0.538  -0.417  0.00  0.00    +0.118 HD
ENDBRANCH  21  27
ENDBRANCH   1  24
BRANCH   7  30
ATOM     30  C   LIG    1       12.088   1.750   4.843  0.00  0.00    +0.342 C 
ATOM     31  O   LIG    1       12.464   2.900   5.026  0.00  0.00    -0.245 OA
BRANCH  30  32
ATOM     32  O   LIG    1       12.803   0.685   5.281  0.00  0.00    -0.477 OA
ATOM     33  H   LIG    1       12.389  -0.190   5.074  0.00  0.00    +0.295 HD
ENDBRANCH  30  32
ENDBRANCH   7  30
TORSDOF 5
