REMARK  Name = *****
REMARK                            x       y       z     vdW  Elec       q    Type
REMARK                         _______ _______ _______ _____ _____    ______ ____
ROOT
ATOM      1  C   LIG    1        6.092   0.808  -0.238  0.00  0.00    +0.132 C 
ATOM      2  C   LIG    1        6.296  -0.697   0.158  0.00  0.00    +0.014 C 
ATOM      3  C   LIG    1        4.833  -1.186   0.411  0.00  0.00    +0.002 C 
ATOM      4  C   LIG    1        4.114  -1.903  -0.770  0.00  0.00    -0.003 C 
ATOM      5  C   LIG    1        5.037  -2.862  -1.565  0.00  0.00    -0.000 C 
ATOM      6  C   LIG    1        6.229  -2.059  -2.078  0.00  0.00    +0.005 C 
ATOM      7  C   LIG    1        5.392  -4.114  -0.718  0.00  0.00    +0.019 C 
ATOM      8  C   LIG    1        4.085  -4.807  -0.382  0.00  0.00    -0.063 C 
ATOM      9  C   LIG    1        3.738  -6.018  -0.849  0.00  0.00    +0.045 C 
ATOM     10  C   LIG    1        4.596  -6.729  -1.831  0.00  0.00    +0.156 C 
ATOM     11  C   LIG    1        5.780  -5.987  -2.402  0.00  0.00    +0.079 C 
ATOM     12  O   LIG    1        4.274  -7.850  -2.213  0.00  0.00    -0.293 OA
ATOM     13  C   LIG    1        3.146  -3.970   0.445  0.00  0.00    +0.031 C 
ATOM     14  C   LIG    1        6.402  -5.091  -1.345  0.00  0.00    +0.016 C 
ATOM     15  C   LIG    1        2.846  -2.656  -0.289  0.00  0.00    +0.008 C 
ATOM     16  C   LIG    1        4.041   0.081   0.832  0.00  0.00    +0.008 C 
ATOM     17  C   LIG    1        7.065  -1.494  -0.943  0.00  0.00    +0.011 C 
ATOM     18  C   LIG    1        4.955   1.297   0.650  0.00  0.00    +0.049 C 
ENDROOT
BRANCH   1  20
ATOM     19  C   LIG    1        8.326   2.191  -0.040  0.00  0.00    +0.007 C 
ATOM     20  C   LIG    1        7.316   1.566  -0.129  0.00  0.00    -0.070 C 
ENDBRANCH   1  20
BRANCH   2  21
ATOM     21  C   LIG    1        7.160  -0.917   1.464  0.00  0.00    +0.007 C 
ATOM     22  C   LIG    1        6.768  -0.234   2.766  0.00  0.00    +0.004 C 
ENDBRANCH   2  21
BRANCH   1  23
ATOM     23  O   LIG    1        5.628   0.899  -1.586  0.00  0.00    -0.376 OA
ATOM     24  H   LIG    1        5.642   1.840  -1.829  0.00  0.00    +0.211 HD
ENDBRANCH   1  23
TORSDOF 3
