REMARK  Name = *****
REMARK                            x       y       z     vdW  Elec       q    Type
REMARK                         _______ _______ _______ _____ _____    ______ ____
ROOT
ATOM      1  C   LIG    1       -3.612  -0.934  -1.133  0.00  0.00    +0.151 C 
ATOM      2  C   LIG    1       -4.872  -1.871  -1.087  0.00  0.00    +0.021 C 
ATOM      3  C   LIG    1       -4.503  -2.992  -2.123  0.00  0.00    +0.025 C 
ATOM      4  C   LIG    1       -4.934  -2.741  -3.591  0.00  0.00    +0.001 C 
ATOM      5  C   LIG    1       -6.387  -2.247  -3.700  0.00  0.00    -0.000 C 
ATOM      6  C   LIG    1       -6.513  -0.945  -2.901  0.00  0.00    +0.005 C 
ATOM      7  C   LIG    1       -7.420  -3.350  -3.321  0.00  0.00    +0.019 C 
ATOM      8  C   LIG    1       -7.154  -4.636  -4.095  0.00  0.00    -0.063 C 
ATOM      9  C   LIG    1       -8.126  -5.369  -4.667  0.00  0.00    +0.045 C 
ATOM     10  C   LIG    1       -9.556  -5.032  -4.478  0.00  0.00    +0.156 C 
ATOM     11  O   LIG    1      -10.416  -5.701  -5.044  0.00  0.00    -0.293 OA
ATOM     12  C   LIG    1       -9.895  -3.944  -3.493  0.00  0.00    +0.079 C 
ATOM     13  C   LIG    1       -5.721  -5.105  -4.161  0.00  0.00    +0.031 C 
ATOM     14  C   LIG    1       -8.857  -2.835  -3.549  0.00  0.00    +0.016 C 
ATOM     15  C   LIG    1       -4.749  -3.977  -4.492  0.00  0.00    +0.009 C 
ATOM     16  C   LIG    1       -2.994  -3.019  -2.031  0.00  0.00    -0.023 C 
ATOM     17  C   LIG    1       -6.196  -1.126  -1.422  0.00  0.00    +0.012 C 
ATOM     18  C   LIG    1       -2.515  -1.889  -1.496  0.00  0.00    +0.017 C 
ENDROOT
BRANCH   1  20
ATOM     19  C   LIG    1       -3.079   0.396   1.121  0.00  0.00    +0.007 C 
ATOM     20  C   LIG    1       -3.321  -0.212   0.113  0.00  0.00    -0.066 C 
ENDBRANCH   1  20
BRANCH   1  21
ATOM     21  O   LIG    1       -3.690   0.013  -2.189  0.00  0.00    -0.372 OA
ATOM     22  H   LIG    1       -2.860   0.517  -2.170  0.00  0.00    +0.212 HD
ENDBRANCH   1  21
BRANCH   2  23
ATOM     23  C   LIG    1       -5.115  -2.528   0.333  0.00  0.00    +0.008 C 
ATOM     24  C   LIG    1       -4.015  -3.377   0.962  0.00  0.00    +0.004 C 
ENDBRANCH   2  23
TORSDOF 3
