REMARK  Name = *****
REMARK                            x       y       z     vdW  Elec       q    Type
REMARK                         _______ _______ _______ _____ _____    ______ ____
ROOT
ATOM      1  C   LIG    1        6.381  -0.344  -2.681  0.00  0.00    -0.003 A 
ATOM      2  C   LIG    1        5.018  -0.842  -2.709  0.00  0.00    +0.130 A 
ATOM      3  C   LIG    1        4.329  -1.014  -3.979  0.00  0.00    -0.003 A 
ATOM      4  C   LIG    1        5.048  -0.744  -5.154  0.00  0.00    +0.007 A 
ATOM      5  C   LIG    1        6.334  -0.236  -5.126  0.00  0.00    +0.001 A 
ATOM      6  C   LIG    1        6.975  -0.019  -3.917  0.00  0.00    +0.007 A 
ENDROOT
BRANCH   1   8
ATOM      7  C   LIG    1        8.829  -0.196  -1.690  0.00  0.00    +0.012 C 
ATOM      8  C   LIG    1        7.284  -0.148  -1.431  0.00  0.00    +0.016 C 
ATOM      9  C   LIG    1        6.997   1.177  -0.713  0.00  0.00    +0.012 C 
ENDBRANCH   1   8
BRANCH   3  10
ATOM     10  C   LIG    1        2.872  -1.480  -4.208  0.00  0.00    +0.016 C 
ATOM     11  C   LIG    1        2.746  -3.011  -4.418  0.00  0.00    +0.012 C 
ATOM     12  C   LIG    1        2.087  -0.828  -5.357  0.00  0.00    +0.012 C 
ENDBRANCH   3  10
BRANCH   2  13
ATOM     13  O   LIG    1        4.418  -1.140  -1.476  0.00  0.00    -0.465 OA
BRANCH  13  14
ATOM     14  C   LIG    1        3.517  -2.248  -1.566  0.00  0.00    +0.406 C 
BRANCH  14  15
ATOM     15  O   LIG    1        3.161  -2.947  -0.401  0.00  0.00    -0.249 OA
BRANCH  15  16
ATOM     16  P   LIG    1        4.151  -4.088   0.013  0.00  0.00    +0.475 P 
ATOM     17  O   LIG    1        5.403  -3.592   0.703  0.00  0.00    -0.227 OA
BRANCH  16  18
ATOM     18  O   LIG    1        4.422  -4.994  -1.267  0.00  0.00    -0.302 OA
ATOM     19  H   LIG    1        5.017  -4.585  -1.938  0.00  0.00    +0.222 HD
ENDBRANCH  16  18
BRANCH  16  20
ATOM     20  O   LIG    1        3.277  -5.052   0.908  0.00  0.00    -0.302 OA
ATOM     21  H   LIG    1        3.834  -5.627   1.466  0.00  0.00    +0.222 HD
ENDBRANCH  16  20
ENDBRANCH  15  16
ENDBRANCH  14  15
ENDBRANCH  13  14
ENDBRANCH   2  13
TORSDOF 8
