REMARK  Name = *****
REMARK                            x       y       z     vdW  Elec       q    Type
REMARK                         _______ _______ _______ _____ _____    ______ ____
ROOT
ATOM      1  C   LIG    1        7.320   3.806  -3.453  0.00  0.00    +0.059 C 
ENDROOT
BRANCH   1   6
ATOM      2  C   LIG    1        4.907   4.381  -7.158  0.00  0.00    +0.121 C 
ATOM      3  O   LIG    1        4.556   4.829  -5.832  0.00  0.00    -0.454 OA
ATOM      4  C   LIG    1        5.111   4.360  -4.696  0.00  0.00    +0.340 C 
ATOM      5  O   LIG    1        4.463   4.370  -3.656  0.00  0.00    -0.245 OA
ATOM      6  C   LIG    1        6.527   3.936  -4.762  0.00  0.00    +0.081 C 
ATOM      7  C   LIG    1        7.073   3.697  -5.968  0.00  0.00    +0.108 C 
ATOM      8  C   LIG    1        6.356   3.860  -7.270  0.00  0.00    +0.122 C 
BRANCH   7   9
ATOM      9  O   LIG    1        8.408   3.330  -6.069  0.00  0.00    -0.510 OA
ATOM     10  H   LIG    1        8.683   3.349  -7.003  0.00  0.00    +0.292 HD
ENDBRANCH   7   9
BRANCH   2  11
ATOM     11  C   LIG    1        4.684   5.609  -8.079  0.00  0.00    +0.048 C 
BRANCH  11  13
ATOM     12  C   LIG    1        5.290   7.968  -8.711  0.00  0.00    +0.004 C 
ATOM     13  C   LIG    1        5.590   6.809  -7.775  0.00  0.00    +0.001 C 
ENDBRANCH  11  13
ENDBRANCH   2  11
BRANCH   2  14
ATOM     14  C   LIG    1        3.909   3.251  -7.553  0.00  0.00    +0.053 C 
BRANCH  14  15
ATOM     15  C   LIG    1        2.424   3.626  -7.405  0.00  0.00    +0.039 C 
BRANCH  15  16
ATOM     16  C   LIG    1        1.508   2.499  -7.819  0.00  0.00    -0.047 A 
ATOM     17  C   LIG    1        1.068   2.390  -9.145  0.00  0.00    +0.003 A 
ATOM     18  C   LIG    1        0.214   1.353  -9.524  0.00  0.00    +0.000 A 
ATOM     19  C   LIG    1       -0.203   0.414  -8.582  0.00  0.00    +0.000 A 
ATOM     20  C   LIG    1        0.234   0.511  -7.262  0.00  0.00    +0.000 A 
ATOM     21  C   LIG    1        1.087   1.548  -6.881  0.00  0.00    +0.003 A 
ENDBRANCH  15  16
ENDBRANCH  14  15
ENDBRANCH   2  14
ENDBRANCH   1   6
BRANCH   1  22
ATOM     22  C   LIG    1        7.915   5.158  -2.981  0.00  0.00    -0.038 A 
ATOM     23  C   LIG    1        8.595   6.015  -3.872  0.00  0.00    +0.028 A 
ATOM     24  C   LIG    1        9.143   7.232  -3.437  0.00  0.00    +0.048 A 
ATOM     25  C   LIG    1        9.042   7.612  -2.104  0.00  0.00    +0.024 A 
ATOM     26  C   LIG    1        8.402   6.772  -1.202  0.00  0.00    +0.002 A 
ATOM     27  C   LIG    1        7.853   5.563  -1.635  0.00  0.00    +0.004 A 
BRANCH  24  28
ATOM     28  N   LIG    1        9.755   8.110  -4.373  0.00  0.00    -0.215 N 
ATOM     29  H   LIG    1       10.592   8.595  -4.048  0.00  0.00    +0.174 HD
BRANCH  28  30
ATOM     30  S   LIG    1        8.743   9.217  -5.186  0.00  0.00    +0.090 S 
ATOM     31  O   LIG    1        7.575   8.521  -5.657  0.00  0.00    -0.148 OA
ATOM     32  O   LIG    1        9.591   9.947  -6.120  0.00  0.00    -0.148 OA
BRANCH  30  33
ATOM     33  C   LIG    1        8.222  10.395  -3.923  0.00  0.00    +0.197 A 
ATOM     34  N   LIG    1        9.224  11.125  -3.360  0.00  0.00    -0.235 NA
ATOM     35  C   LIG    1        8.837  12.111  -2.512  0.00  0.00    +0.125 A 
ATOM     36  C   LIG    1        7.513  12.381  -2.174  0.00  0.00    +0.073 A 
ATOM     37  C   LIG    1        6.520  11.578  -2.749  0.00  0.00    +0.017 A 
ATOM     38  C   LIG    1        6.870  10.567  -3.647  0.00  0.00    +0.050 A 
BRANCH  36  39
ATOM     39  C   LIG    1        7.200  13.507  -1.230  0.00  0.00    +0.419 C 
ATOM     40  F   LIG    1        7.629  14.713  -1.694  0.00  0.00    -0.166 F 
ATOM     41  F   LIG    1        7.790  13.344  -0.014  0.00  0.00    -0.166 F 
ATOM     42  F   LIG    1        5.869  13.656  -0.981  0.00  0.00    -0.166 F 
ENDBRANCH  36  39
ENDBRANCH  30  33
ENDBRANCH  28  30
ENDBRANCH  24  28
ENDBRANCH   1  22
BRANCH   1  43
ATOM     43  C   LIG    1        6.580   3.052  -2.307  0.00  0.00    +0.010 C 
ATOM     44  C   LIG    1        5.946   1.723  -2.680  0.00  0.00    +0.005 C 
ENDBRANCH   1  43
TORSDOF 13
