REMARK  Name = *****
REMARK                            x       y       z     vdW  Elec       q    Type
REMARK                         _______ _______ _______ _____ _____    ______ ____
ROOT
ATOM      1  N   LIG    1        2.507  -1.348  -0.921  0.00  0.00    -0.299 N 
ATOM      2  H   LIG    1        3.458  -1.306  -0.557  0.00  0.00    +0.154 HD
ENDROOT
BRANCH   1   4
ATOM      3  C   LIG    1        2.990   0.829  -1.952  0.00  0.00    +0.099 A 
ATOM      4  C   LIG    1        2.074  -0.108  -1.443  0.00  0.00    +0.137 A 
ATOM      5  N   LIG    1        0.739   0.145  -1.497  0.00  0.00    -0.239 NA
ATOM      6  C   LIG    1        0.302   1.300  -2.041  0.00  0.00    +0.113 A 
ATOM      7  C   LIG    1        1.140   2.258  -2.568  0.00  0.00    +0.021 A 
ATOM      8  C   LIG    1        2.506   2.018  -2.519  0.00  0.00    +0.020 A 
BRANCH   3  10
ATOM      9  O   LIG    1        4.994  -0.321  -1.270  0.00  0.00    -0.245 OA
ATOM     10  C   LIG    1        4.451   0.596  -1.853  0.00  0.00    +0.340 C 
BRANCH  10  11
ATOM     11  O   LIG    1        5.171   1.557  -2.468  0.00  0.00    -0.477 OA
ATOM     12  H   LIG    1        6.107   1.297  -2.338  0.00  0.00    +0.295 HD
ENDBRANCH  10  11
ENDBRANCH   3  10
ENDBRANCH   1   4
BRANCH   1  13
ATOM     13  C   LIG    1        1.750  -2.435  -0.444  0.00  0.00    +0.033 A 
ATOM     14  C   LIG    1        0.479  -2.748  -0.942  0.00  0.00    +0.035 A 
ATOM     15  C   LIG    1       -0.260  -3.843  -0.459  0.00  0.00    +0.057 A 
ATOM     16  C   LIG    1        0.285  -4.630   0.562  0.00  0.00    +0.012 A 
ATOM     17  C   LIG    1        1.547  -4.333   1.074  0.00  0.00    +0.002 A 
ATOM     18  C   LIG    1        2.274  -3.251   0.568  0.00  0.00    +0.023 A 
BRANCH  15  19
ATOM     19  C   LIG    1       -1.602  -4.157  -1.067  0.00  0.00    +0.417 C 
ATOM     20  F   LIG    1       -1.524  -4.400  -2.406  0.00  0.00    -0.166 F 
ATOM     21  F   LIG    1       -2.502  -3.144  -0.924  0.00  0.00    -0.166 F 
ATOM     22  F   LIG    1       -2.199  -5.259  -0.529  0.00  0.00    -0.166 F 
ENDBRANCH  15  19
ENDBRANCH   1  13
TORSDOF 5
