REMARK  Name = *****
REMARK                            x       y       z     vdW  Elec       q    Type
REMARK                         _______ _______ _______ _____ _____    ______ ____
ROOT
ATOM      1  C   LIG    1        5.445  -1.709  -2.314  0.00  0.00    -0.017 C 
ATOM      2  C   LIG    1        6.760  -1.951  -2.531  0.00  0.00    -0.013 C 
ATOM      3  C   LIG    1        7.820  -1.266  -1.755  0.00  0.00    -0.011 A 
ATOM      4  C   LIG    1        8.674  -1.994  -0.905  0.00  0.00    -0.017 A 
ATOM      5  C   LIG    1        9.642  -1.300  -0.157  0.00  0.00    +0.008 A 
ATOM      6  C   LIG    1        9.790   0.082  -0.283  0.00  0.00    +0.001 A 
ATOM      7  C   LIG    1        8.976   0.792  -1.158  0.00  0.00    +0.001 A 
ATOM      8  C   LIG    1        8.576  -3.455  -0.709  0.00  0.00    +0.009 C 
ATOM      9  C   LIG    1        8.216  -4.378  -1.606  0.00  0.00    +0.009 C 
ATOM     10  C   LIG    1        7.813  -4.178  -3.014  0.00  0.00    -0.017 A 
ATOM     11  C   LIG    1        8.097  -5.206  -3.927  0.00  0.00    +0.008 A 
ATOM     12  C   LIG    1        7.703  -5.114  -5.263  0.00  0.00    +0.001 A 
ATOM     13  C   LIG    1        7.013  -3.991  -5.708  0.00  0.00    +0.001 A 
ATOM     14  C   LIG    1        6.713  -2.963  -4.815  0.00  0.00    +0.009 A 
ATOM     15  C   LIG    1        7.998   0.121  -1.894  0.00  0.00    +0.009 A 
ATOM     16  C   LIG    1        7.097  -3.052  -3.465  0.00  0.00    -0.011 A 
ENDROOT
BRANCH   1  17
ATOM     17  C   LIG    1        4.838  -0.782  -1.290  0.00  0.00    +0.043 C 
BRANCH  17  18
ATOM     18  C   LIG    1        4.024   0.356  -1.936  0.00  0.00    +0.088 C 
BRANCH  18  20
ATOM     19  C   LIG    1        4.448   1.979  -0.176  0.00  0.00    +0.104 C 
ATOM     20  N   LIG    1        3.421   1.278  -0.950  0.00  0.00    -0.308 NA
ATOM     21  C   LIG    1        2.564   2.260  -1.623  0.00  0.00    +0.104 C 
ENDBRANCH  18  20
ENDBRANCH  17  18
ENDBRANCH   1  17
TORSDOF 3
