REMARK  Name = *****
REMARK                            x       y       z     vdW  Elec       q    Type
REMARK                         _______ _______ _______ _____ _____    ______ ____
ROOT
ATOM      1  C   LIG    1        3.662  -8.271  -8.363  0.00  0.00    +0.107 C 
ENDROOT
BRANCH   1   2
ATOM      2  N   LIG    1        3.920  -8.997  -7.096  0.00  0.00    -0.308 N 
ATOM      3  H   LIG    1        3.135  -9.431  -6.620  0.00  0.00    +0.149 HD
ATOM      4  C   LIG    1        5.197  -9.330  -6.677  0.00  0.00    +0.234 C 
ATOM      5  O   LIG    1        6.195  -9.158  -7.373  0.00  0.00    -0.274 OA
BRANCH   4   6
ATOM      6  C   LIG    1        5.258 -10.052  -5.311  0.00  0.00    +0.168 C 
BRANCH   6   7
ATOM      7  N   LIG    1        5.122 -11.495  -5.542  0.00  0.00    -0.298 N 
ATOM      8  H   LIG    1        5.771 -11.969  -6.162  0.00  0.00    +0.150 HD
ATOM      9  C   LIG    1        4.062 -12.227  -5.036  0.00  0.00    +0.263 C 
ATOM     10  O   LIG    1        3.171 -11.749  -4.372  0.00  0.00    -0.269 OA
BRANCH   9  11
ATOM     11  C   LIG    1        4.056 -13.678  -5.421  0.00  0.00    +0.126 A 
ATOM     12  N   LIG    1        5.255 -14.265  -5.673  0.00  0.00    -0.242 NA
ATOM     13  C   LIG    1        5.242 -15.568  -6.020  0.00  0.00    +0.072 A 
ATOM     14  C   LIG    1        4.042 -16.281  -6.246  0.00  0.00    +0.000 A 
ATOM     15  C   LIG    1        4.074 -17.624  -6.657  0.00  0.00    +0.010 A 
ATOM     16  C   LIG    1        5.288 -18.295  -6.769  0.00  0.00    +0.001 A 
ATOM     17  C   LIG    1        6.471 -17.621  -6.489  0.00  0.00    +0.002 A 
ATOM     18  C   LIG    1        2.828 -15.626  -6.011  0.00  0.00    +0.012 A 
ATOM     19  C   LIG    1        6.438 -16.266  -6.137  0.00  0.00    +0.028 A 
ATOM     20  C   LIG    1        2.833 -14.320  -5.539  0.00  0.00    +0.034 A 
ENDBRANCH   9  11
ENDBRANCH   6   7
BRANCH   6  21
ATOM     21  C   LIG    1        6.572  -9.771  -4.581  0.00  0.00    +0.127 C 
BRANCH  21  22
ATOM     22  C   LIG    1        6.750  -8.296  -4.307  0.00  0.00    +0.213 C 
ATOM     23  O   LIG    1        5.928  -7.432  -4.582  0.00  0.00    -0.276 OA
ATOM     24  N   LIG    1        7.918  -7.972  -3.680  0.00  0.00    -0.329 N 
ATOM     25  H   LIG    1        8.089  -6.993  -3.487  0.00  0.00    +0.145 HD
ATOM     26  H   LIG    1        8.601  -8.653  -3.381  0.00  0.00    +0.145 HD
ENDBRANCH  21  22
ENDBRANCH   6  21
ENDBRANCH   4   6
ENDBRANCH   1   2
BRANCH   1  27
ATOM     27  C   LIG    1        2.597  -7.148  -8.134  0.00  0.00    +0.149 C 
BRANCH  27  28
ATOM     28  O   LIG    1        3.173  -6.290  -7.127  0.00  0.00    -0.389 OA
ATOM     29  H   LIG    1        3.013  -6.700  -6.260  0.00  0.00    +0.210 HD
ENDBRANCH  27  28
BRANCH  27  30
ATOM     30  C   LIG    1        2.232  -6.273  -9.387  0.00  0.00    +0.118 C 
BRANCH  30  32
ATOM     31  C   LIG    1        0.924  -4.351 -10.362  0.00  0.00    +0.143 C 
ATOM     32  N   LIG    1        1.235  -5.164  -9.144  0.00  0.00    -0.289 NA
ATOM     33  C   LIG    1        1.716  -4.168  -8.149  0.00  0.00    +0.089 C 
ATOM     34  C   LIG    1        3.051  -3.493  -8.531  0.00  0.00    +0.006 C 
ATOM     35  C   LIG    1        3.022  -2.888  -9.964  0.00  0.00    -0.005 C 
ATOM     36  C   LIG    1        2.588  -1.414  -9.990  0.00  0.00    +0.004 C 
ATOM     37  C   LIG    1        3.363  -0.582  -8.979  0.00  0.00    +0.000 C 
ATOM     38  C   LIG    1        3.070  -1.081  -7.576  0.00  0.00    +0.000 C 
ATOM     39  C   LIG    1        3.515  -2.528  -7.415  0.00  0.00    +0.005 C 
ATOM     40  C   LIG    1        2.179  -3.712 -10.982  0.00  0.00    +0.032 C 
BRANCH  31  43
ATOM     41  N   LIG    1       -1.164  -5.609 -10.768  0.00  0.00    -0.309 N 
ATOM     42  H   LIG    1       -1.050  -5.799  -9.775  0.00  0.00    +0.149 HD
ATOM     43  C   LIG    1       -0.027  -5.073 -11.363  0.00  0.00    +0.231 C 
ATOM     44  O   LIG    1        0.139  -5.019 -12.578  0.00  0.00    -0.274 OA
BRANCH  41  46
ATOM     45  C   LIG    1       -2.139  -7.682 -11.726  0.00  0.00    +0.031 C 
ATOM     46  C   LIG    1       -2.347  -6.185 -11.456  0.00  0.00    +0.026 C 
ATOM     47  C   LIG    1       -3.583  -5.992 -10.551  0.00  0.00    +0.031 C 
ATOM     48  C   LIG    1       -2.684  -5.491 -12.791  0.00  0.00    +0.031 C 
ENDBRANCH  41  46
ENDBRANCH  31  43
ENDBRANCH  30  32
ENDBRANCH  27  30
ENDBRANCH   1  27
BRANCH   1  49
ATOM     49  C   LIG    1        3.454  -9.255  -9.536  0.00  0.00    +0.060 C 
BRANCH  49  50
ATOM     50  C   LIG    1        2.371 -10.302  -9.380  0.00  0.00    -0.045 A 
ATOM     51  C   LIG    1        1.056 -10.057  -9.795  0.00  0.00    +0.003 A 
ATOM     52  C   LIG    1        0.063 -11.027  -9.619  0.00  0.00    +0.000 A 
ATOM     53  C   LIG    1        0.378 -12.267  -9.069  0.00  0.00    +0.000 A 
ATOM     54  C   LIG    1        1.689 -12.539  -8.690  0.00  0.00    +0.000 A 
ATOM     55  C   LIG    1        2.677 -11.562  -8.837  0.00  0.00    +0.003 A 
ENDBRANCH  49  50
ENDBRANCH   1  49
TORSDOF 14
