REMARK  Name = *****
REMARK                            x       y       z     vdW  Elec       q    Type
REMARK                         _______ _______ _______ _____ _____    ______ ____
ROOT
ATOM      1  C1* LIG    1        6.326   0.427   0.375  0.00  0.00    +0.256 C 
ATOM      2  C2* LIG    1        7.224   1.581   0.846  0.00  0.00    +0.195 C 
ATOM      3  C3* LIG    1        8.596   0.922   0.799  0.00  0.00    +0.178 C 
ATOM      4  C4* LIG    1        8.297  -0.513   1.224  0.00  0.00    +0.177 C 
ATOM      5  O4* LIG    1        6.941  -0.803   0.802  0.00  0.00    -0.346 OA
ENDROOT
BRANCH   1  10
ATOM      6  C   LIG    1        2.420   0.402   1.613  0.00  0.00    +0.218 C 
ATOM      7  N   LIG    1        3.327   0.346   2.524  0.00  0.00    -0.159 NA
ATOM      8  C   LIG    1        4.638   0.398   2.167  0.00  0.00    +0.354 C 
ATOM      9  O   LIG    1        5.510   0.395   3.035  0.00  0.00    -0.244 OA
ATOM     10  N   LIG    1        4.950   0.458   0.835  0.00  0.00    -0.254 N 
ATOM     11  C   LIG    1        3.927   0.558  -0.046  0.00  0.00    +0.209 C 
ATOM     12  N   LIG    1        2.689   0.548   0.294  0.00  0.00    -0.205 NA
BRANCH   6  13
ATOM     13  N   LIG    1        1.118   0.333   1.976  0.00  0.00    -0.327 N 
ATOM     14  H   LIG    1        0.971   0.561   2.950  0.00  0.00    +0.145 HD
ATOM     15  H   LIG    1        0.494   0.795   1.328  0.00  0.00    +0.145 HD
ENDBRANCH   6  13
ENDBRANCH   1  10
BRANCH   2  16
ATOM     16  O2* LIG    1        7.162   2.715  -0.021  0.00  0.00    -0.385 OA
ATOM     17  H2* LIG    1        7.837   2.550  -0.715  0.00  0.00    +0.210 HD
ENDBRANCH   2  16
BRANCH   3  18
ATOM     18  O3* LIG    1        9.048   0.970  -0.569  0.00  0.00    -0.386 OA
ATOM     19  H3* LIG    1        9.867   0.443  -0.625  0.00  0.00    +0.210 HD
ENDBRANCH   3  18
BRANCH   4  20
ATOM     20  C5* LIG    1        8.419  -0.717   2.737  0.00  0.00    +0.190 C 
BRANCH  20  21
ATOM     21  O5* LIG    1        8.065  -2.056   3.072  0.00  0.00    -0.392 OA
ATOM     22  H5* LIG    1        7.125  -2.149   2.820  0.00  0.00    +0.209 HD
ENDBRANCH  20  21
ENDBRANCH   4  20
TORSDOF 6
