REMARK  Name = *****
REMARK                            x       y       z     vdW  Elec       q    Type
REMARK                         _______ _______ _______ _____ _____    ______ ____
ROOT
ATOM      1  C   LIG    1        7.103   0.094  -6.435  0.00  0.00    +0.380 C 
ATOM      2  N   LIG    1        6.964  -0.888  -7.430  0.00  0.00    -0.181 N 
ATOM      3  C   LIG    1        7.190  -0.423  -8.832  0.00  0.00    +0.189 C 
ATOM      4  C   LIG    1        8.287   0.647  -8.866  0.00  0.00    +0.033 A 
ATOM      5  C   LIG    1        8.326   1.557  -7.807  0.00  0.00    +0.183 A 
ATOM      6  C   LIG    1        9.025   2.764  -7.984  0.00  0.00    +0.166 A 
ATOM      7  C   LIG    1        9.749   3.026  -9.148  0.00  0.00    +0.042 A 
ATOM      8  C   LIG    1        9.814   2.056 -10.144  0.00  0.00    +0.003 A 
ATOM      9  F   LIG    1        8.972   3.725  -7.048  0.00  0.00    -0.202 F 
ATOM     10  C   LIG    1        9.082   0.872 -10.008  0.00  0.00    +0.010 A 
ATOM     11  N   LIG    1        7.665   1.267  -6.605  0.00  0.00    -0.073 NA
ENDROOT
BRANCH   1  15
ATOM     12  N   LIG    1        5.215  -0.007  -2.636  0.00  0.00    -0.324 N 
ATOM     13  C   LIG    1        6.466   0.761  -2.873  0.00  0.00    +0.140 C 
ATOM     14  C   LIG    1        7.313   0.073  -3.960  0.00  0.00    +0.206 C 
ATOM     15  N   LIG    1        6.537  -0.143  -5.202  0.00  0.00    -0.221 N 
ATOM     16  C   LIG    1        5.236  -0.791  -5.010  0.00  0.00    +0.206 C 
ATOM     17  C   LIG    1        4.427  -0.093  -3.897  0.00  0.00    +0.140 C 
BRANCH  12  20
ATOM     18  C   LIG    1        6.169  -2.342   0.161  0.00  0.00    +0.122 A 
ATOM     19  C   LIG    1        6.242  -1.320  -0.802  0.00  0.00    +0.068 A 
ATOM     20  C   LIG    1        5.203  -1.076  -1.730  0.00  0.00    +0.033 A 
ATOM     21  C   LIG    1        4.089  -1.932  -1.631  0.00  0.00    +0.023 A 
ATOM     22  C   LIG    1        4.011  -2.959  -0.688  0.00  0.00    +0.005 A 
ATOM     23  C   LIG    1        5.043  -3.155   0.211  0.00  0.00    +0.046 A 
BRANCH  18  25
ATOM     24  C   LIG    1        7.127  -3.498   1.980  0.00  0.00    +0.277 C 
ATOM     25  O   LIG    1        7.244  -2.457   1.010  0.00  0.00    -0.495 OA
ENDBRANCH  18  25
ENDBRANCH  12  20
ENDBRANCH   1  15
BRANCH   2  26
ATOM     26  C   LIG    1        6.903  -2.317  -7.211  0.00  0.00    +0.137 A 
ATOM     27  C   LIG    1        6.255  -3.251  -8.076  0.00  0.00    +0.157 A 
ATOM     28  C   LIG    1        6.372  -4.636  -7.845  0.00  0.00    +0.049 A 
ATOM     29  C   LIG    1        6.997  -5.143  -6.720  0.00  0.00    +0.016 A 
ATOM     30  C   LIG    1        7.575  -4.276  -5.804  0.00  0.00    +0.058 A 
ATOM     31  C   LIG    1        7.528  -2.885  -6.061  0.00  0.00    +0.056 A 
BRANCH  30  32
ATOM     32  C   LIG    1        8.294  -4.894  -4.630  0.00  0.00    +0.417 C 
ATOM     33  F   LIG    1        9.281  -5.742  -5.043  0.00  0.00    -0.166 F 
ATOM     34  F   LIG    1        7.469  -5.655  -3.855  0.00  0.00    -0.166 F 
ATOM     35  F   LIG    1        8.888  -4.002  -3.797  0.00  0.00    -0.166 F 
ENDBRANCH  30  32
BRANCH  27  36
ATOM     36  O   LIG    1        5.537  -2.804  -9.159  0.00  0.00    -0.492 OA
ATOM     37  C   LIG    1        4.434  -3.606  -9.610  0.00  0.00    +0.277 C 
ENDBRANCH  27  36
ENDBRANCH   2  26
BRANCH   3  38
ATOM     38  C   LIG    1        5.899   0.253  -9.360  0.00  0.00    +0.164 C 
BRANCH  38  39
ATOM     39  C   LIG    1        6.022   0.748 -10.742  0.00  0.00    +0.308 C 
ATOM     40  O   LIG    1        5.924   0.004 -11.748  0.00  0.00    -0.251 OA
BRANCH  39  41
ATOM     41  O   LIG    1        6.255   2.064 -10.857  0.00  0.00    -0.480 OA
ATOM     42  H   LIG    1        6.435   2.530 -10.020  0.00  0.00    +0.295 HD
ENDBRANCH  39  41
ENDBRANCH  38  39
ENDBRANCH   3  38
TORSDOF 9
