REMARK  Name = *****
REMARK                            x       y       z     vdW  Elec       q    Type
REMARK                         _______ _______ _______ _____ _____    ______ ____
ROOT
ATOM      1  C   LIG    1       -4.279  -0.877   1.227  0.00  0.00    +0.176 C 
ATOM      2  C   LIG    1       -4.967  -1.533   2.546  0.00  0.00    +0.019 C 
ATOM      3  C   LIG    1       -5.847  -0.538   3.351  0.00  0.00    +0.016 C 
ATOM      4  C   LIG    1       -3.769  -1.841   3.522  0.00  0.00    +0.006 C 
ATOM      5  C   LIG    1       -3.899  -3.090   4.429  0.00  0.00    +0.020 C 
ATOM      6  C   LIG    1       -4.534  -4.274   3.709  0.00  0.00    -0.055 C 
ATOM      7  C   LIG    1       -5.930  -3.944   3.163  0.00  0.00    +0.046 C 
ATOM      8  C   LIG    1       -3.934  -5.492   3.666  0.00  0.00    -0.044 C 
ATOM      9  C   LIG    1       -2.768  -5.769   4.512  0.00  0.00    -0.041 C 
ATOM     10  C   LIG    1       -1.939  -6.804   4.304  0.00  0.00    +0.050 C 
ATOM     11  C   LIG    1       -2.126  -7.706   3.148  0.00  0.00    +0.157 C 
ATOM     12  O   LIG    1       -1.328  -8.622   2.963  0.00  0.00    -0.293 OA
ATOM     13  C   LIG    1       -3.251  -7.410   2.188  0.00  0.00    +0.083 C 
ATOM     14  C   LIG    1       -2.573  -4.840   5.681  0.00  0.00    +0.036 C 
ATOM     15  C   LIG    1       -4.409  -6.702   2.889  0.00  0.00    +0.043 C 
ATOM     16  C   LIG    1       -2.574  -3.416   5.152  0.00  0.00    +0.013 C 
ATOM     17  C   LIG    1       -2.513  -1.698   2.671  0.00  0.00    +0.009 C 
ATOM     18  C   LIG    1       -5.818  -2.782   2.152  0.00  0.00    +0.024 C 
ATOM     19  C   LIG    1       -2.857  -0.560   1.721  0.00  0.00    +0.057 C 
ENDROOT
BRANCH   7  20
ATOM     20  C   LIG    1       -7.001  -3.786   4.252  0.00  0.00    -0.040 A 
ATOM     21  C   LIG    1       -8.089  -2.919   4.116  0.00  0.00    +0.006 A 
ATOM     22  C   LIG    1       -9.085  -2.818   5.099  0.00  0.00    +0.023 A 
ATOM     23  C   LIG    1       -9.091  -3.622   6.243  0.00  0.00    +0.029 A 
ATOM     24  C   LIG    1       -7.992  -4.485   6.378  0.00  0.00    +0.023 A 
ATOM     25  C   LIG    1       -6.982  -4.581   5.404  0.00  0.00    +0.006 A 
BRANCH  23  26
ATOM     26  N   LIG    1      -10.105  -3.545   7.210  0.00  0.00    -0.336 N 
ATOM     27  C   LIG    1      -11.279  -2.721   6.911  0.00  0.00    +0.129 C 
ATOM     28  C   LIG    1      -10.395  -4.762   7.970  0.00  0.00    +0.129 C 
ENDBRANCH  23  26
ENDBRANCH   7  20
BRANCH   1  29
ATOM     29  C   LIG    1       -4.993   0.414   0.726  0.00  0.00    +0.174 C 
ATOM     30  O   LIG    1       -4.755   1.523   1.216  0.00  0.00    -0.293 OA
ATOM     31  C   LIG    1       -6.057   0.292  -0.342  0.00  0.00    +0.090 C 
ENDBRANCH   1  29
BRANCH   1  32
ATOM     32  O   LIG    1       -4.181  -1.899   0.191  0.00  0.00    -0.450 OA
BRANCH  32  34
ATOM     33  C   LIG    1       -3.596  -2.874  -1.900  0.00  0.00    +0.136 C 
ATOM     34  C   LIG    1       -3.549  -1.661  -0.981  0.00  0.00    +0.305 C 
ATOM     35  O   LIG    1       -3.022  -0.624  -1.291  0.00  0.00    -0.251 OA
ENDBRANCH  32  34
ENDBRANCH   1  32
TORSDOF 5
