REMARK  Name = *****
REMARK                            x       y       z     vdW  Elec       q    Type
REMARK                         _______ _______ _______ _____ _____    ______ ____
ROOT
ATOM      1  C   LIG    1        1.488   0.214   0.770  0.00  0.00    +0.134 C 
ATOM      2  N   LIG    1        2.580   0.148  -0.192  0.00  0.00    -0.279 N 
ATOM      3  C   LIG    1        3.446  -1.051  -0.127  0.00  0.00    +0.249 C 
ATOM      4  S   LIG    1        4.535  -1.334  -1.552  0.00  0.00    -0.007 S 
ATOM      5  O   LIG    1        5.685  -2.141  -1.192  0.00  0.00    -0.172 OA
ATOM      6  O   LIG    1        3.716  -1.710  -2.692  0.00  0.00    -0.172 OA
ATOM      7  C   LIG    1        5.093   0.320  -1.826  0.00  0.00    +0.177 C 
ATOM      8  C   LIG    1        3.911   1.240  -2.005  0.00  0.00    +0.118 C 
ATOM      9  C   LIG    1        2.950   1.321  -0.832  0.00  0.00    +0.218 C 
ATOM     10  O   LIG    1        2.441   2.406  -0.548  0.00  0.00    -0.276 OA
ENDROOT
BRANCH   3  11
ATOM     11  C   LIG    1        4.279  -1.123   1.152  0.00  0.00    -0.006 A 
ATOM     12  C   LIG    1        4.505  -2.376   1.754  0.00  0.00    +0.008 A 
ATOM     13  C   LIG    1        5.268  -2.487   2.920  0.00  0.00    +0.020 A 
ATOM     14  C   LIG    1        5.811  -1.347   3.502  0.00  0.00    +0.041 A 
ATOM     15 CL   LIG    1        6.746  -1.481   4.939  0.00  0.00    -0.084 Cl
ATOM     16  C   LIG    1        5.598  -0.097   2.928  0.00  0.00    +0.020 A 
ATOM     17  C   LIG    1        4.838   0.016   1.760  0.00  0.00    +0.008 A 
ENDBRANCH   3  11
TORSDOF 1
