REMARK  Name = *****
REMARK                            x       y       z     vdW  Elec       q    Type
REMARK                         _______ _______ _______ _____ _____    ______ ____
ROOT
ATOM      1  C   LIG    1        3.264  -2.209  -1.065  0.00  0.00    +0.264 C 
ATOM      2  C   LIG    1        1.739  -2.122  -1.438  0.00  0.00    +0.257 C 
ATOM      3  O   LIG    1        1.138  -1.064  -1.185  0.00  0.00    -0.272 OA
ATOM      4  N   LIG    1        0.998  -3.257  -1.784  0.00  0.00    -0.288 N 
ATOM      5  C   LIG    1       -0.279  -3.337  -1.070  0.00  0.00    +0.133 C 
ATOM      6  C   LIG    1        0.858  -3.764  -3.187  0.00  0.00    +0.187 C 
ATOM      7  C   LIG    1        1.345  -5.271  -3.406  0.00  0.00    +0.329 C 
ATOM      8  O   LIG    1        1.135  -5.925  -4.437  0.00  0.00    -0.249 OA
ATOM      9  O   LIG    1        1.962  -5.747  -2.299  0.00  0.00    -0.450 OA
ATOM     10  C   LIG    1        2.317  -7.161  -2.291  0.00  0.00    +0.264 C 
ATOM     11  C   LIG    1        3.323  -7.562  -3.428  0.00  0.00    +0.257 C 
ATOM     12  O   LIG    1        3.114  -8.464  -4.241  0.00  0.00    -0.272 OA
ATOM     13  N   LIG    1        4.583  -6.921  -3.344  0.00  0.00    -0.288 N 
ATOM     14  C   LIG    1        5.393  -7.632  -2.358  0.00  0.00    +0.133 C 
ATOM     15  C   LIG    1        5.347  -6.659  -4.613  0.00  0.00    +0.187 C 
ATOM     16  C   LIG    1        6.491  -5.599  -4.447  0.00  0.00    +0.329 C 
ATOM     17  O   LIG    1        7.341  -5.417  -5.316  0.00  0.00    -0.249 OA
ATOM     18  O   LIG    1        6.516  -4.932  -3.244  0.00  0.00    -0.450 OA
ATOM     19  C   LIG    1        7.816  -4.403  -2.938  0.00  0.00    +0.264 C 
ATOM     20  C   LIG    1        8.233  -3.021  -3.516  0.00  0.00    +0.257 C 
ATOM     21  O   LIG    1        9.262  -2.953  -4.203  0.00  0.00    -0.272 OA
ATOM     22  N   LIG    1        7.656  -1.854  -3.017  0.00  0.00    -0.288 N 
ATOM     23  C   LIG    1        8.602  -0.757  -2.811  0.00  0.00    +0.133 C 
ATOM     24  C   LIG    1        6.251  -1.412  -3.266  0.00  0.00    +0.187 C 
ATOM     25  C   LIG    1        5.334  -1.562  -2.035  0.00  0.00    +0.329 C 
ATOM     26  O   LIG    1        5.635  -0.960  -1.000  0.00  0.00    -0.249 OA
ATOM     27  O   LIG    1        4.200  -2.322  -2.172  0.00  0.00    -0.450 OA
ENDROOT
BRANCH   1  29
ATOM     28  C   LIG    1        2.550  -3.051   1.275  0.00  0.00    +0.011 C 
ATOM     29  C   LIG    1        3.519  -3.229   0.094  0.00  0.00    +0.033 C 
ATOM     30  C   LIG    1        4.918  -3.112   0.712  0.00  0.00    +0.011 C 
ENDBRANCH   1  29
BRANCH   6  31
ATOM     31  C   LIG    1        1.186  -2.774  -4.369  0.00  0.00    +0.014 C 
ATOM     32  C   LIG    1        0.543  -3.239  -5.694  0.00  0.00    +0.009 C 
ATOM     33  C   LIG    1        0.670  -1.340  -4.163  0.00  0.00    +0.009 C 
ENDBRANCH   6  31
BRANCH  10  34
ATOM     34  C   LIG    1        1.044  -8.080  -2.248  0.00  0.00    +0.033 C 
ATOM     35  C   LIG    1        1.387  -9.553  -1.964  0.00  0.00    +0.011 C 
ATOM     36  C   LIG    1        0.052  -7.618  -1.174  0.00  0.00    +0.011 C 
ENDBRANCH  10  34
BRANCH  15  37
ATOM     37  C   LIG    1        4.478  -6.333  -5.867  0.00  0.00    +0.014 C 
ATOM     38  C   LIG    1        3.769  -4.994  -5.770  0.00  0.00    +0.009 C 
ATOM     39  C   LIG    1        5.243  -6.387  -7.197  0.00  0.00    +0.009 C 
ENDBRANCH  15  37
BRANCH  19  40
ATOM     40  C   LIG    1        8.126  -4.423  -1.409  0.00  0.00    +0.033 C 
ATOM     41  C   LIG    1        9.625  -4.206  -1.131  0.00  0.00    +0.011 C 
ATOM     42  C   LIG    1        7.724  -5.737  -0.740  0.00  0.00    +0.011 C 
ENDBRANCH  19  40
BRANCH  24  43
ATOM     43  C   LIG    1        5.658  -1.619  -4.678  0.00  0.00    +0.014 C 
ATOM     44  C   LIG    1        4.540  -0.586  -4.930  0.00  0.00    +0.009 C 
ATOM     45  C   LIG    1        6.691  -1.420  -5.800  0.00  0.00    +0.009 C 
ENDBRANCH  24  43
TORSDOF 6
