REMARK  Name = *****
REMARK                            x       y       z     vdW  Elec       q    Type
REMARK                         _______ _______ _______ _____ _____    ______ ____
ROOT
ATOM      1  C   LIG    1        6.965   2.893  -2.565  0.00  0.00    +0.185 C 
ENDROOT
BRANCH   1   2
ATOM      2  O   LIG    1        7.831   3.941  -2.080  0.00  0.00    -0.386 OA
ATOM      3  H   LIG    1        8.721   3.538  -1.982  0.00  0.00    +0.210 HD
ENDBRANCH   1   2
BRANCH   1   4
ATOM      4  C   LIG    1        7.332   2.510  -4.014  0.00  0.00    +0.254 C 
BRANCH   4   6
ATOM      5  O   LIG    1        5.248   1.247  -4.143  0.00  0.00    -0.248 OA
ATOM      6  C   LIG    1        6.385   1.417  -4.524  0.00  0.00    +0.336 C 
BRANCH   6   7
ATOM      7  O   LIG    1        6.978   0.650  -5.477  0.00  0.00    -0.479 OA
ATOM      8  H   LIG    1        7.896   0.967  -5.626  0.00  0.00    +0.295 HD
ENDBRANCH   6   7
ENDBRANCH   4   6
BRANCH   4   9
ATOM      9  O   LIG    1        8.698   2.087  -4.156  0.00  0.00    -0.378 OA
ATOM     10  H   LIG    1        8.944   1.643  -3.313  0.00  0.00    +0.211 HD
ENDBRANCH   4   9
ENDBRANCH   1   4
BRANCH   1  11
ATOM     11  C   LIG    1        7.057   1.716  -1.574  0.00  0.00    +0.185 C 
BRANCH  11  12
ATOM     12  O   LIG    1        8.424   1.235  -1.624  0.00  0.00    -0.386 OA
ATOM     13  H   LIG    1        8.453   0.479  -0.998  0.00  0.00    +0.210 HD
ENDBRANCH  11  12
BRANCH  11  14
ATOM     14  C   LIG    1        6.691   2.120  -0.130  0.00  0.00    +0.254 C 
BRANCH  14  15
ATOM     15  O   LIG    1        6.865   0.968   0.709  0.00  0.00    -0.378 OA
ATOM     16  H   LIG    1        6.319   1.121   1.507  0.00  0.00    +0.211 HD
ENDBRANCH  14  15
BRANCH  14  17
ATOM     17  C   LIG    1        5.248   2.633  -0.070  0.00  0.00    +0.336 C 
ATOM     18  O   LIG    1        4.284   1.920   0.174  0.00  0.00    -0.248 OA
BRANCH  17  19
ATOM     19  O   LIG    1        5.127   3.967  -0.256  0.00  0.00    -0.479 OA
ATOM     20  H   LIG    1        5.967   4.452  -0.401  0.00  0.00    +0.295 HD
ENDBRANCH  17  19
ENDBRANCH  14  17
ENDBRANCH  11  14
ENDBRANCH   1  11
TORSDOF 11
