REMARK  Name = *****
REMARK                            x       y       z     vdW  Elec       q    Type
REMARK                         _______ _______ _______ _____ _____    ______ ____
ROOT
ATOM      1  C   LIG    1        9.315 -11.628  -5.892  0.00  0.00    +0.017 C 
ATOM      2  C   LIG    1       10.612 -11.251  -6.353  0.00  0.00    +0.127 C 
ATOM      3  C   LIG    1       11.339 -10.200  -5.736  0.00  0.00    +0.069 C 
ATOM      4  C   LIG    1       10.816  -9.516  -4.658  0.00  0.00    +0.037 C 
ATOM      5  N   LIG    1       11.366  -8.469  -3.947  0.00  0.00    -0.325 NA
ATOM      6  C   LIG    1       10.490  -8.192  -2.790  0.00  0.00    +0.132 C 
ATOM      7  C   LIG    1       11.039  -8.684  -1.384  0.00  0.00    +0.220 C 
ATOM      8  C   LIG    1        9.940  -9.074  -0.290  0.00  0.00    +0.232 C 
ATOM      9  C   LIG    1        8.539  -8.464  -0.646  0.00  0.00    +0.045 C 
ATOM     10  C   LIG    1        8.193  -9.098  -2.044  0.00  0.00    +0.083 C 
ATOM     11  N   LIG    1        6.879  -8.558  -2.397  0.00  0.00    -0.294 NA
ATOM     12  C   LIG    1        5.815  -9.239  -1.692  0.00  0.00    +0.112 C 
ATOM     13  C   LIG    1        6.148  -9.229  -0.213  0.00  0.00    -0.015 C 
ATOM     14  C   LIG    1        6.808  -8.308  -3.811  0.00  0.00    +0.086 C 
ATOM     15  C   LIG    1        8.231  -7.797  -4.052  0.00  0.00    +0.030 C 
ATOM     16  C   LIG    1        7.353  -8.862   0.277  0.00  0.00    -0.018 C 
ATOM     17  C   LIG    1        9.109  -8.762  -3.212  0.00  0.00    +0.037 C 
ATOM     18  C   LIG    1       12.619  -7.795  -4.173  0.00  0.00    +0.130 C 
ATOM     19  C   LIG    1        9.544  -9.854  -4.195  0.00  0.00    -0.016 C 
ATOM     20  C   LIG    1        8.810 -10.896  -4.776  0.00  0.00    +0.014 C 
ENDROOT
BRANCH   1  27
ATOM     21  C   LIG    1        6.903 -16.797  -6.763  0.00  0.00    -0.059 C 
ATOM     22  C   LIG    1        6.251 -16.266  -8.035  0.00  0.00    +0.115 C 
ATOM     23  N   LIG    1        6.256 -14.815  -7.941  0.00  0.00    -0.294 NA
ATOM     24  C   LIG    1        6.191 -14.012  -9.119  0.00  0.00    +0.122 C 
ATOM     25  C   LIG    1        6.679 -12.608  -8.800  0.00  0.00    -0.004 C 
ATOM     26  C   LIG    1        7.538 -12.109  -7.790  0.00  0.00    +0.043 C 
ATOM     27  C   LIG    1        8.392 -12.764  -6.624  0.00  0.00    +0.136 C 
ATOM     28  C   LIG    1        7.469 -13.390  -5.488  0.00  0.00    +0.038 C 
ATOM     29  C   LIG    1        6.484 -14.582  -5.642  0.00  0.00    +0.027 C 
ATOM     30  N   LIG    1        7.564 -10.734  -7.982  0.00  0.00    -0.356 NA
ATOM     31  H   LIG    1        8.097 -10.085  -7.421  0.00  0.00    +0.166 HD
ATOM     32  C   LIG    1        6.811 -10.345  -9.063  0.00  0.00    +0.047 C 
ATOM     33  C   LIG    1        6.582  -9.071  -9.604  0.00  0.00    +0.026 C 
ATOM     34  C   LIG    1        5.778  -8.980 -10.747  0.00  0.00    +0.002 C 
ATOM     35  C   LIG    1        5.229 -10.118 -11.329  0.00  0.00    +0.001 C 
ATOM     36  C   LIG    1        5.463 -11.377 -10.770  0.00  0.00    +0.010 C 
ATOM     37  C   LIG    1        6.265 -11.495  -9.612  0.00  0.00    +0.004 C 
ATOM     38  C   LIG    1        5.501 -14.365  -6.793  0.00  0.00    +0.092 C 
ATOM     39  C   LIG    1        7.093 -15.981  -5.697  0.00  0.00    -0.022 C 
BRANCH  21  41
ATOM     40  C   LIG    1        6.308 -19.187  -6.226  0.00  0.00    +0.008 C 
ATOM     41  C   LIG    1        7.369 -18.231  -6.759  0.00  0.00    +0.028 C 
ENDBRANCH  21  41
BRANCH  27  42
ATOM     42  C   LIG    1        9.322 -13.908  -7.122  0.00  0.00    +0.324 C 
ATOM     43  O   LIG    1       10.043 -14.555  -6.360  0.00  0.00    -0.249 OA
BRANCH  42  44
ATOM     44  O   LIG    1        9.310 -14.087  -8.474  0.00  0.00    -0.467 OA
ATOM     45  C   LIG    1       10.155 -15.120  -8.982  0.00  0.00    +0.280 C 
ENDBRANCH  42  44
ENDBRANCH  27  42
ENDBRANCH   1  27
BRANCH   2  46
ATOM     46  O   LIG    1       11.123 -11.889  -7.458  0.00  0.00    -0.495 OA
ATOM     47  C   LIG    1       12.549 -11.996  -7.495  0.00  0.00    +0.277 C 
ENDBRANCH   2  46
BRANCH   7  48
ATOM     48  C   LIG    1       12.119  -9.777  -1.434  0.00  0.00    +0.345 C 
ATOM     49  O   LIG    1       13.108  -9.767  -0.700  0.00  0.00    -0.247 OA
BRANCH  48  50
ATOM     50  O   LIG    1       11.775 -10.785  -2.260  0.00  0.00    -0.466 OA
ATOM     51  C   LIG    1       12.194 -12.093  -1.897  0.00  0.00    +0.280 C 
ENDBRANCH  48  50
ENDBRANCH   7  48
BRANCH   7  52
ATOM     52  O   LIG    1       11.747  -7.517  -0.826  0.00  0.00    -0.373 OA
ATOM     53  H   LIG    1       12.426  -7.871  -0.211  0.00  0.00    +0.211 HD
ENDBRANCH   7  52
BRANCH   9  54
ATOM     54  C   LIG    1        8.572  -6.896  -0.596  0.00  0.00    +0.013 C 
ATOM     55  C   LIG    1        8.785  -6.274   0.787  0.00  0.00    +0.005 C 
ENDBRANCH   9  54
BRANCH   8  56
ATOM     56  O   LIG    1        9.743 -10.519  -0.157  0.00  0.00    -0.457 OA
BRANCH  56  57
ATOM     57  C   LIG    1        9.253 -10.938   1.048  0.00  0.00    +0.304 C 
ATOM     58  O   LIG    1        9.385 -10.321   2.119  0.00  0.00    -0.251 OA
ATOM     59  C   LIG    1        8.365 -12.134   0.893  0.00  0.00    +0.136 C 
ENDBRANCH  56  57
ENDBRANCH   8  56
TORSDOF 11
