REMARK  Name = *****
REMARK                            x       y       z     vdW  Elec       q    Type
REMARK                         _______ _______ _______ _____ _____    ______ ____
ROOT
ATOM      1  C   LIG    1        4.213  -2.495  -4.374  0.00  0.00    +0.008 C 
ATOM      2  C   LIG    1        4.197  -3.695  -4.980  0.00  0.00    +0.012 C 
ENDROOT
BRANCH   1   6
ATOM      3  C   LIG    1        3.420  -1.750  -0.231  0.00  0.00    +0.065 A 
ATOM      4  C   LIG    1        2.804  -2.829  -0.870  0.00  0.00    +0.016 A 
ATOM      5  C   LIG    1        3.063  -3.089  -2.219  0.00  0.00    +0.009 A 
ATOM      6  C   LIG    1        3.948  -2.280  -2.944  0.00  0.00    -0.025 A 
ATOM      7  C   LIG    1        4.560  -1.198  -2.294  0.00  0.00    +0.009 A 
ATOM      8  C   LIG    1        4.309  -0.939  -0.942  0.00  0.00    +0.016 A 
BRANCH   3  11
ATOM      9  N   LIG    1        4.011  -0.892   1.940  0.00  0.00    -0.099 NA
ATOM     10  H   LIG    1        3.658  -0.815   2.894  0.00  0.00    +0.363 HD
ATOM     11  C   LIG    1        3.118  -1.460   1.200  0.00  0.00    +0.308 C 
BRANCH  11  12
ATOM     12  N   LIG    1        1.893  -1.782   1.711  0.00  0.00    -0.247 N 
ATOM     13  H   LIG    1        1.137  -1.827   1.035  0.00  0.00    +0.288 HD
ATOM     14  H   LIG    1        1.618  -1.271   2.540  0.00  0.00    +0.288 HD
ENDBRANCH  11  12
ENDBRANCH   3  11
ENDBRANCH   1   6
BRANCH   2  15
ATOM     15  C   LIG    1        4.473  -3.916  -6.412  0.00  0.00    +0.017 A 
ATOM     16  C   LIG    1        3.907  -5.007  -7.095  0.00  0.00    +0.125 A 
ATOM     17  C   LIG    1        4.190  -5.246  -8.443  0.00  0.00    +0.061 A 
ATOM     18  C   LIG    1        5.059  -4.390  -9.129  0.00  0.00    +0.068 A 
ATOM     19  C   LIG    1        5.636  -3.305  -8.465  0.00  0.00    +0.017 A 
ATOM     20  C   LIG    1        5.354  -3.080  -7.115  0.00  0.00    +0.012 A 
BRANCH  18  21
ATOM     21  C   LIG    1        5.364  -4.639 -10.563  0.00  0.00    +0.308 C 
ATOM     22  N   LIG    1        6.494  -4.322 -11.111  0.00  0.00    -0.099 NA
ATOM     23  H   LIG    1        7.149  -3.934 -10.426  0.00  0.00    +0.363 HD
BRANCH  21  24
ATOM     24  N   LIG    1        4.437  -5.219 -11.377  0.00  0.00    -0.247 N 
ATOM     25  H   LIG    1        4.736  -5.151 -12.347  0.00  0.00    +0.288 HD
ATOM     26  H   LIG    1        3.485  -4.896 -11.252  0.00  0.00    +0.288 HD
ENDBRANCH  21  24
ENDBRANCH  18  21
BRANCH  16  27
ATOM     27  O   LIG    1        3.058  -5.851  -6.426  0.00  0.00    -0.506 OA
ATOM     28  H   LIG    1        2.750  -6.544  -7.032  0.00  0.00    +0.292 HD
ENDBRANCH  16  27
ENDBRANCH   2  15
TORSDOF 7
