REMARK  Name = *****
REMARK                            x       y       z     vdW  Elec       q    Type
REMARK                         _______ _______ _______ _____ _____    ______ ____
ROOT
ATOM      1  C   LIG    1        9.120  -2.274   0.770  0.00  0.00    +0.339 C 
ATOM      2  C   LIG    1        9.982  -1.947   2.022  0.00  0.00    +0.214 C 
ATOM      3  C   LIG    1        9.550  -2.809   3.218  0.00  0.00    +0.180 C 
ATOM      4  C   LIG    1        9.592  -4.303   2.835  0.00  0.00    +0.177 C 
ATOM      5  C   LIG    1        8.969  -4.543   1.443  0.00  0.00    +0.179 C 
ATOM      6  O   LIG    1        8.232  -3.382   1.006  0.00  0.00    -0.331 OA
ENDROOT
BRANCH   2   7
ATOM      7  O   LIG    1       11.368  -2.244   1.742  0.00  0.00    -0.383 OA
ATOM      8  H   LIG    1       11.727  -1.485   1.242  0.00  0.00    +0.210 HD
ENDBRANCH   2   7
BRANCH   3   9
ATOM      9  O   LIG    1        8.251  -2.424   3.674  0.00  0.00    -0.386 OA
ATOM     10  H   LIG    1        7.603  -2.669   2.986  0.00  0.00    +0.210 HD
ENDBRANCH   3   9
BRANCH   4  11
ATOM     11  O   LIG    1       10.944  -4.779   2.812  0.00  0.00    -0.387 OA
ATOM     12  H   LIG    1       11.504  -4.060   2.447  0.00  0.00    +0.210 HD
ENDBRANCH   4  11
BRANCH   1  13
ATOM     13  O   LIG    1        8.349  -1.110   0.436  0.00  0.00    -0.457 OA
BRANCH  13  20
ATOM     14  O   LIG    1        7.281  -0.184  -7.072  0.00  0.00    -0.245 OA
ATOM     15  C   LIG    1        7.632  -0.412  -5.915  0.00  0.00    +0.337 C 
ATOM     16  O   LIG    1        6.887  -0.006  -4.818  0.00  0.00    -0.422 OA
ATOM     17  C   LIG    1        7.304  -0.303  -3.505  0.00  0.00    +0.143 A 
ATOM     18  C   LIG    1        8.497  -0.983  -3.273  0.00  0.00    +0.021 A 
ATOM     19  C   LIG    1        8.888  -1.260  -1.959  0.00  0.00    +0.061 A 
ATOM     20  C   LIG    1        8.063  -0.901  -0.889  0.00  0.00    +0.166 A 
ATOM     21  C   LIG    1        6.872  -0.209  -1.157  0.00  0.00    +0.162 A 
ATOM     22  C   LIG    1        9.307  -1.401  -4.406  0.00  0.00    +0.019 C 
ATOM     23  C   LIG    1        6.485   0.101  -2.457  0.00  0.00    +0.096 A 
ATOM     24  C   LIG    1        8.887  -1.135  -5.646  0.00  0.00    +0.092 C 
BRANCH  21  25
ATOM     25  O   LIG    1        6.041   0.170  -0.139  0.00  0.00    -0.503 OA
ATOM     26  H   LIG    1        6.439  -0.175   0.681  0.00  0.00    +0.292 HD
ENDBRANCH  21  25
ENDBRANCH  13  20
ENDBRANCH   1  13
BRANCH   5  27
ATOM     27  C   LIG    1        8.011  -5.740   1.464  0.00  0.00    +0.190 C 
BRANCH  27  28
ATOM     28  O   LIG    1        7.509  -6.001   0.153  0.00  0.00    -0.392 OA
ATOM     29  H   LIG    1        7.290  -5.139  -0.247  0.00  0.00    +0.209 HD
ENDBRANCH  27  28
ENDBRANCH   5  27
TORSDOF 8
