REMARK  Name = *****
REMARK                            x       y       z     vdW  Elec       q    Type
REMARK                         _______ _______ _______ _____ _____    ______ ____
ROOT
ATOM      1  C   LIG    1        0.365  -3.405  -3.379  0.00  0.00    +0.086 C 
ENDROOT
BRANCH   1   5
ATOM      2  C   LIG    1       -2.337  -0.015  -3.596  0.00  0.00    +0.101 C 
ATOM      3  C   LIG    1       -1.184  -0.033  -2.566  0.00  0.00    +0.047 C 
ATOM      4  C   LIG    1       -0.557  -1.420  -2.403  0.00  0.00    +0.086 C 
ATOM      5  N   LIG    1       -0.110  -2.025  -3.666  0.00  0.00    -0.302 NA
ATOM      6  C   LIG    1       -1.160  -2.004  -4.697  0.00  0.00    +0.086 C 
ATOM      7  C   LIG    1       -1.773  -0.613  -4.907  0.00  0.00    +0.047 C 
BRANCH   2   8
ATOM      8  N   LIG    1       -2.933   1.370  -3.818  0.00  0.00    -0.289 NA
ATOM      9  C   LIG    1       -1.977   2.338  -4.399  0.00  0.00    +0.085 C 
ATOM     10  C   LIG    1       -2.610   3.707  -4.669  0.00  0.00    +0.015 C 
ATOM     11  C   LIG    1       -3.238   4.292  -3.414  0.00  0.00    +0.002 C 
ATOM     12  C   LIG    1       -4.189   3.281  -2.793  0.00  0.00    +0.015 C 
ATOM     13  C   LIG    1       -3.498   1.934  -2.568  0.00  0.00    +0.085 C 
ENDBRANCH   2   8
BRANCH   2  17
ATOM     14  N   LIG    1       -4.542  -1.171  -3.945  0.00  0.00    -0.328 N 
ATOM     15  H   LIG    1       -4.723  -0.515  -4.692  0.00  0.00    +0.145 HD
ATOM     16  H   LIG    1       -5.327  -1.679  -3.554  0.00  0.00    +0.145 HD
ATOM     17  C   LIG    1       -3.499  -0.956  -3.085  0.00  0.00    +0.231 C 
ATOM     18  O   LIG    1       -3.534  -1.476  -1.981  0.00  0.00    -0.274 OA
ENDBRANCH   2  17
ENDBRANCH   1   5
BRANCH   1  19
ATOM     19  C   LIG    1        0.965  -4.106  -4.600  0.00  0.00    +0.035 C 
BRANCH  19  20
ATOM     20  C   LIG    1        1.444  -5.540  -4.309  0.00  0.00    +0.112 C 
BRANCH  20  21
ATOM     21  N   LIG    1        2.053  -6.185  -5.508  0.00  0.00    -0.299 N 
ATOM     22  C   LIG    1        1.399  -6.029  -6.745  0.00  0.00    +0.038 A 
ATOM     23  C   LIG    1        2.006  -5.476  -7.890  0.00  0.00    -0.026 A 
ATOM     24  C   LIG    1        1.256  -5.382  -9.086  0.00  0.00    +0.007 A 
ATOM     25  C   LIG    1       -0.061  -5.832  -9.162  0.00  0.00    +0.020 A 
ATOM     26  C   LIG    1       -0.647  -6.395  -8.041  0.00  0.00    +0.043 A 
ATOM     27 CL   LIG    1       -2.253  -7.005  -8.129  0.00  0.00    -0.084 Cl
ATOM     28  C   LIG    1        3.446  -5.013  -7.985  0.00  0.00    +0.041 C 
ATOM     29  C   LIG    1        4.213  -4.648  -6.713  0.00  0.00    +0.041 C 
ATOM     30  C   LIG    1        4.464  -5.836  -5.826  0.00  0.00    -0.026 A 
ATOM     31  C   LIG    1        5.777  -6.203  -5.489  0.00  0.00    +0.005 A 
ATOM     32  C   LIG    1        6.025  -7.337  -4.714  0.00  0.00    +0.000 A 
ATOM     33  C   LIG    1        4.964  -8.126  -4.286  0.00  0.00    +0.002 A 
ATOM     34  C   LIG    1        3.657  -7.743  -4.581  0.00  0.00    +0.024 A 
ATOM     35  C   LIG    1        0.069  -6.491  -6.849  0.00  0.00    +0.043 A 
ATOM     36  C   LIG    1        3.390  -6.578  -5.320  0.00  0.00    +0.037 A 
ENDBRANCH  20  21
ENDBRANCH  19  20
ENDBRANCH   1  19
TORSDOF 6
