REMARK  Name = *****
REMARK                            x       y       z     vdW  Elec       q    Type
REMARK                         _______ _______ _______ _____ _____    ______ ____
ROOT
ATOM      1  S   LIG    1        2.489  -1.752  -0.433  0.00  0.00    +0.024 S 
ENDROOT
BRANCH   1   4
ATOM      2  O   LIG    1        5.511  -1.732  -0.208  0.00  0.00    -0.619 OA
ATOM      3  N   LIG    1        5.069  -1.162  -1.265  0.00  0.00    -0.165 NA
ATOM      4  C   LIG    1        3.700  -1.020  -1.532  0.00  0.00    +0.265 C 
ATOM      5  C   LIG    1        3.282  -0.373  -2.708  0.00  0.00    +0.088 C 
ATOM      6  C   LIG    1        4.221   0.094  -3.630  0.00  0.00    +0.013 C 
ATOM      7  C   LIG    1        5.575  -0.082  -3.388  0.00  0.00    +0.071 C 
ATOM      8  C   LIG    1        5.979  -0.695  -2.205  0.00  0.00    +0.323 C 
ENDBRANCH   1   4
BRANCH   1   9
ATOM      9  S   LIG    1        1.976  -0.181   0.786  0.00  0.00    +0.024 S 
BRANCH   9  10
ATOM     10  C   LIG    1        3.412  -0.071   1.845  0.00  0.00    +0.265 C 
ATOM     11  N   LIG    1        4.462   0.790   1.511  0.00  0.00    -0.165 NA
ATOM     12  O   LIG    1        4.442   1.530   0.463  0.00  0.00    -0.619 OA
ATOM     13  C   LIG    1        5.561   0.863   2.359  0.00  0.00    +0.323 C 
ATOM     14  C   LIG    1        5.640   0.110   3.527  0.00  0.00    +0.071 C 
ATOM     15  C   LIG    1        4.596  -0.744   3.859  0.00  0.00    +0.013 C 
ATOM     16  C   LIG    1        3.483  -0.837   3.025  0.00  0.00    +0.088 C 
ENDBRANCH   9  10
ENDBRANCH   1   9
TORSDOF 3
