REMARK  Name = *****
REMARK                            x       y       z     vdW  Elec       q    Type
REMARK                         _______ _______ _______ _____ _____    ______ ____
ROOT
ATOM      1  N   LIG    1        0.317   3.655   1.126  0.00  0.00    -0.302 NA
ATOM      2  H   LIG    1        0.065   2.732   1.493  0.00  0.00    +0.123 HD
ENDROOT
BRANCH   1   3
ATOM      3  C   LIG    1       -0.897   4.308   0.583  0.00  0.00    +0.023 C 
ATOM      4  C   LIG    1       -1.497   3.415  -0.547  0.00  0.00    +0.026 C 
ATOM      5  C   LIG    1       -2.757   4.068  -1.157  0.00  0.00    -0.006 C 
ATOM      6  C   LIG    1       -3.807   4.263  -0.053  0.00  0.00    +0.038 C 
ATOM      7  C   LIG    1       -3.241   5.171   1.047  0.00  0.00    +0.068 C 
ATOM      8  C   LIG    1       -2.850   6.533   0.447  0.00  0.00    +0.038 C 
ATOM      9  C   LIG    1       -1.801   6.340  -0.658  0.00  0.00    -0.006 C 
ATOM     10  C   LIG    1       -2.382   5.435  -1.753  0.00  0.00    +0.007 C 
ATOM     11  C   LIG    1       -1.995   4.510   1.658  0.00  0.00    +0.057 C 
ATOM     12  C   LIG    1       -0.551   5.679  -0.055  0.00  0.00    +0.026 C 
BRANCH   7  13
ATOM     13  O   LIG    1       -4.207   5.355   2.072  0.00  0.00    -0.389 OA
ATOM     14  H   LIG    1       -4.980   5.801   1.686  0.00  0.00    +0.210 HD
ENDBRANCH   7  13
ENDBRANCH   1   3
BRANCH   1  15
ATOM     15  C   LIG    1        0.960   4.410   2.224  0.00  0.00    +0.178 C 
BRANCH  15  18
ATOM     16  C   LIG    1        4.611   3.162   2.495  0.00  0.00    +0.179 C 
ATOM     17  N   LIG    1        3.381   3.842   2.074  0.00  0.00    -0.285 N 
ATOM     18  C   LIG    1        2.197   3.676   2.755  0.00  0.00    +0.230 C 
ATOM     19  O   LIG    1        2.131   2.978   3.768  0.00  0.00    -0.274 OA
ATOM     20  C   LIG    1        3.585   4.626   0.869  0.00  0.00    +0.109 C 
ATOM     21  C   LIG    1        5.092   4.787   0.793  0.00  0.00    +0.022 C 
ATOM     22  C   LIG    1        5.594   3.458   1.350  0.00  0.00    +0.039 C 
BRANCH  16  24
ATOM     23  N   LIG    1        5.600   4.098   4.763  0.00  0.00    -0.195 NA
ATOM     24  C   LIG    1        5.139   3.678   3.775  0.00  0.00    +0.085 C 
ENDBRANCH  16  24
ENDBRANCH  15  18
ENDBRANCH   1  15
TORSDOF 5
