REMARK  Name = *****
REMARK                            x       y       z     vdW  Elec       q    Type
REMARK                         _______ _______ _______ _____ _____    ______ ____
ROOT
ATOM      1  C   LIG    1        2.367  -0.023   0.104  0.00  0.00    +0.117 A 
ATOM      2  C   LIG    1        3.071  -1.221   0.045  0.00  0.00    +0.045 A 
ATOM      3  C   LIG    1        4.459  -1.200  -0.085  0.00  0.00    +0.004 A 
ATOM      4  C   LIG    1        5.134   0.019  -0.154  0.00  0.00    +0.000 A 
ATOM      5  C   LIG    1        4.421   1.218  -0.090  0.00  0.00    +0.004 A 
ATOM      6  C   LIG    1        3.031   1.199   0.039  0.00  0.00    +0.045 A 
ENDROOT
BRANCH   1   7
ATOM      7  O   LIG    1        1.010  -0.089   0.223  0.00  0.00    -0.507 OA
ATOM      8  H   LIG    1        0.657   0.816   0.215  0.00  0.00    +0.292 HD
ENDBRANCH   1   7
TORSDOF 1
