REMARK  Name = *****
REMARK                            x       y       z     vdW  Elec       q    Type
REMARK                         _______ _______ _______ _____ _____    ______ ____
ROOT
ATOM      1  C   LIG    1       10.619   3.992  -0.983  0.00  0.00    -0.007 C 
ATOM      2  C   LIG    1       10.883   5.197  -1.556  0.00  0.00    -0.031 C 
ENDROOT
BRANCH   1   6
ATOM      3  C   LIG    1        6.908   3.227   1.026  0.00  0.00    +0.121 A 
ATOM      4  C   LIG    1        6.928   3.441  -0.349  0.00  0.00    +0.046 A 
ATOM      5  C   LIG    1        8.139   3.680  -1.001  0.00  0.00    +0.012 A 
ATOM      6  C   LIG    1        9.334   3.751  -0.275  0.00  0.00    -0.017 A 
ATOM      7  C   LIG    1        9.313   3.497   1.096  0.00  0.00    +0.012 A 
ATOM      8  C   LIG    1        8.105   3.230   1.743  0.00  0.00    +0.046 A 
BRANCH   3   9
ATOM      9  O   LIG    1        5.793   2.947   1.767  0.00  0.00    -0.491 OA
BRANCH   9  10
ATOM     10  C   LIG    1        4.576   3.558   1.328  0.00  0.00    +0.244 C 
BRANCH  10  11
ATOM     11  C   LIG    1        3.748   2.575   0.484  0.00  0.00    +0.124 C 
BRANCH  11  13
ATOM     12  C   LIG    1        1.865   2.154  -0.951  0.00  0.00    +0.104 C 
ATOM     13  N   LIG    1        2.535   3.159  -0.121  0.00  0.00    -0.305 NA
ATOM     14  C   LIG    1        1.607   3.666   0.891  0.00  0.00    +0.104 C 
ENDBRANCH  11  13
ENDBRANCH  10  11
ENDBRANCH   9  10
ENDBRANCH   3   9
ENDBRANCH   1   6
BRANCH   1  15
ATOM     15  C   LIG    1       11.582   2.849  -1.088  0.00  0.00    -0.017 A 
ATOM     16  C   LIG    1       12.504   2.593  -0.063  0.00  0.00    +0.008 A 
ATOM     17  C   LIG    1       13.334   1.465  -0.116  0.00  0.00    +0.001 A 
ATOM     18  C   LIG    1       13.255   0.594  -1.199  0.00  0.00    +0.000 A 
ATOM     19  C   LIG    1       12.345   0.838  -2.223  0.00  0.00    +0.001 A 
ATOM     20  C   LIG    1       11.506   1.957  -2.167  0.00  0.00    +0.008 A 
ENDBRANCH   1  15
BRANCH   2  21
ATOM     21  C   LIG    1       10.000   6.406  -1.401  0.00  0.00    -0.021 A 
ATOM     22  C   LIG    1        8.964   6.668  -2.311  0.00  0.00    +0.008 A 
ATOM     23  C   LIG    1        8.164   7.818  -2.184  0.00  0.00    +0.001 A 
ATOM     24  C   LIG    1        8.387   8.717  -1.148  0.00  0.00    +0.000 A 
ATOM     25  C   LIG    1        9.399   8.464  -0.226  0.00  0.00    +0.001 A 
ATOM     26  C   LIG    1       10.203   7.315  -0.353  0.00  0.00    +0.008 A 
ENDBRANCH   2  21
BRANCH   2  27
ATOM     27  C   LIG    1       12.132   5.466  -2.393  0.00  0.00    +0.052 C 
BRANCH  27  28
ATOM     28  C   LIG    1       11.895   5.194  -3.880  0.00  0.00    +0.113 C 
ATOM     29 CL   LIG    1       13.383   5.473  -4.819  0.00  0.00    -0.125 Cl
ENDBRANCH  27  28
ENDBRANCH   2  27
TORSDOF 9
