REMARK  Name = *****
REMARK                            x       y       z     vdW  Elec       q    Type
REMARK                         _______ _______ _______ _____ _____    ______ ____
ROOT
ATOM      1  C   LIG    1        2.961   0.948   1.102  0.00  0.00    +0.024 C 
ATOM      2  C   LIG    1        2.270   2.270   1.708  0.00  0.00    -0.014 C 
ATOM      3  C   LIG    1        1.463   2.048   3.002  0.00  0.00    +0.013 C 
ATOM      4  C   LIG    1        1.291   2.985   0.736  0.00  0.00    +0.013 C 
ATOM      5  C   LIG    1        3.507   3.216   1.917  0.00  0.00    -0.003 C 
ATOM      6  C   LIG    1        4.426   2.837   0.749  0.00  0.00    +0.009 C 
ATOM      7  C   LIG    1        4.378   2.774   3.104  0.00  0.00    +0.004 C 
ATOM      8  C   LIG    1        5.013   1.478   2.595  0.00  0.00    +0.005 C 
ATOM      9  C   LIG    1        4.476   1.361   1.153  0.00  0.00    +0.010 C 
ATOM     10  C   LIG    1        2.669  -0.345   1.887  0.00  0.00    +0.028 C 
ENDROOT
BRANCH   1  12
ATOM     11  C   LIG    1        3.222  -0.222  -1.101  0.00  0.00    +0.101 C 
ATOM     12  N   LIG    1        2.499   0.749  -0.295  0.00  0.00    -0.313 NA
ATOM     13  H   LIG    1        1.511   0.494  -0.284  0.00  0.00    +0.122 HD
ENDBRANCH   1  12
TORSDOF 1
