REMARK  Name = *****
REMARK                            x       y       z     vdW  Elec       q    Type
REMARK                         _______ _______ _______ _____ _____    ______ ____
ROOT
ATOM      1  C   LIG    1        1.100  -2.752  -2.080  0.00  0.00    +0.113 C 
ENDROOT
BRANCH   1   3
ATOM      2  C   LIG    1        2.549  -4.606  -1.033  0.00  0.00    +0.245 C 
ATOM      3  N   LIG    1        2.228  -3.705  -2.043  0.00  0.00    -0.305 N 
ATOM      4  H   LIG    1        2.957  -3.457  -2.690  0.00  0.00    +0.149 HD
ATOM      5  O   LIG    1        1.853  -4.739  -0.053  0.00  0.00    -0.270 OA
BRANCH   2   8
ATOM      6  C   LIG    1        2.974  -7.286   0.299  0.00  0.00    +0.048 C 
ATOM      7  C   LIG    1        4.000  -6.708  -0.642  0.00  0.00    +0.003 A 
ATOM      8  C   LIG    1        3.819  -5.428  -1.243  0.00  0.00    +0.043 A 
ATOM      9  C   LIG    1        4.856  -4.897  -2.037  0.00  0.00    +0.013 A 
ATOM     10  C   LIG    1        6.037  -5.604  -2.266  0.00  0.00    +0.004 A 
ATOM     11  C   LIG    1        6.204  -6.859  -1.706  0.00  0.00    +0.045 A 
ATOM     12  C   LIG    1        5.198  -7.406  -0.913  0.00  0.00    +0.120 A 
BRANCH  12  13
ATOM     13  O   LIG    1        5.488  -8.651  -0.422  0.00  0.00    -0.506 OA
ATOM     14  H   LIG    1        4.667  -9.128  -0.232  0.00  0.00    +0.292 HD
ENDBRANCH  12  13
ENDBRANCH   2   8
ENDBRANCH   1   3
BRANCH   1  15
ATOM     15  C   LIG    1       -0.320  -3.263  -1.655  0.00  0.00    +0.149 C 
BRANCH  15  16
ATOM     16  O   LIG    1       -0.404  -3.461  -0.244  0.00  0.00    -0.389 OA
ATOM     17  H   LIG    1        0.373  -4.006   0.017  0.00  0.00    +0.210 HD
ENDBRANCH  15  16
BRANCH  15  18
ATOM     18  C   LIG    1       -0.882  -4.483  -2.481  0.00  0.00    +0.118 C 
BRANCH  18  19
ATOM     19  N   LIG    1       -2.328  -4.797  -2.275  0.00  0.00    -0.289 NA
ATOM     20  C   LIG    1       -2.884  -5.988  -2.986  0.00  0.00    +0.143 C 
ATOM     21  C   LIG    1       -2.765  -5.850  -4.504  0.00  0.00    +0.032 C 
ATOM     22  C   LIG    1       -3.689  -4.715  -4.976  0.00  0.00    -0.005 C 
ATOM     23  C   LIG    1       -3.622  -3.441  -4.093  0.00  0.00    +0.006 C 
ATOM     24  C   LIG    1       -2.903  -2.255  -4.763  0.00  0.00    +0.005 C 
ATOM     25  C   LIG    1       -1.799  -2.626  -5.743  0.00  0.00    +0.000 C 
ATOM     26  C   LIG    1       -2.200  -3.676  -6.775  0.00  0.00    +0.000 C 
ATOM     27  C   LIG    1       -3.510  -4.390  -6.463  0.00  0.00    +0.004 C 
ATOM     28  C   LIG    1       -3.232  -3.672  -2.599  0.00  0.00    +0.089 C 
BRANCH  20  29
ATOM     29  C   LIG    1       -2.564  -7.423  -2.463  0.00  0.00    +0.231 C 
ATOM     30  N   LIG    1       -3.702  -8.255  -2.508  0.00  0.00    -0.309 N 
ATOM     31  H   LIG    1       -4.557  -7.831  -2.844  0.00  0.00    +0.149 HD
ATOM     32  O   LIG    1       -1.451  -7.812  -2.133  0.00  0.00    -0.274 OA
BRANCH  30  33
ATOM     33  C   LIG    1       -3.807  -9.695  -2.168  0.00  0.00    +0.026 C 
ATOM     34  C   LIG    1       -3.410  -9.982  -0.714  0.00  0.00    +0.031 C 
ATOM     35  C   LIG    1       -2.945 -10.555  -3.102  0.00  0.00    +0.031 C 
ATOM     36  C   LIG    1       -5.281 -10.144  -2.352  0.00  0.00    +0.031 C 
ENDBRANCH  30  33
ENDBRANCH  20  29
ENDBRANCH  18  19
ENDBRANCH  15  18
ENDBRANCH   1  15
BRANCH   1  37
ATOM     37  C   LIG    1        1.436  -1.422  -1.353  0.00  0.00    +0.099 C 
BRANCH  37  38
ATOM     38  S   LIG    1        2.851  -0.550  -2.150  0.00  0.00    -0.123 S 
BRANCH  38  39
ATOM     39  C   LIG    1        2.909   0.902  -1.111  0.00  0.00    +0.008 A 
ATOM     40  C   LIG    1        2.180   2.049  -1.445  0.00  0.00    +0.015 A 
ATOM     41  C   LIG    1        2.233   3.182  -0.626  0.00  0.00    +0.001 A 
ATOM     42  C   LIG    1        3.021   3.176   0.524  0.00  0.00    +0.000 A 
ATOM     43  C   LIG    1        3.758   2.041   0.855  0.00  0.00    +0.001 A 
ATOM     44  C   LIG    1        3.705   0.908   0.038  0.00  0.00    +0.015 A 
ENDBRANCH  38  39
ENDBRANCH  37  38
ENDBRANCH   1  37
TORSDOF 12
