REMARK  Name = *****
REMARK                            x       y       z     vdW  Elec       q    Type
REMARK                         _______ _______ _______ _____ _____    ______ ____
ROOT
ATOM      1  C   LIG    1        9.754  15.597  -2.128  0.00  0.00    +0.002 C 
ATOM      2  C   LIG    1        8.663  15.399  -3.235  0.00  0.00    -0.022 C 
ATOM      3  C   LIG    1        7.434  16.310  -2.997  0.00  0.00    +0.012 C 
ATOM      4  C   LIG    1        8.244  13.901  -3.038  0.00  0.00    +0.021 C 
ATOM      5  C   LIG    1        9.036  12.841  -3.816  0.00  0.00    -0.062 C 
ATOM      6  C   LIG    1        9.676  13.233  -5.144  0.00  0.00    +0.025 C 
ATOM      7  C   LIG    1       10.216  14.670  -5.131  0.00  0.00    +0.009 C 
ATOM      8  C   LIG    1       10.712  12.187  -5.745  0.00  0.00    -0.004 C 
ATOM      9  C   LIG    1       10.654  12.380  -7.286  0.00  0.00    +0.016 C 
ATOM     10  C   LIG    1       10.355  10.756  -5.363  0.00  0.00    -0.061 C 
ATOM     11  C   LIG    1       11.148   9.663  -6.045  0.00  0.00    +0.062 C 
ATOM     12  C   LIG    1       12.660   9.975  -6.031  0.00  0.00    +0.119 C 
ATOM     13  C   LIG    1       13.022  11.117  -5.076  0.00  0.00    +0.032 C 
ATOM     14  C   LIG    1        9.536  10.492  -4.325  0.00  0.00    -0.000 C 
ATOM     15  C   LIG    1       12.170  12.398  -5.237  0.00  0.00    +0.014 C 
ATOM     16  C   LIG    1        8.968  11.531  -3.505  0.00  0.00    -0.000 C 
ATOM     17  C   LIG    1        8.262  13.728  -1.506  0.00  0.00    +0.009 C 
ATOM     18  C   LIG    1        9.134  15.640  -4.681  0.00  0.00    +0.008 C 
ATOM     19  C   LIG    1        9.194  14.795  -0.936  0.00  0.00    +0.005 C 
ENDROOT
BRANCH   1  20
ATOM     20  C   LIG    1       10.156  17.040  -1.685  0.00  0.00    +0.012 C 
ATOM     21  C   LIG    1       10.724  17.902  -2.814  0.00  0.00    +0.012 C 
BRANCH  20  23
ATOM     22  C   LIG    1       11.223  17.892   0.447  0.00  0.00    -0.027 C 
ATOM     23  C   LIG    1       11.193  17.008  -0.567  0.00  0.00    -0.027 C 
BRANCH  22  24
ATOM     24  C   LIG    1       12.245  17.892   1.567  0.00  0.00    +0.011 C 
ATOM     25  C   LIG    1       11.528  17.612   2.895  0.00  0.00    +0.012 C 
BRANCH  24  27
ATOM     26  C   LIG    1       13.865  19.465   0.345  0.00  0.00    +0.008 C 
ATOM     27  C   LIG    1       13.095  19.196   1.644  0.00  0.00    -0.011 C 
ATOM     28  C   LIG    1       12.290  20.444   2.024  0.00  0.00    +0.008 C 
ENDBRANCH  24  27
ENDBRANCH  22  24
ENDBRANCH  20  23
ENDBRANCH   1  20
BRANCH  12  29
ATOM     29  O   LIG    1       13.112  10.292  -7.348  0.00  0.00    -0.392 OA
ATOM     30  H   LIG    1       14.063  10.489  -7.294  0.00  0.00    +0.210 HD
ENDBRANCH  12  29
TORSDOF 5
