REMARK  Name = *****
REMARK                            x       y       z     vdW  Elec       q    Type
REMARK                         _______ _______ _______ _____ _____    ______ ____
ROOT
ATOM      1  N   LIG    1        8.629  -0.655  -3.562  0.00  0.00    -0.290 NA
ENDROOT
BRANCH   1   2
ATOM      2  C   LIG    1        9.869   0.097  -3.921  0.00  0.00    +0.100 C 
BRANCH   2   3
ATOM      3  C   LIG    1       11.161  -0.770  -3.938  0.00  0.00    +0.101 C 
BRANCH   3   4
ATOM      4  N   LIG    1       12.365  -0.713  -4.770  0.00  0.00    -0.283 NA
BRANCH   4   5
ATOM      5  C   LIG    1       13.207   0.483  -4.628  0.00  0.00    +0.206 C 
BRANCH   5   6
ATOM      6  C   LIG    1       12.621   1.764  -5.146  0.00  0.00    +0.319 C 
ATOM      7  O   LIG    1       11.719   2.420  -4.590  0.00  0.00    -0.250 OA
BRANCH   6   8
ATOM      8  O   LIG    1       13.149   2.222  -6.280  0.00  0.00    -0.480 OA
ATOM      9  H   LIG    1       12.579   2.992  -6.510  0.00  0.00    +0.295 HD
ENDBRANCH   6   8
ENDBRANCH   5   6
ENDBRANCH   4   5
BRANCH   4  10
ATOM     10  C   LIG    1       12.259  -1.372  -6.105  0.00  0.00    +0.181 C 
BRANCH  10  11
ATOM     11  C   LIG    1       11.794  -2.929  -6.059  0.00  0.00    +0.227 C 
ATOM     12  N   LIG    1       12.454  -3.831  -6.857  0.00  0.00    -0.312 N 
ATOM     13  H   LIG    1       13.315  -3.511  -7.274  0.00  0.00    +0.149 HD
ATOM     14  O   LIG    1       10.862  -3.387  -5.384  0.00  0.00    -0.274 OA
BRANCH  12  15
ATOM     15  C   LIG    1       12.138  -5.282  -6.889  0.00  0.00    +0.132 C 
BRANCH  15  16
ATOM     16  C   LIG    1       11.960  -5.895  -8.293  0.00  0.00    +0.178 C 
BRANCH  16  17
ATOM     17  O   LIG    1       13.137  -5.867  -9.105  0.00  0.00    -0.381 OA
ATOM     18  C   LIG    1       13.605  -4.564  -9.405  0.00  0.00    +0.193 C 
ENDBRANCH  16  17
ENDBRANCH  15  16
ENDBRANCH  12  15
ENDBRANCH  10  11
ENDBRANCH   4  10
ENDBRANCH   3   4
ENDBRANCH   2   3
ENDBRANCH   1   2
BRANCH   1  19
ATOM     19  C   LIG    1        8.562  -2.131  -3.775  0.00  0.00    +0.205 C 
BRANCH  19  20
ATOM     20  C   LIG    1        8.338  -2.552  -5.199  0.00  0.00    +0.319 C 
ATOM     21  O   LIG    1        8.880  -2.067  -6.230  0.00  0.00    -0.250 OA
BRANCH  20  22
ATOM     22  O   LIG    1        7.484  -3.536  -5.437  0.00  0.00    -0.480 OA
ATOM     23  H   LIG    1        7.524  -3.544  -6.420  0.00  0.00    +0.295 HD
ENDBRANCH  20  22
ENDBRANCH  19  20
ENDBRANCH   1  19
BRANCH   1  24
ATOM     24  C   LIG    1        7.373   0.083  -3.786  0.00  0.00    +0.100 C 
BRANCH  24  25
ATOM     25  C   LIG    1        6.647   0.247  -5.189  0.00  0.00    +0.101 C 
BRANCH  25  26
ATOM     26  N   LIG    1        7.173   1.006  -6.372  0.00  0.00    -0.283 NA
BRANCH  26  27
ATOM     27  C   LIG    1        8.316   0.333  -7.013  0.00  0.00    +0.181 C 
BRANCH  27  30
ATOM     28  N   LIG    1        8.397   1.093  -9.313  0.00  0.00    -0.312 N 
ATOM     29  H   LIG    1        7.390   1.187  -9.186  0.00  0.00    +0.149 HD
ATOM     30  C   LIG    1        9.089   1.015  -8.127  0.00  0.00    +0.227 C 
ATOM     31  O   LIG    1       10.249   1.398  -7.992  0.00  0.00    -0.274 OA
BRANCH  28  32
ATOM     32  C   LIG    1        8.997   1.755 -10.452  0.00  0.00    +0.132 C 
BRANCH  32  33
ATOM     33  C   LIG    1        8.374   1.310 -11.767  0.00  0.00    +0.178 C 
BRANCH  33  35
ATOM     34  C   LIG    1        8.416   1.627 -14.096  0.00  0.00    +0.193 C 
ATOM     35  O   LIG    1        8.993   2.002 -12.851  0.00  0.00    -0.381 OA
ENDBRANCH  33  35
ENDBRANCH  32  33
ENDBRANCH  28  32
ENDBRANCH  27  30
ENDBRANCH  26  27
BRANCH  26  36
ATOM     36  C   LIG    1        7.297   2.448  -6.106  0.00  0.00    +0.206 C 
BRANCH  36  37
ATOM     37  C   LIG    1        7.543   3.262  -7.373  0.00  0.00    +0.319 C 
ATOM     38  O   LIG    1        6.869   3.242  -8.391  0.00  0.00    -0.250 OA
BRANCH  37  39
ATOM     39  O   LIG    1        8.668   4.003  -7.329  0.00  0.00    -0.480 OA
ATOM     40  H   LIG    1        8.741   4.354  -8.243  0.00  0.00    +0.295 HD
ENDBRANCH  37  39
ENDBRANCH  36  37
ENDBRANCH  26  36
ENDBRANCH  25  26
ENDBRANCH  24  25
ENDBRANCH   1  24
TORSDOF 25
