REMARK  Name = *****
REMARK                            x       y       z     vdW  Elec       q    Type
REMARK                         _______ _______ _______ _____ _____    ______ ____
ROOT
ATOM      1  CA  LIG    1       -2.982  11.055  -3.055  0.00  0.00    +0.191 C 
ATOM      2  C   LIG    1       -2.511  10.422  -1.712  0.00  0.00    +0.169 C 
ATOM      3  N   LIG    1       -2.620   9.120  -2.353  0.00  0.00    -0.249 N 
ATOM      4  CA  LIG    1       -2.842   7.914  -1.710  0.00  0.00    +0.126 C 
ATOM      5  C   LIG    1       -2.990   7.846  -0.361  0.00  0.00    -0.009 C 
ATOM      6  C   LIG    1       -2.903   9.088   0.511  0.00  0.00    +0.108 C 
ATOM      7  S   LIG    1       -3.651  10.529  -0.304  0.00  0.00    -0.131 S 
ATOM      8  C   LIG    1       -3.127   9.584  -3.520  0.00  0.00    +0.244 C 
ATOM      9  O   LIG    1       -3.667   9.036  -4.476  0.00  0.00    -0.273 OA
ENDROOT
BRANCH   5  10
ATOM     10  C   LIG    1       -3.384   6.668   0.421  0.00  0.00    +0.015 C 
ATOM     11  C   LIG    1       -2.762   5.486   0.551  0.00  0.00    +0.016 C 
ATOM     12  C   LIG    1       -3.299   4.397   1.438  0.00  0.00    +0.243 C 
ATOM     13  O   LIG    1       -4.378   4.402   1.999  0.00  0.00    -0.270 OA
ATOM     14  N   LIG    1       -2.308   3.420   1.502  0.00  0.00    -0.293 N 
ATOM     15  C   LIG    1       -1.059   3.948   0.995  0.00  0.00    +0.113 C 
ATOM     16  C   LIG    1       -1.487   4.981  -0.035  0.00  0.00    +0.059 C 
BRANCH  14  17
ATOM     17  C   LIG    1       -2.433   2.220   2.341  0.00  0.00    +0.091 C 
ATOM     18  C   LIG    1       -1.382   1.116   2.106  0.00  0.00    +0.103 C 
ATOM     19  N   LIG    1       -0.729   0.836   3.398  0.00  0.00    -0.314 NA
ATOM     20  H   LIG    1       -1.217   0.056   3.842  0.00  0.00    +0.122 HD
ATOM     21  C   LIG    1       -0.940   2.039   4.207  0.00  0.00    +0.083 C 
ATOM     22  C   LIG    1       -2.332   2.507   3.838  0.00  0.00    +0.039 C 
ENDBRANCH  14  17
ENDBRANCH   5  10
BRANCH   1  24
ATOM     23  C   LIG    1       -4.322  13.185  -3.255  0.00  0.00    +0.270 C 
ATOM     24  N   LIG    1       -4.251  11.823  -3.065  0.00  0.00    -0.296 N 
ATOM     25  H   LIG    1       -5.145  11.350  -2.941  0.00  0.00    +0.150 HD
ATOM     26  O   LIG    1       -3.310  13.855  -3.395  0.00  0.00    -0.268 OA
BRANCH  23  27
ATOM     27  C   LIG    1       -5.746  13.809  -3.281  0.00  0.00    +0.208 C 
ATOM     28  N   LIG    1       -6.859  13.149  -3.058  0.00  0.00    -0.079 NA
BRANCH  27  32
ATOM     29  C   LIG    1       -7.130  17.094  -3.902  0.00  0.00    +0.176 A 
ATOM     30  S   LIG    1       -5.496  17.588  -4.088  0.00  0.00    +0.049 S 
ATOM     31  N   LIG    1       -4.891  16.069  -3.797  0.00  0.00    -0.185 NA
ATOM     32  C   LIG    1       -5.926  15.249  -3.575  0.00  0.00    +0.197 A 
ATOM     33  N   LIG    1       -7.220  15.818  -3.623  0.00  0.00    -0.202 NA
BRANCH  29  34
ATOM     34  N   LIG    1       -8.178  17.925  -4.017  0.00  0.00    -0.336 N 
ATOM     35  H   LIG    1       -9.064  17.588  -3.656  0.00  0.00    +0.144 HD
ATOM     36  H   LIG    1       -8.029  18.921  -3.901  0.00  0.00    +0.144 HD
ENDBRANCH  29  34
ENDBRANCH  27  32
BRANCH  28  37
ATOM     37  O   LIG    1       -6.731  11.789  -2.774  0.00  0.00    -0.408 OA
ATOM     38  H   LIG    1       -7.662  11.515  -2.638  0.00  0.00    +0.328 HD
ENDBRANCH  28  37
ENDBRANCH  23  27
ENDBRANCH   1  24
BRANCH   4  39
ATOM     39  C   LIG    1       -2.947   6.700  -2.588  0.00  0.00    +0.352 C 
ATOM     40  O   LIG    1       -3.580   5.682  -2.391  0.00  0.00    -0.244 OA
BRANCH  39  41
ATOM     41  OXT LIG    1       -2.162   6.820  -3.679  0.00  0.00    -0.476 OA
ATOM     42  HXT LIG    1       -2.412   6.058  -4.242  0.00  0.00    +0.295 HD
ENDBRANCH  39  41
ENDBRANCH   4  39
TORSDOF 9
