REMARK  Name = *****
REMARK                            x       y       z     vdW  Elec       q    Type
REMARK                         _______ _______ _______ _____ _____    ______ ____
ROOT
ATOM      1  C   LIG    1       -5.770  -1.505   0.747  0.00  0.00    +0.132 C 
ATOM      2  C   LIG    1       -6.326  -0.104   1.169  0.00  0.00    +0.014 C 
ATOM      3  C   LIG    1       -5.032   0.758   1.349  0.00  0.00    +0.002 C 
ATOM      4  C   LIG    1       -4.517   0.953   2.801  0.00  0.00    -0.003 C 
ATOM      5  C   LIG    1       -5.646   1.247   3.800  0.00  0.00    -0.000 C 
ATOM      6  C   LIG    1       -6.603   0.053   3.782  0.00  0.00    +0.005 C 
ATOM      7  C   LIG    1       -6.314   2.630   3.547  0.00  0.00    +0.019 C 
ATOM      8  C   LIG    1       -5.281   3.746   3.449  0.00  0.00    -0.064 C 
ATOM      9  C   LIG    1       -5.469   4.973   3.969  0.00  0.00    +0.026 C 
ATOM     10  C   LIG    1       -6.763   5.360   4.601  0.00  0.00    +0.080 C 
ATOM     11  N   LIG    1       -7.036   6.512   5.136  0.00  0.00    -0.092 NA
ATOM     12  C   LIG    1       -7.888   4.348   4.545  0.00  0.00    +0.059 C 
ATOM     13  C   LIG    1       -4.023   3.459   2.663  0.00  0.00    +0.031 C 
ATOM     14  C   LIG    1       -7.352   2.931   4.645  0.00  0.00    +0.014 C 
ATOM     15  C   LIG    1       -3.456   2.063   2.913  0.00  0.00    +0.008 C 
ATOM     16  C   LIG    1       -3.939   0.079   0.488  0.00  0.00    +0.008 C 
ATOM     17  C   LIG    1       -7.259  -0.159   2.424  0.00  0.00    +0.011 C 
ATOM     18  C   LIG    1       -4.538  -1.190  -0.105  0.00  0.00    +0.049 C 
ENDROOT
BRANCH   1  20
ATOM     19  C   LIG    1       -5.035  -3.121   2.755  0.00  0.00    +0.007 C 
ATOM     20  C   LIG    1       -5.368  -2.376   1.873  0.00  0.00    -0.070 C 
ENDBRANCH   1  20
BRANCH   1  21
ATOM     21  O   LIG    1       -6.711  -2.227  -0.039  0.00  0.00    -0.376 OA
ATOM     22  H   LIG    1       -7.410  -2.530   0.564  0.00  0.00    +0.211 HD
ENDBRANCH   1  21
BRANCH   2  23
ATOM     23  C   LIG    1       -7.253   0.538   0.057  0.00  0.00    +0.007 C 
ATOM     24  C   LIG    1       -6.719   0.749  -1.352  0.00  0.00    +0.004 C 
ENDBRANCH   2  23
BRANCH  11  25
ATOM     25  O   LIG    1       -5.944   7.387   5.095  0.00  0.00    -0.409 OA
ATOM     26  H   LIG    1       -6.312   8.195   5.499  0.00  0.00    +0.328 HD
ENDBRANCH  11  25
TORSDOF 4
