REMARK  Name = *****
REMARK                            x       y       z     vdW  Elec       q    Type
REMARK                         _______ _______ _______ _____ _____    ______ ____
ROOT
ATOM      1  C   LIG    1        4.713  -0.475  -1.263  0.00  0.00    +0.066 A 
ATOM      2  C   LIG    1        5.730   0.510  -1.372  0.00  0.00    +0.042 A 
ATOM      3  I   LIG    1        5.226   2.579  -1.605  0.00  0.00    -0.042 I 
ATOM      4  C   LIG    1        7.102   0.152  -1.185  0.00  0.00    +0.087 A 
ATOM      5  C   LIG    1        7.423  -1.113  -0.640  0.00  0.00    +0.051 A 
ATOM      6  I   LIG    1        9.380  -1.503   0.165  0.00  0.00    -0.041 I 
ATOM      7  C   LIG    1        6.427  -2.085  -0.470  0.00  0.00    +0.061 A 
ATOM      8  C   LIG    1        5.120  -1.791  -0.925  0.00  0.00    +0.049 A 
ATOM      9  I   LIG    1        3.919  -3.495  -1.581  0.00  0.00    -0.041 I 
ENDROOT
BRANCH   1  13
ATOM     10  C   LIG    1        1.264   0.954  -2.306  0.00  0.00    +0.128 C 
ATOM     11  N   LIG    1        2.688   0.658  -2.222  0.00  0.00    -0.314 N 
ATOM     12  H   LIG    1        3.299   1.185  -2.829  0.00  0.00    +0.149 HD
ATOM     13  C   LIG    1        3.221  -0.219  -1.298  0.00  0.00    +0.246 C 
ATOM     14  O   LIG    1        2.507  -0.800  -0.485  0.00  0.00    -0.270 OA
ENDBRANCH   1  13
BRANCH   7  15
ATOM     15  N   LIG    1        6.731  -3.336   0.144  0.00  0.00    -0.284 N 
ATOM     16  H   LIG    1        7.699  -3.641   0.119  0.00  0.00    +0.155 HD
ATOM     17  C   LIG    1        6.021  -3.751   1.268  0.00  0.00    +0.214 C 
ATOM     18  O   LIG    1        5.160  -3.084   1.835  0.00  0.00    -0.276 OA
ATOM     19  C   LIG    1        6.447  -5.100   1.787  0.00  0.00    +0.109 C 
ENDBRANCH   7  15
BRANCH   4  20
ATOM     20  C   LIG    1        8.231   0.954  -1.734  0.00  0.00    +0.339 C 
ATOM     21  O   LIG    1        9.052   0.445  -2.503  0.00  0.00    -0.245 OA
BRANCH  20  22
ATOM     22  O   LIG    1        8.338   2.221  -1.321  0.00  0.00    -0.477 OA
ATOM     23  H   LIG    1        7.541   2.584  -0.885  0.00  0.00    +0.295 HD
ENDBRANCH  20  22
ENDBRANCH   4  20
TORSDOF 4
