REMARK  Name = *****
REMARK                            x       y       z     vdW  Elec       q    Type
REMARK                         _______ _______ _______ _____ _____    ______ ____
ROOT
ATOM      1  C   LIG    1        0.526  -0.439   1.577  0.00  0.00    +0.013 C 
ATOM      2  C   LIG    1        1.803  -0.310   1.177  0.00  0.00    -0.036 C 
ATOM      3  C   LIG    1        2.373   0.691   0.171  0.00  0.00    +0.085 C 
ATOM      4  C   LIG    1        3.380   1.578   0.871  0.00  0.00    +0.050 C 
ATOM      5  C   LIG    1        3.492   2.897   0.617  0.00  0.00    +0.141 C 
ATOM      6  C   LIG    1        2.678   3.588  -0.449  0.00  0.00    +0.189 C 
ATOM      7  C   LIG    1        2.005   2.629  -1.451  0.00  0.00    +0.089 C 
ATOM      8  C   LIG    1        1.068   3.383  -2.466  0.00  0.00    +0.133 C 
ATOM      9  C   LIG    1        1.246   4.929  -2.357  0.00  0.00    +0.170 C 
ATOM     10  O   LIG    1        0.279   5.692  -2.482  0.00  0.00    -0.294 OA
ATOM     11  C   LIG    1        2.635   5.494  -2.140  0.00  0.00    +0.211 C 
ATOM     12  C   LIG    1        3.490   4.546  -1.343  0.00  0.00    +0.192 C 
ATOM     13  O   LIG    1        4.719   4.562  -1.403  0.00  0.00    -0.293 OA
ATOM     14  C   LIG    1        4.215   0.954   1.951  0.00  0.00    +0.197 C 
ATOM     15  O   LIG    1        4.948   1.656   2.643  0.00  0.00    -0.287 OA
ATOM     16  C   LIG    1        4.077  -0.513   2.162  0.00  0.00    +0.071 A 
ATOM     17  C   LIG    1        5.105  -1.276   2.732  0.00  0.00    +0.128 A 
ATOM     18  C   LIG    1        4.931  -2.643   2.951  0.00  0.00    +0.046 A 
ATOM     19  C   LIG    1        3.730  -3.256   2.597  0.00  0.00    +0.004 A 
ATOM     20  C   LIG    1        2.702  -2.506   2.025  0.00  0.00    +0.009 A 
ATOM     21  C   LIG    1        1.310   1.506  -0.637  0.00  0.00    +0.135 C 
ATOM     22  C   LIG    1        2.862  -1.130   1.808  0.00  0.00    -0.007 A 
ENDROOT
BRANCH  11  23
ATOM     23  C   LIG    1        3.301   5.959  -3.406  0.00  0.00    +0.228 C 
ATOM     24  O   LIG    1        3.224   5.394  -4.489  0.00  0.00    -0.275 OA
ATOM     25  N   LIG    1        4.043   7.106  -3.294  0.00  0.00    -0.328 N 
ATOM     26  H   LIG    1        4.406   7.414  -2.401  0.00  0.00    +0.145 HD
ATOM     27  H   LIG    1        4.577   7.364  -4.115  0.00  0.00    +0.145 HD
ENDBRANCH  11  23
BRANCH   8  28
ATOM     28  N   LIG    1        1.266   2.997  -3.898  0.00  0.00    -0.299 NA
ATOM     29  C   LIG    1        1.102   1.565  -4.156  0.00  0.00    +0.105 C 
ATOM     30  C   LIG    1        0.335   3.716  -4.790  0.00  0.00    +0.105 C 
ENDBRANCH   8  28
BRANCH   5  31
ATOM     31  O   LIG    1        4.252   3.760   1.393  0.00  0.00    -0.507 OA
ATOM     32  H   LIG    1        4.780   3.219   2.030  0.00  0.00    +0.292 HD
ENDBRANCH   5  31
BRANCH   6  33
ATOM     33  O   LIG    1        1.690   4.335   0.268  0.00  0.00    -0.373 OA
ATOM     34  H   LIG    1        2.157   4.734   1.032  0.00  0.00    +0.211 HD
ENDBRANCH   6  33
BRANCH  17  35
ATOM     35  O   LIG    1        6.306  -0.705   3.044  0.00  0.00    -0.506 OA
ATOM     36  H   LIG    1        6.857  -1.333   3.539  0.00  0.00    +0.292 HD
ENDBRANCH  17  35
BRANCH  21  37
ATOM     37  O   LIG    1        0.610   0.627  -1.517  0.00  0.00    -0.390 OA
ATOM     38  H   LIG    1        0.240  -0.110  -1.000  0.00  0.00    +0.210 HD
ENDBRANCH  21  37
TORSDOF 6
