REMARK  Name = *****
REMARK                            x       y       z     vdW  Elec       q    Type
REMARK                         _______ _______ _______ _____ _____    ______ ____
ROOT
ATOM      1  C   LIG    1        6.244   1.737  -2.675  0.00  0.00    +0.120 C 
ATOM      2  C   LIG    1        6.976   2.731  -3.550  0.00  0.00    -0.006 A 
ATOM      3  C   LIG    1        7.753   3.567  -2.761  0.00  0.00    -0.014 A 
ATOM      4  C   LIG    1        8.537   4.571  -3.309  0.00  0.00    +0.025 A 
ATOM      5  C   LIG    1        8.542   4.739  -4.704  0.00  0.00    +0.052 A 
ATOM      6  C   LIG    1        7.766   3.875  -5.508  0.00  0.00    +0.019 A 
ATOM      7  C   LIG    1        7.603   3.189  -1.337  0.00  0.00    +0.197 C 
ATOM      8  C   LIG    1        6.984   2.868  -4.934  0.00  0.00    +0.008 A 
ATOM      9  O   LIG    1        6.626   2.128  -1.316  0.00  0.00    -0.359 OA
ENDROOT
BRANCH   1  10
ATOM     10  C   LIG    1        4.718   1.877  -2.800  0.00  0.00    -0.011 A 
ATOM     11  C   LIG    1        4.015   2.809  -2.006  0.00  0.00    +0.009 A 
ATOM     12  C   LIG    1        2.624   2.928  -2.080  0.00  0.00    +0.039 A 
ATOM     13  C   LIG    1        1.915   2.116  -2.951  0.00  0.00    +0.123 A 
ATOM     14  F   LIG    1        0.580   2.214  -3.010  0.00  0.00    -0.205 F 
ATOM     15  C   LIG    1        2.574   1.211  -3.771  0.00  0.00    +0.039 A 
ATOM     16  C   LIG    1        3.970   1.111  -3.712  0.00  0.00    +0.009 A 
ENDBRANCH   1  10
BRANCH   5  17
ATOM     17  C   LIG    1        9.326   5.794  -5.311  0.00  0.00    +0.099 C 
ATOM     18  N   LIG    1        9.941   6.639  -5.786  0.00  0.00    -0.191 NA
ENDBRANCH   5  17
BRANCH   1  19
ATOM     19  C   LIG    1        6.827   0.310  -2.892  0.00  0.00    +0.046 C 
BRANCH  19  20
ATOM     20  C   LIG    1        6.289  -0.782  -1.947  0.00  0.00    +0.019 C 
BRANCH  20  21
ATOM     21  C   LIG    1        6.881  -2.182  -2.247  0.00  0.00    +0.084 C 
BRANCH  21  23
ATOM     22  C   LIG    1        7.148  -4.068  -3.763  0.00  0.00    +0.104 C 
ATOM     23  N   LIG    1        6.584  -2.724  -3.589  0.00  0.00    -0.308 NA
ATOM     24  C   LIG    1        5.153  -2.748  -3.880  0.00  0.00    +0.104 C 
ENDBRANCH  21  23
ENDBRANCH  20  21
ENDBRANCH  19  20
ENDBRANCH   1  19
TORSDOF 6
