REMARK  Name = *****
REMARK                            x       y       z     vdW  Elec       q    Type
REMARK                         _______ _______ _______ _____ _____    ______ ____
ROOT
ATOM      1  C   LIG    1        5.593   3.034   0.801  0.00  0.00    +0.010 A 
ATOM      2  C   LIG    1        4.670   4.032   0.466  0.00  0.00    +0.042 A 
ATOM      3  C   LIG    1        5.070   5.340   0.610  0.00  0.00    +0.066 A 
ATOM      4  C   LIG    1        6.348   5.680   1.089  0.00  0.00    +0.065 A 
ATOM      5  N   LIG    1        6.388   7.072   1.220  0.00  0.00    -0.326 N 
ATOM      6  H   LIG    1        7.243   7.600   1.216  0.00  0.00    +0.169 HD
ATOM      7  C   LIG    1        5.213   7.608   0.685  0.00  0.00    +0.201 C 
ATOM      8  N   LIG    1        5.068   8.861   0.426  0.00  0.00    -0.109 NA
ATOM      9  C   LIG    1        7.260   4.720   1.447  0.00  0.00    +0.029 A 
ATOM     10  N   LIG    1        4.359   6.530   0.457  0.00  0.00    -0.326 N 
ATOM     11  H   LIG    1        3.533   6.631  -0.116  0.00  0.00    +0.169 HD
ATOM     12  C   LIG    1        6.879   3.381   1.281  0.00  0.00    +0.017 A 
ENDROOT
BRANCH   8  13
ATOM     13  C   LIG    1        3.895   9.260  -0.153  0.00  0.00    +0.427 C 
ATOM     14  O   LIG    1        2.946   8.542  -0.455  0.00  0.00    -0.224 OA
BRANCH  13  15
ATOM     15  O   LIG    1        3.930  10.597  -0.378  0.00  0.00    -0.452 OA
ATOM     16  C   LIG    1        2.760  11.105  -1.016  0.00  0.00    +0.282 C 
ENDBRANCH  13  15
ENDBRANCH   8  13
BRANCH   1  17
ATOM     17  S   LIG    1        5.125   1.319   0.591  0.00  0.00    -0.125 S 
BRANCH  17  18
ATOM     18  C   LIG    1        5.271   0.747   2.317  0.00  0.00    +0.074 C 
BRANCH  18  20
ATOM     19  C   LIG    1        5.040  -1.200   3.878  0.00  0.00    +0.004 C 
ATOM     20  C   LIG    1        4.909  -0.732   2.434  0.00  0.00    +0.008 C 
ENDBRANCH  18  20
ENDBRANCH  17  18
ENDBRANCH   1  17
TORSDOF 5
