REMARK  Name = *****
REMARK                            x       y       z     vdW  Elec       q    Type
REMARK                         _______ _______ _______ _____ _____    ______ ____
ROOT
ATOM      1  O   LIG    1       11.679   2.172  -2.279  0.00  0.00    -0.459 OA
ENDROOT
BRANCH   1   7
ATOM      2  C   LIG    1       10.482   3.651  -7.298  0.00  0.00    +0.192 C 
ATOM      3  N   LIG    1       10.267   2.902  -5.970  0.00  0.00    +0.243 N 
ATOM      4  C   LIG    1        8.937   2.166  -6.140  0.00  0.00    +0.192 C 
ATOM      5  C   LIG    1       10.319   3.883  -4.787  0.00  0.00    +0.070 C 
ATOM      6  C   LIG    1        9.819   3.187  -3.522  0.00  0.00    +0.099 C 
ATOM      7  C   LIG    1       10.576   1.890  -3.173  0.00  0.00    +0.187 C 
ATOM      8  C   LIG    1       11.119   1.119  -4.400  0.00  0.00    +0.099 C 
ATOM      9  C   LIG    1       11.813   4.226  -4.674  0.00  0.00    +0.060 C 
ATOM     10  C   LIG    1       12.559   3.012  -5.230  0.00  0.00    +0.060 C 
ATOM     11  C   LIG    1       11.467   2.005  -5.610  0.00  0.00    +0.070 C 
ENDBRANCH   1   7
BRANCH   1  12
ATOM     12  C   LIG    1       11.319   2.543  -1.005  0.00  0.00    +0.341 C 
ATOM     13  O   LIG    1       10.165   2.759  -0.653  0.00  0.00    -0.247 OA
BRANCH  12  14
ATOM     14  C   LIG    1       12.530   2.663  -0.074  0.00  0.00    +0.253 C 
BRANCH  14  15
ATOM     15  C   LIG    1       13.242   3.992  -0.222  0.00  0.00    -0.008 A 
ATOM     16  C   LIG    1       12.617   5.210   0.106  0.00  0.00    +0.007 A 
ATOM     17  C   LIG    1       13.309   6.416  -0.010  0.00  0.00    +0.000 A 
ATOM     18  C   LIG    1       14.624   6.433  -0.462  0.00  0.00    +0.000 A 
ATOM     19  C   LIG    1       15.259   5.233  -0.791  0.00  0.00    +0.000 A 
ATOM     20  C   LIG    1       14.573   4.023  -0.671  0.00  0.00    +0.007 A 
ENDBRANCH  14  15
BRANCH  14  21
ATOM     21  O   LIG    1       12.147   2.498   1.289  0.00  0.00    -0.376 OA
ATOM     22  H   LIG    1       11.417   3.118   1.463  0.00  0.00    +0.211 HD
ENDBRANCH  14  21
ENDBRANCH  12  14
ENDBRANCH   1  12
TORSDOF 5
