REMARK  Name = *****
REMARK                            x       y       z     vdW  Elec       q    Type
REMARK                         _______ _______ _______ _____ _____    ______ ____
ROOT
ATOM      1  C   LIG    1        1.568  -3.631  -0.563  0.00  0.00    +0.069 C 
ENDROOT
BRANCH   1   3
ATOM      2  C   LIG    1        2.535  -5.514  -2.045  0.00  0.00    +0.130 A 
ATOM      3  C   LIG    1        1.507  -5.032  -1.162  0.00  0.00    +0.040 A 
ATOM      4  C   LIG    1        0.439  -5.879  -0.825  0.00  0.00    +0.138 A 
ATOM      5  C   LIG    1        0.417  -7.148  -1.361  0.00  0.00    +0.107 A 
ATOM      6  C   LIG    1       -0.590  -8.178  -1.166  0.00  0.00    +0.344 C 
ATOM      7  O   LIG    1       -0.200  -9.260  -1.911  0.00  0.00    -0.456 OA
ATOM      8  C   LIG    1        1.028  -9.002  -2.606  0.00  0.00    +0.269 C 
ATOM      9  O   LIG    1       -1.574  -8.063  -0.483  0.00  0.00    -0.245 OA
ATOM     10  C   LIG    1        1.390  -7.619  -2.214  0.00  0.00    +0.014 A 
ATOM     11  C   LIG    1        2.466  -6.817  -2.601  0.00  0.00    -0.001 A 
ATOM     12  C   LIG    1        3.441  -7.377  -3.596  0.00  0.00    +0.048 C 
BRANCH   2  14
ATOM     13  C   LIG    1        4.790  -4.922  -2.747  0.00  0.00    +0.277 C 
ATOM     14  O   LIG    1        3.489  -4.569  -2.322  0.00  0.00    -0.494 OA
ENDBRANCH   2  14
BRANCH   4  15
ATOM     15  O   LIG    1       -0.554  -5.446   0.008  0.00  0.00    -0.505 OA
ATOM     16  H   LIG    1       -1.223  -6.160   0.107  0.00  0.00    +0.292 HD
ENDBRANCH   4  15
ENDBRANCH   1   3
BRANCH   1  17
ATOM     17  C   LIG    1        1.618  -2.535  -1.596  0.00  0.00    -0.023 C 
ATOM     18  C   LIG    1        0.599  -1.843  -2.142  0.00  0.00    -0.076 C 
ATOM     19  C   LIG    1       -0.840  -1.998  -1.740  0.00  0.00    +0.038 C 
BRANCH  18  20
ATOM     20  C   LIG    1        0.887  -0.819  -3.222  0.00  0.00    +0.041 C 
BRANCH  20  21
ATOM     21  C   LIG    1        0.224  -1.140  -4.565  0.00  0.00    +0.125 C 
BRANCH  21  22
ATOM     22  C   LIG    1        0.508  -0.086  -5.616  0.00  0.00    +0.307 C 
ATOM     23  O   LIG    1       -0.257   0.199  -6.526  0.00  0.00    -0.251 OA
BRANCH  22  24
ATOM     24  O   LIG    1        1.761   0.412  -5.473  0.00  0.00    -0.463 OA
BRANCH  24  25
ATOM     25  C   LIG    1        2.241   1.340  -6.457  0.00  0.00    +0.247 C 
BRANCH  25  26
ATOM     26  C   LIG    1        2.660   0.682  -7.792  0.00  0.00    +0.125 C 
BRANCH  26  27
ATOM     27  N   LIG    1        3.842  -0.205  -7.734  0.00  0.00    -0.295 NA
ATOM     28  C   LIG    1        3.695  -1.395  -6.870  0.00  0.00    +0.112 C 
ATOM     29  C   LIG    1        2.856  -2.536  -7.469  0.00  0.00    +0.175 C 
ATOM     30  O   LIG    1        3.360  -2.936  -8.749  0.00  0.00    -0.377 OA
ATOM     31  C   LIG    1        3.366  -1.816  -9.643  0.00  0.00    +0.175 C 
ATOM     32  C   LIG    1        4.238  -0.675  -9.087  0.00  0.00    +0.112 C 
ENDBRANCH  26  27
ENDBRANCH  25  26
ENDBRANCH  24  25
ENDBRANCH  22  24
ENDBRANCH  21  22
ENDBRANCH  20  21
ENDBRANCH  18  20
ENDBRANCH   1  17
TORSDOF 11
