REMARK  Name = *****
REMARK                            x       y       z     vdW  Elec       q    Type
REMARK                         _______ _______ _______ _____ _____    ______ ____
ROOT
ATOM      1  C   LIG    1        6.440   2.313   0.543  0.00  0.00    +0.221 A 
ATOM      2  N   LIG    1        5.516   3.218   0.930  0.00  0.00    -0.198 NA
ATOM      3  C   LIG    1        5.875   4.289   1.685  0.00  0.00    +0.146 A 
ATOM      4  C   LIG    1        7.186   4.396   2.130  0.00  0.00    +0.099 A 
ATOM      5 CL   LIG    1        7.831   5.396   3.370  0.00  0.00    -0.078 Cl
ATOM      6  C   LIG    1        8.082   3.502   1.577  0.00  0.00    +0.138 A 
ATOM      7  N   LIG    1        7.745   2.478   0.774  0.00  0.00    -0.221 NA
ENDROOT
BRANCH   1   8
ATOM      8  N   LIG    1        6.099   1.119  -0.090  0.00  0.00    -0.281 N 
ATOM      9  H   LIG    1        6.909   0.662  -0.486  0.00  0.00    +0.155 HD
BRANCH   8  15
ATOM     10  C   LIG    1        1.195   0.856   0.251  0.00  0.00    +0.044 C 
ATOM     11  C   LIG    1        2.502   0.114   0.203  0.00  0.00    -0.045 A 
ATOM     12  C   LIG    1        2.586  -1.287   0.128  0.00  0.00    -0.038 A 
ATOM     13  C   LIG    1        3.859  -1.840  -0.044  0.00  0.00    +0.051 A 
ATOM     14  C   LIG    1        5.010  -1.065  -0.225  0.00  0.00    +0.142 A 
ATOM     15  C   LIG    1        4.939   0.329  -0.048  0.00  0.00    +0.076 A 
ATOM     16  C   LIG    1        3.682   0.883   0.207  0.00  0.00    +0.030 A 
BRANCH  12  17
ATOM     17  C   LIG    1        1.362  -2.192   0.276  0.00  0.00    +0.022 C 
ATOM     18  C   LIG    1        1.331  -3.467  -0.600  0.00  0.00    +0.023 C 
ATOM     19  C   LIG    1        2.023  -4.699  -0.006  0.00  0.00    +0.081 C 
ATOM     20  N   LIG    1        1.697  -4.923   1.399  0.00  0.00    -0.316 NA
ATOM     21  H   LIG    1        0.710  -5.167   1.478  0.00  0.00    +0.122 HD
ATOM     22  C   LIG    1        1.962  -3.734   2.210  0.00  0.00    +0.081 C 
ATOM     23  C   LIG    1        1.116  -2.550   1.750  0.00  0.00    +0.023 C 
ENDBRANCH  12  17
BRANCH  14  24
ATOM     24  O   LIG    1        6.233  -1.637  -0.517  0.00  0.00    -0.487 OA
BRANCH  24  25
ATOM     25  C   LIG    1        6.204  -2.812  -1.358  0.00  0.00    +0.167 C 
ATOM     26  C   LIG    1        7.406  -3.687  -1.021  0.00  0.00    +0.051 C 
ATOM     27  C   LIG    1        6.215  -2.408  -2.828  0.00  0.00    +0.051 C 
ENDBRANCH  24  25
ENDBRANCH  14  24
ENDBRANCH   8  15
ENDBRANCH   1   8
BRANCH   3  28
ATOM     28  N   LIG    1        4.775   5.119   1.964  0.00  0.00    -0.297 N 
ATOM     29  H   LIG    1        3.973   4.783   1.430  0.00  0.00    +0.154 HD
BRANCH  28  30
ATOM     30  C   LIG    1        4.537   6.277   2.723  0.00  0.00    +0.058 A 
ATOM     31  C   LIG    1        3.363   6.478   3.480  0.00  0.00    +0.110 A 
ATOM     32  C   LIG    1        3.272   7.524   4.421  0.00  0.00    +0.029 A 
ATOM     33  C   LIG    1        4.359   8.360   4.649  0.00  0.00    +0.002 A 
ATOM     34  C   LIG    1        5.487   8.232   3.856  0.00  0.00    +0.002 A 
ATOM     35  C   LIG    1        5.534   7.248   2.866  0.00  0.00    +0.025 A 
BRANCH  31  36
ATOM     36  S   LIG    1        1.895   5.486   3.267  0.00  0.00    +0.001 S 
ATOM     37  O   LIG    1        1.580   5.569   1.836  0.00  0.00    -0.169 OA
ATOM     38  O   LIG    1        0.923   5.904   4.245  0.00  0.00    -0.169 OA
BRANCH  36  39
ATOM     39  C   LIG    1        2.335   3.791   3.619  0.00  0.00    +0.130 C 
ATOM     40  C   LIG    1        1.123   2.888   3.401  0.00  0.00    +0.032 C 
ATOM     41  C   LIG    1        2.884   3.626   5.027  0.00  0.00    +0.032 C 
ENDBRANCH  36  39
ENDBRANCH  31  36
ENDBRANCH  28  30
ENDBRANCH   3  28
TORSDOF 9
