REMARK  Name = *****
REMARK                            x       y       z     vdW  Elec       q    Type
REMARK                         _______ _______ _______ _____ _____    ______ ____
ROOT
ATOM      1  C   LIG    1       -3.732   1.688   0.460  0.00  0.00    +0.028 C 
ATOM      2  C   LIG    1       -2.838   0.905  -0.513  0.00  0.00    +0.078 C 
ATOM      3  N   LIG    1       -2.546  -0.439  -0.004  0.00  0.00    -0.266 N 
ATOM      4  C   LIG    1       -3.556  -1.474  -0.202  0.00  0.00    +0.228 C 
ATOM      5  C   LIG    1       -2.991  -2.884   0.037  0.00  0.00    +0.173 C 
ATOM      6  N   LIG    1       -2.321  -2.959   1.340  0.00  0.00    -0.335 NA
ATOM      7  C   LIG    1       -1.569  -1.866   1.792  0.00  0.00    +0.150 C 
ATOM      8  C   LIG    1       -0.815  -1.909   2.916  0.00  0.00    +0.194 C 
ATOM      9  C   LIG    1       -0.825  -3.184   3.717  0.00  0.00    +0.236 C 
ATOM     10  O   LIG    1       -0.201  -3.279   4.774  0.00  0.00    -0.283 OA
ATOM     11  C   LIG    1       -1.629  -4.328   3.211  0.00  0.00    +0.103 C 
ATOM     12  C   LIG    1       -2.297  -4.142   2.063  0.00  0.00    +0.103 C 
ATOM     13  O   LIG    1       -4.043  -1.448  -1.546  0.00  0.00    -0.357 OA
ATOM     14  C   LIG    1       -4.565  -0.187  -1.939  0.00  0.00    +0.164 C 
ATOM     15  C   LIG    1       -1.619  -0.553   1.029  0.00  0.00    +0.269 C 
ATOM     16  O   LIG    1       -0.876   0.375   1.357  0.00  0.00    -0.268 OA
ATOM     17  C   LIG    1       -3.451   0.838  -1.908  0.00  0.00    +0.050 C 
ENDROOT
BRANCH  11  18
ATOM     18  C   LIG    1       -1.788  -5.630   3.916  0.00  0.00    +0.250 C 
ATOM     19  N   LIG    1       -1.393  -5.633   5.227  0.00  0.00    -0.307 N 
ATOM     20  H   LIG    1       -0.885  -4.824   5.587  0.00  0.00    +0.149 HD
ATOM     21  O   LIG    1       -2.283  -6.607   3.359  0.00  0.00    -0.270 OA
BRANCH  19  22
ATOM     22  C   LIG    1       -1.514  -6.788   6.081  0.00  0.00    +0.143 C 
BRANCH  22  23
ATOM     23  C   LIG    1       -0.265  -7.621   6.064  0.00  0.00    +0.005 C 
ATOM     24  C   LIG    1        0.780  -7.346   6.951  0.00  0.00    +0.131 C 
ATOM     25  F   LIG    1        0.658  -6.346   7.836  0.00  0.00    -0.205 F 
ATOM     26  C   LIG    1        1.952  -8.093   6.943  0.00  0.00    +0.077 C 
ATOM     27  C   LIG    1        2.080  -9.128   6.028  0.00  0.00    +0.126 C 
ATOM     28  F   LIG    1        3.202  -9.859   6.009  0.00  0.00    -0.205 F 
ATOM     29  C   LIG    1        1.063  -9.421   5.125  0.00  0.00    +0.039 C 
ATOM     30  C   LIG    1       -0.110  -8.663   5.138  0.00  0.00    +0.011 C 
ENDBRANCH  22  23
ENDBRANCH  19  22
ENDBRANCH  11  18
BRANCH   8  31
ATOM     31  O   LIG    1       -0.048  -0.864   3.410  0.00  0.00    -0.502 OA
ATOM     32  H   LIG    1       -0.100  -0.114   2.777  0.00  0.00    +0.292 HD
ENDBRANCH   8  31
TORSDOF 4
