REMARK  Name = *****
REMARK                            x       y       z     vdW  Elec       q    Type
REMARK                         _______ _______ _______ _____ _____    ______ ____
ROOT
ATOM      1  N   LIG    1       11.132  -2.107   4.399  0.00  0.00    +0.239 N 
ATOM      2  C   LIG    1       10.490  -3.248   5.191  0.00  0.00    +0.192 C 
ATOM      3  C   LIG    1       11.662  -1.049   5.394  0.00  0.00    +0.192 C 
ENDROOT
BRANCH   1   4
ATOM      4  C   LIG    1       10.083  -1.430   3.493  0.00  0.00    +0.132 C 
BRANCH   4   5
ATOM      5  C   LIG    1        8.865  -0.911   4.279  0.00  0.00    +0.051 C 
BRANCH   5   6
ATOM      6  C   LIG    1        7.818  -0.258   3.369  0.00  0.00    +0.005 C 
BRANCH   6   7
ATOM      7  C   LIG    1        6.614   0.253   4.177  0.00  0.00    +0.000 C 
BRANCH   7   8
ATOM      8  C   LIG    1        5.582   1.038   3.345  0.00  0.00    -0.000 C 
BRANCH   8   9
ATOM      9  C   LIG    1        4.738   0.162   2.413  0.00  0.00    -0.000 C 
BRANCH   9  11
ATOM     10  C   LIG    1        4.233   1.969   0.614  0.00  0.00    +0.004 C 
ATOM     11  C   LIG    1        3.694   0.908   1.566  0.00  0.00    -0.003 C 
ENDBRANCH   9  11
ENDBRANCH   8   9
ENDBRANCH   7   8
ENDBRANCH   6   7
ENDBRANCH   5   6
ENDBRANCH   4   5
ENDBRANCH   1   4
BRANCH   1  12
ATOM     12  C   LIG    1       12.355  -2.657   3.598  0.00  0.00    +0.132 C 
BRANCH  12  13
ATOM     13  C   LIG    1       12.136  -3.883   2.654  0.00  0.00    +0.051 C 
BRANCH  13  14
ATOM     14  C   LIG    1       11.430  -3.681   1.303  0.00  0.00    +0.005 C 
BRANCH  14  15
ATOM     15  C   LIG    1       11.360  -4.961   0.416  0.00  0.00    +0.000 C 
BRANCH  15  16
ATOM     16  C   LIG    1       10.545  -6.153   0.981  0.00  0.00    -0.000 C 
BRANCH  16  17
ATOM     17  C   LIG    1       10.441  -7.356   0.004  0.00  0.00    -0.000 C 
BRANCH  17  18
ATOM     18  C   LIG    1        9.657  -8.555   0.580  0.00  0.00    -0.003 C 
ATOM     19  C   LIG    1        9.637  -9.762  -0.360  0.00  0.00    +0.004 C 
ENDBRANCH  17  18
ENDBRANCH  16  17
ENDBRANCH  15  16
ENDBRANCH  14  15
ENDBRANCH  13  14
ENDBRANCH  12  13
ENDBRANCH   1  12
TORSDOF 14
