REMARK  Name = *****
REMARK                            x       y       z     vdW  Elec       q    Type
REMARK                         _______ _______ _______ _____ _____    ______ ____
ROOT
ATOM      1  C   LIG    1        5.541  -1.312  -0.075  0.00  0.00    +0.272 C 
ATOM      2  C   LIG    1        5.861  -2.345  -1.235  0.00  0.00    +0.144 C 
ATOM      3  N   LIG    1        4.610  -3.071  -1.650  0.00  0.00    -0.282 NA
ATOM      4  C   LIG    1        3.551  -2.088  -2.003  0.00  0.00    +0.113 C 
ATOM      5  C   LIG    1        3.384  -0.891  -1.050  0.00  0.00    +0.178 C 
ATOM      6  O   LIG    1        4.610  -0.328  -0.565  0.00  0.00    -0.348 OA
ENDROOT
BRANCH   2   7
ATOM      7  C   LIG    1        6.605  -1.710  -2.443  0.00  0.00    -0.025 A 
ATOM      8  C   LIG    1        7.770  -0.944  -2.252  0.00  0.00    +0.008 A 
ATOM      9  C   LIG    1        8.438  -0.326  -3.308  0.00  0.00    +0.039 A 
ATOM     10  C   LIG    1        7.938  -0.447  -4.589  0.00  0.00    +0.123 A 
ATOM     11  F   LIG    1        8.557   0.173  -5.600  0.00  0.00    -0.205 F 
ATOM     12  C   LIG    1        6.814  -1.219  -4.833  0.00  0.00    +0.039 A 
ATOM     13  C   LIG    1        6.186  -1.886  -3.776  0.00  0.00    +0.008 A 
ENDBRANCH   2   7
BRANCH   1  14
ATOM     14  O   LIG    1        6.657  -0.627   0.518  0.00  0.00    -0.342 OA
BRANCH  14  16
ATOM     15  C   LIG    1        7.225  -2.234   2.294  0.00  0.00    +0.043 C 
ATOM     16  C   LIG    1        7.708  -1.397   1.119  0.00  0.00    +0.148 C 
BRANCH  16  17
ATOM     17  C   LIG    1        8.827  -0.452   1.577  0.00  0.00    -0.018 A 
ATOM     18  C   LIG    1       10.176  -0.862   1.539  0.00  0.00    +0.018 A 
ATOM     19  C   LIG    1       11.211  -0.039   2.029  0.00  0.00    +0.056 A 
ATOM     20  C   LIG    1       10.881   1.212   2.570  0.00  0.00    +0.024 A 
ATOM     21  C   LIG    1        9.553   1.663   2.588  0.00  0.00    +0.056 A 
ATOM     22  C   LIG    1        8.538   0.823   2.094  0.00  0.00    +0.018 A 
BRANCH  19  23
ATOM     23  C   LIG    1       12.656  -0.488   1.974  0.00  0.00    +0.417 C 
ATOM     24  F   LIG    1       13.081  -0.721   0.701  0.00  0.00    -0.166 F 
ATOM     25  F   LIG    1       12.873  -1.643   2.661  0.00  0.00    -0.166 F 
ATOM     26  F   LIG    1       13.528   0.422   2.494  0.00  0.00    -0.166 F 
ENDBRANCH  19  23
BRANCH  21  27
ATOM     27  C   LIG    1        9.218   3.017   3.169  0.00  0.00    +0.417 C 
ATOM     28  F   LIG    1       10.279   3.873   3.175  0.00  0.00    -0.166 F 
ATOM     29  F   LIG    1        8.803   2.933   4.463  0.00  0.00    -0.166 F 
ATOM     30  F   LIG    1        8.227   3.660   2.495  0.00  0.00    -0.166 F 
ENDBRANCH  21  27
ENDBRANCH  16  17
ENDBRANCH  14  16
ENDBRANCH   1  14
BRANCH   3  31
ATOM     31  C   LIG    1        4.076  -4.026  -0.656  0.00  0.00    +0.161 C 
BRANCH  31  32
ATOM     32  C   LIG    1        5.066  -5.093  -0.243  0.00  0.00    +0.146 C 
ATOM     33  N   LIG    1        5.351  -5.240   1.085  0.00  0.00    -0.292 N 
ATOM     34  H   LIG    1        4.957  -4.762   1.875  0.00  0.00    +0.172 HD
ATOM     35  C   LIG    1        6.179  -6.300   1.179  0.00  0.00    +0.353 C 
ATOM     36  O   LIG    1        6.614  -6.727   2.248  0.00  0.00    -0.244 OA
ATOM     37  N   LIG    1        6.407  -6.731  -0.108  0.00  0.00    -0.113 N 
ATOM     38  N   LIG    1        5.653  -5.951  -0.998  0.00  0.00    -0.143 NA
BRANCH  37  39
ATOM     39  P   LIG    1        7.263  -8.111  -0.514  0.00  0.00    +0.457 P 
ATOM     40  O   LIG    1        7.276  -8.588  -1.922  0.00  0.00    -0.233 OA
BRANCH  39  41
ATOM     41  O   LIG    1        6.761  -9.291   0.456  0.00  0.00    -0.307 OA
ATOM     42  H   LIG    1        7.047 -10.168   0.147  0.00  0.00    +0.222 HD
ENDBRANCH  39  41
BRANCH  39  43
ATOM     43  O   LIG    1        8.775  -7.933   0.011  0.00  0.00    -0.307 OA
ATOM     44  H   LIG    1        9.368  -8.598  -0.380  0.00  0.00    +0.222 HD
ENDBRANCH  39  43
ENDBRANCH  37  39
ENDBRANCH  31  32
ENDBRANCH   3  31
TORSDOF 11
