REMARK  Name = *****
REMARK                            x       y       z     vdW  Elec       q    Type
REMARK                         _______ _______ _______ _____ _____    ______ ____
ROOT
ATOM      1  C   LIG    1        5.014  -2.350   1.576  0.00  0.00    +0.175 C 
ENDROOT
BRANCH   1   2
ATOM      2  C   LIG    1        6.555  -2.270   1.698  0.00  0.00    +0.371 C 
ATOM      3  F   LIG    1        7.013  -3.277   2.493  0.00  0.00    -0.207 F 
ATOM      4  F   LIG    1        6.886  -1.121   2.356  0.00  0.00    -0.207 F 
ENDBRANCH   1   2
BRANCH   1   5
ATOM      5  N   LIG    1        4.311  -2.348   2.927  0.00  0.00    -0.311 NA
ATOM      6  H   LIG    1        5.040  -2.211   3.641  0.00  0.00    +0.119 HD
ATOM      7  H   LIG    1        3.755  -1.491   2.995  0.00  0.00    +0.119 HD
ENDBRANCH   1   5
BRANCH   1   8
ATOM      8  C   LIG    1        4.728  -3.699   0.908  0.00  0.00    +0.331 C 
ATOM      9  O   LIG    1        5.100  -4.035  -0.210  0.00  0.00    -0.249 OA
BRANCH   8  10
ATOM     10  O   LIG    1        3.962  -4.492   1.706  0.00  0.00    -0.479 OA
ATOM     11  H   LIG    1        3.809  -3.961   2.533  0.00  0.00    +0.295 HD
ENDBRANCH   8  10
ENDBRANCH   1   8
BRANCH   1  12
ATOM     12  C   LIG    1        4.479  -1.188   0.708  0.00  0.00    +0.040 C 
BRANCH  12  13
ATOM     13  C   LIG    1        2.968  -1.229   0.398  0.00  0.00    +0.017 C 
BRANCH  13  14
ATOM     14  C   LIG    1        2.515  -0.017  -0.423  0.00  0.00    +0.078 C 
BRANCH  14  15
ATOM     15  N   LIG    1        3.157   0.022  -1.730  0.00  0.00    -0.330 NA
ATOM     16  H   LIG    1        2.817  -0.751  -2.303  0.00  0.00    +0.118 HD
ATOM     17  H   LIG    1        2.880   0.873  -2.219  0.00  0.00    +0.118 HD
ENDBRANCH  14  15
ENDBRANCH  13  14
ENDBRANCH  12  13
ENDBRANCH   1  12
TORSDOF 8
