REMARK  Name = *****
REMARK                            x       y       z     vdW  Elec       q    Type
REMARK                         _______ _______ _______ _____ _____    ______ ____
ROOT
ATOM      1  C   LIG    1        3.747  -0.056   0.002  0.00  0.00    +0.146 C 
ENDROOT
BRANCH   1   2
ATOM      2  C   LIG    1        4.249  -1.256  -0.773  0.00  0.00    +0.032 C 
ATOM      3  C   LIG    1        3.739  -1.868  -1.849  0.00  0.00    +0.079 C 
ATOM      4 CL   LIG    1        2.343  -1.392  -2.713  0.00  0.00    -0.092 Cl
ENDBRANCH   1   2
BRANCH   1   6
ATOM      5  C   LIG    1        4.415  -0.370   2.579  0.00  0.00    +0.007 C 
ATOM      6  C   LIG    1        4.114  -0.230   1.423  0.00  0.00    -0.067 C 
ENDBRANCH   1   6
BRANCH   1   7
ATOM      7  O   LIG    1        2.326   0.021  -0.044  0.00  0.00    -0.373 OA
ATOM      8  H   LIG    1        2.058  -0.109  -0.968  0.00  0.00    +0.212 HD
ENDBRANCH   1   7
BRANCH   1   9
ATOM      9  C   LIG    1        4.302   1.276  -0.545  0.00  0.00    +0.049 C 
ATOM     10  C   LIG    1        5.821   1.409  -0.545  0.00  0.00    +0.008 C 
ENDBRANCH   1   9
TORSDOF 4
