REMARK  Name = *****
REMARK                            x       y       z     vdW  Elec       q    Type
REMARK                         _______ _______ _______ _____ _____    ______ ____
ROOT
ATOM      1  C   LIG    1        6.350   2.719   1.346  0.00  0.00    +0.036 A 
ATOM      2  C   LIG    1        7.116   1.657   0.837  0.00  0.00    +0.038 A 
ATOM      3  C   LIG    1        8.518   1.671   0.891  0.00  0.00    +0.060 A 
ATOM      4  C   LIG    1        9.156   2.835   1.361  0.00  0.00    +0.131 A 
ATOM      5  C   LIG    1        8.372   3.845   1.941  0.00  0.00    +0.048 A 
ATOM      6  C   LIG    1        6.985   3.780   1.958  0.00  0.00    +0.027 A 
ENDROOT
BRANCH   1   9
ATOM      7  N   LIG    1        2.668   3.025   1.387  0.00  0.00    -0.286 N 
ATOM      8  C   LIG    1        3.969   3.387   1.797  0.00  0.00    +0.306 C 
ATOM      9  N   LIG    1        4.963   2.654   1.162  0.00  0.00    -0.269 N 
ATOM     10  H   LIG    1        4.685   2.015   0.445  0.00  0.00    +0.156 HD
ATOM     11  O   LIG    1        4.165   4.225   2.656  0.00  0.00    -0.252 OA
BRANCH   7  13
ATOM     12  C   LIG    1        1.000   3.032   3.236  0.00  0.00    +0.024 C 
ATOM     13  C   LIG    1        1.527   3.727   1.986  0.00  0.00    +0.106 C 
ENDBRANCH   7  13
BRANCH   7  14
ATOM     14  C   LIG    1        2.348   2.023   0.374  0.00  0.00    +0.106 C 
ATOM     15  C   LIG    1        2.303   2.629  -1.021  0.00  0.00    +0.024 C 
ENDBRANCH   7  14
ENDBRANCH   1   9
BRANCH   3  16
ATOM     16  C   LIG    1        9.283   0.435   0.488  0.00  0.00    +0.164 C 
ATOM     17  O   LIG    1       10.439   0.503   0.078  0.00  0.00    -0.292 OA
ATOM     18  C   LIG    1        8.643  -0.931   0.681  0.00  0.00    +0.091 C 
ENDBRANCH   3  16
BRANCH   4  19
ATOM     19  O   LIG    1       10.517   2.934   1.260  0.00  0.00    -0.489 OA
BRANCH  19  20
ATOM     20  C   LIG    1       11.173   4.124   1.733  0.00  0.00    +0.261 C 
BRANCH  20  21
ATOM     21  C   LIG    1       11.652   3.918   3.180  0.00  0.00    +0.166 C 
BRANCH  21  22
ATOM     22  O   LIG    1       10.554   3.607   4.051  0.00  0.00    -0.387 OA
ATOM     23  H   LIG    1       10.156   2.787   3.705  0.00  0.00    +0.210 HD
ENDBRANCH  21  22
BRANCH  21  24
ATOM     24  C   LIG    1       12.667   2.767   3.215  0.00  0.00    +0.116 C 
BRANCH  24  25
ATOM     25  N   LIG    1       13.157   2.509   4.578  0.00  0.00    -0.309 NA
ATOM     26  H   LIG    1       12.348   2.364   5.186  0.00  0.00    +0.122 HD
BRANCH  25  27
ATOM     27  C   LIG    1       14.102   1.381   4.675  0.00  0.00    +0.011 C 
ATOM     28  C   LIG    1       15.366   1.685   3.853  0.00  0.00    +0.027 C 
ATOM     29  C   LIG    1       13.470   0.060   4.204  0.00  0.00    +0.027 C 
ATOM     30  C   LIG    1       14.523   1.218   6.150  0.00  0.00    +0.027 C 
ENDBRANCH  25  27
ENDBRANCH  24  25
ENDBRANCH  21  24
ENDBRANCH  20  21
ENDBRANCH  19  20
ENDBRANCH   4  19
TORSDOF 11
