REMARK  Name = *****
REMARK                            x       y       z     vdW  Elec       q    Type
REMARK                         _______ _______ _______ _____ _____    ______ ____
ROOT
ATOM      1  C   LIG    1        3.343  -1.697   0.601  0.00  0.00    +0.108 A 
ATOM      2  C   LIG    1        4.355  -1.902   1.540  0.00  0.00    +0.058 A 
ATOM      3  C   LIG    1        4.703  -3.211   1.914  0.00  0.00    +0.127 A 
ATOM      4  C   LIG    1        4.040  -4.315   1.356  0.00  0.00    +0.086 A 
ATOM      5 CL   LIG    1        4.442  -5.947   1.785  0.00  0.00    -0.080 Cl
ATOM      6  C   LIG    1        3.026  -4.081   0.407  0.00  0.00    +0.063 A 
ATOM      7 CL   LIG    1        2.154  -5.367  -0.357  0.00  0.00    -0.082 Cl
ATOM      8  C   LIG    1        2.679  -2.780   0.030  0.00  0.00    +0.050 A 
ENDROOT
BRANCH   1   9
ATOM      9  S   LIG    1        2.926  -0.048   0.113  0.00  0.00    +0.056 S 
ATOM     10  O   LIG    1        4.144   0.634  -0.249  0.00  0.00    -0.153 OA
ATOM     11  O   LIG    1        1.765  -0.090  -0.741  0.00  0.00    -0.153 OA
BRANCH   9  12
ATOM     12  N   LIG    1        2.404   0.628   1.556  0.00  0.00    -0.203 NA
ATOM     13  H   LIG    1        3.006   1.413   1.812  0.00  0.00    +0.144 HD
ATOM     14  H   LIG    1        1.419   0.887   1.480  0.00  0.00    +0.144 HD
ENDBRANCH   9  12
ENDBRANCH   1   9
BRANCH   3  15
ATOM     15  S   LIG    1        5.989  -3.407   3.111  0.00  0.00    +0.057 S 
ATOM     16  O   LIG    1        5.522  -4.254   4.179  0.00  0.00    -0.153 OA
ATOM     17  O   LIG    1        6.576  -2.111   3.371  0.00  0.00    -0.153 OA
BRANCH  15  18
ATOM     18  N   LIG    1        7.168  -4.248   2.267  0.00  0.00    -0.203 NA
ATOM     19  H   LIG    1        7.300  -5.176   2.675  0.00  0.00    +0.144 HD
ATOM     20  H   LIG    1        8.027  -3.697   2.214  0.00  0.00    +0.144 HD
ENDBRANCH  15  18
ENDBRANCH   3  15
TORSDOF 4
