REMARK  Name = *****
REMARK                            x       y       z     vdW  Elec       q    Type
REMARK                         _______ _______ _______ _____ _____    ______ ____
ROOT
ATOM      1  C   LIG    1        3.473   0.001  -1.953  0.00  0.00    +0.065 C 
ATOM      2  C   LIG    1        4.074   0.166  -0.557  0.00  0.00    +0.096 C 
ATOM      3  C   LIG    1        5.482   0.757  -0.580  0.00  0.00    +0.065 C 
ATOM      4  C   LIG    1        5.924   1.417  -1.686  0.00  0.00    +0.016 C 
ATOM      5  C   LIG    1        7.306   2.008  -1.844  0.00  0.00    +0.061 C 
ATOM      6  N   LIG    1        5.095   1.514  -2.800  0.00  0.00    -0.321 N 
ATOM      7  H   LIG    1        5.519   1.899  -3.643  0.00  0.00    +0.152 HD
ATOM      8  C   LIG    1        3.980   0.705  -2.995  0.00  0.00    +0.016 C 
ATOM      9  C   LIG    1        3.453   0.644  -4.407  0.00  0.00    +0.061 C 
ENDROOT
BRANCH   2  10
ATOM     10  C   LIG    1        3.138   0.946   0.386  0.00  0.00    -0.029 A 
ATOM     11  C   LIG    1        2.596   0.320   1.521  0.00  0.00    +0.088 A 
ATOM     12  C   LIG    1        1.761   1.045   2.384  0.00  0.00    +0.273 A 
ATOM     13  C   LIG    1        1.441   2.382   2.154  0.00  0.00    +0.084 A 
ATOM     14  C   LIG    1        1.967   3.005   1.025  0.00  0.00    +0.007 A 
ATOM     15  C   LIG    1        2.806   2.296   0.152  0.00  0.00    +0.005 A 
BRANCH  12  16
ATOM     16  N   LIG    1        1.206   0.383   3.549  0.00  0.00    +0.080 N 
ATOM     17  O   LIG    1        0.521  -0.629   3.349  0.00  0.00    -0.576 OA
ATOM     18  O   LIG    1        1.464   0.875   4.655  0.00  0.00    +0.041 OA
ENDBRANCH  12  16
ENDBRANCH   2  10
BRANCH   1  19
ATOM     19  C   LIG    1        2.409  -1.026  -2.131  0.00  0.00    +0.337 C 
ATOM     20  O   LIG    1        1.638  -1.086  -3.079  0.00  0.00    -0.245 OA
BRANCH  19  22
ATOM     21  C   LIG    1        1.524  -3.002  -1.151  0.00  0.00    +0.280 C 
ATOM     22  O   LIG    1        2.454  -1.916  -1.108  0.00  0.00    -0.465 OA
ENDBRANCH  19  22
ENDBRANCH   1  19
BRANCH   3  23
ATOM     23  C   LIG    1        6.340   0.515   0.608  0.00  0.00    +0.338 C 
ATOM     24  O   LIG    1        7.385   1.115   0.837  0.00  0.00    -0.245 OA
BRANCH  23  25
ATOM     25  O   LIG    1        5.833  -0.478   1.384  0.00  0.00    -0.457 OA
BRANCH  25  26
ATOM     26  C   LIG    1        6.589  -0.860   2.551  0.00  0.00    +0.192 C 
ATOM     27  C   LIG    1        6.860  -2.371   2.532  0.00  0.00    +0.129 C 
ATOM     28  N   LIG    1        6.001  -2.999   3.555  0.00  0.00    -0.294 NA
ATOM     29  C   LIG    1        5.060  -1.978   4.024  0.00  0.00    +0.088 C 
ATOM     30  C   LIG    1        5.750  -0.646   3.799  0.00  0.00    +0.061 C 
BRANCH  28  31
ATOM     31  C   LIG    1        5.322  -4.212   3.070  0.00  0.00    +0.119 C 
BRANCH  31  32
ATOM     32  C   LIG    1        4.515  -4.938   4.133  0.00  0.00    -0.033 A 
ATOM     33  C   LIG    1        3.155  -4.639   4.319  0.00  0.00    +0.005 A 
ATOM     34  C   LIG    1        2.405  -5.285   5.304  0.00  0.00    +0.000 A 
ATOM     35  C   LIG    1        3.003  -6.243   6.117  0.00  0.00    +0.000 A 
ATOM     36  C   LIG    1        4.349  -6.559   5.941  0.00  0.00    +0.000 A 
ATOM     37  C   LIG    1        5.103  -5.910   4.956  0.00  0.00    +0.005 A 
ENDBRANCH  31  32
ENDBRANCH  28  31
ENDBRANCH  25  26
ENDBRANCH  23  25
ENDBRANCH   3  23
TORSDOF 9
