REMARK  Name = *****
REMARK                            x       y       z     vdW  Elec       q    Type
REMARK                         _______ _______ _______ _____ _____    ______ ____
ROOT
ATOM      1  C   LIG    1        1.876  -3.358  -4.424  0.00  0.00    +0.051 C 
ATOM      2  C   LIG    1        0.693  -3.108  -5.348  0.00  0.00    -0.026 A 
ATOM      3  C   LIG    1       -0.167  -4.153  -5.728  0.00  0.00    +0.017 A 
ATOM      4  C   LIG    1       -1.278  -3.882  -6.537  0.00  0.00    +0.015 A 
ATOM      5  C   LIG    1       -1.531  -2.585  -6.983  0.00  0.00    +0.001 A 
ATOM      6  C   LIG    1       -0.672  -1.550  -6.631  0.00  0.00    +0.000 A 
ATOM      7  S   LIG    1        0.143  -5.841  -5.238  0.00  0.00    -0.089 S 
ATOM      8  C   LIG    1        1.925  -5.814  -5.120  0.00  0.00    +0.017 A 
ATOM      9  C   LIG    1        2.630  -6.995  -5.377  0.00  0.00    +0.015 A 
ATOM     10  C   LIG    1        4.024  -7.009  -5.335  0.00  0.00    +0.001 A 
ATOM     11  C   LIG    1        4.722  -5.841  -5.035  0.00  0.00    +0.000 A 
ATOM     12  C   LIG    1        4.028  -4.663  -4.759  0.00  0.00    +0.005 A 
ATOM     13  C   LIG    1        0.435  -1.809  -5.823  0.00  0.00    +0.005 A 
ATOM     14  C   LIG    1        2.623  -4.636  -4.793  0.00  0.00    -0.026 A 
ENDROOT
BRANCH   1  15
ATOM     15  C   LIG    1        1.481  -3.417  -2.922  0.00  0.00    +0.017 C 
BRANCH  15  19
ATOM     16  C   LIG    1       -1.836  -1.241  -0.797  0.00  0.00    +0.105 C 
ATOM     17  N   LIG    1       -0.472  -1.365  -0.289  0.00  0.00    -0.305 NA
ATOM     18  C   LIG    1        0.257  -2.476  -0.919  0.00  0.00    +0.087 C 
ATOM     19  C   LIG    1        0.715  -2.197  -2.368  0.00  0.00    +0.004 C 
ATOM     20  C   LIG    1        1.551  -0.911  -2.395  0.00  0.00    +0.006 C 
ATOM     21  C   LIG    1        0.759   0.242  -1.786  0.00  0.00    +0.016 C 
ATOM     22  C   LIG    1        0.275  -0.105  -0.377  0.00  0.00    +0.084 C 
ENDBRANCH  15  19
ENDBRANCH   1  15
TORSDOF 2
