REMARK  Name = *****
REMARK                            x       y       z     vdW  Elec       q    Type
REMARK                         _______ _______ _______ _____ _____    ______ ____
ROOT
ATOM      1  C   LIG    1       -4.314   0.000  -1.380  0.00  0.00    +0.200 C 
ATOM      2  C   LIG    1       -4.183  -0.757  -2.760  0.00  0.00    +0.010 C 
ATOM      3  C   LIG    1       -5.482  -0.542  -3.565  0.00  0.00    +0.015 C 
ATOM      4  C   LIG    1       -3.856  -2.216  -2.302  0.00  0.00    +0.003 C 
ATOM      5  C   LIG    1       -2.662  -2.909  -3.012  0.00  0.00    -0.004 C 
ATOM      6  C   LIG    1       -2.683  -2.768  -4.547  0.00  0.00    -0.001 C 
ATOM      7  C   LIG    1       -2.788  -1.249  -4.901  0.00  0.00    +0.005 C 
ATOM      8  C   LIG    1       -3.647  -3.800  -5.301  0.00  0.00    -0.025 C 
ATOM      9  C   LIG    1       -5.126  -3.349  -5.221  0.00  0.00    +0.012 C 
ATOM     10  C   LIG    1       -3.592  -5.219  -4.667  0.00  0.00    -0.001 C 
ATOM     11  C   LIG    1       -2.389  -6.000  -5.173  0.00  0.00    +0.050 C 
ATOM     12  C   LIG    1       -2.638  -6.409  -6.616  0.00  0.00    +0.194 C 
ATOM     13  C   LIG    1       -2.764  -5.159  -7.535  0.00  0.00    +0.098 C 
ATOM     14  C   LIG    1       -3.601  -5.230  -3.138  0.00  0.00    +0.004 C 
ATOM     15  C   LIG    1       -3.310  -3.868  -6.836  0.00  0.00    +0.029 C 
ATOM     16  C   LIG    1       -2.488  -4.367  -2.585  0.00  0.00    +0.004 C 
ATOM     17  C   LIG    1       -3.525  -2.100  -0.797  0.00  0.00    +0.027 C 
ATOM     18  C   LIG    1       -3.021  -0.289  -3.683  0.00  0.00    +0.011 C 
ATOM     19  C   LIG    1       -4.542  -1.098  -0.253  0.00  0.00    +0.099 C 
ENDROOT
BRANCH  13  20
ATOM     20  N   LIG    1       -3.352  -5.461  -8.886  0.00  0.00    -0.286 NA
ATOM     21  C   LIG    1       -4.565  -6.283  -8.957  0.00  0.00    +0.136 C 
ATOM     22  C   LIG    1       -5.833  -5.537  -8.533  0.00  0.00    +0.148 C 
ATOM     23  N   LIG    1       -6.083  -4.256  -9.375  0.00  0.00    +0.241 N 
ATOM     24  C   LIG    1       -7.024  -3.348  -8.584  0.00  0.00    +0.192 C 
ATOM     25  C   LIG    1       -6.782  -4.639 -10.675  0.00  0.00    +0.192 C 
ATOM     26  C   LIG    1       -4.780  -3.463  -9.716  0.00  0.00    +0.148 C 
ATOM     27  C   LIG    1       -3.495  -4.332  -9.820  0.00  0.00    +0.136 C 
ENDBRANCH  13  20
BRANCH  19  28
ATOM     28  N   LIG    1       -5.858  -1.795  -0.038  0.00  0.00    -0.286 NA
ATOM     29  C   LIG    1       -5.821  -2.819   1.051  0.00  0.00    +0.136 C 
ATOM     30  C   LIG    1       -5.640  -2.281   2.493  0.00  0.00    +0.148 C 
ATOM     31  N   LIG    1       -6.635  -1.153   2.860  0.00  0.00    +0.241 N 
ATOM     32  C   LIG    1       -6.012  -0.318   3.989  0.00  0.00    +0.192 C 
ATOM     33  C   LIG    1       -7.942  -1.734   3.393  0.00  0.00    +0.192 C 
ATOM     34  C   LIG    1       -6.896  -0.205   1.667  0.00  0.00    +0.148 C 
ATOM     35  C   LIG    1       -6.996  -0.921   0.301  0.00  0.00    +0.136 C 
ENDBRANCH  19  28
BRANCH   1  36
ATOM     36  O   LIG    1       -5.307   1.034  -1.369  0.00  0.00    -0.459 OA
BRANCH  36  38
ATOM     37  C   LIG    1       -6.333   2.916  -0.412  0.00  0.00    +0.136 C 
ATOM     38  C   LIG    1       -5.167   1.982  -0.411  0.00  0.00    +0.304 C 
ATOM     39  O   LIG    1       -4.268   2.002   0.433  0.00  0.00    -0.251 OA
ENDBRANCH  36  38
ENDBRANCH   1  36
BRANCH  12  40
ATOM     40  O   LIG    1       -1.514  -7.210  -7.030  0.00  0.00    -0.460 OA
BRANCH  40  41
ATOM     41  C   LIG    1       -1.475  -8.470  -6.504  0.00  0.00    +0.304 C 
ATOM     42  O   LIG    1       -2.418  -9.034  -5.967  0.00  0.00    -0.251 OA
ATOM     43  C   LIG    1       -0.071  -8.992  -6.512  0.00  0.00    +0.136 C 
ENDBRANCH  40  41
ENDBRANCH  12  40
TORSDOF 6
