REMARK  Name = *****
REMARK                            x       y       z     vdW  Elec       q    Type
REMARK                         _______ _______ _______ _____ _____    ______ ____
ROOT
ATOM      1  C   LIG    1        9.591   0.192   8.677  0.00  0.00    +0.144 C 
ENDROOT
BRANCH   1   2
ATOM      2  C   LIG    1        8.666   0.954   9.614  0.00  0.00    -0.019 A 
ATOM      3  C   LIG    1        7.436   0.388   9.990  0.00  0.00    +0.008 A 
ATOM      4  C   LIG    1        6.601   1.027  10.916  0.00  0.00    +0.025 A 
ATOM      5  C   LIG    1        6.989   2.237  11.485  0.00  0.00    +0.048 A 
ATOM      6  C   LIG    1        8.177   2.843  11.079  0.00  0.00    +0.025 A 
ATOM      7  C   LIG    1        9.008   2.209  10.145  0.00  0.00    +0.008 A 
BRANCH   5   8
ATOM      8  N   LIG    1        6.180   2.857  12.495  0.00  0.00    -0.221 N 
ATOM      9  H   LIG    1        5.783   2.224  13.175  0.00  0.00    +0.173 HD
BRANCH   8  10
ATOM     10  S   LIG    1        4.982   3.942  12.007  0.00  0.00    +0.040 S 
ATOM     11  O   LIG    1        4.010   3.967  13.094  0.00  0.00    -0.155 OA
ATOM     12  O   LIG    1        4.580   3.640  10.659  0.00  0.00    -0.155 OA
ATOM     13  C   LIG    1        5.864   5.487  12.013  0.00  0.00    +0.218 C 
ENDBRANCH   8  10
ENDBRANCH   5   8
ENDBRANCH   1   2
BRANCH   1  14
ATOM     14  O   LIG    1       10.957   0.488   8.983  0.00  0.00    -0.387 OA
ATOM     15  H   LIG    1       11.040   0.485   9.953  0.00  0.00    +0.210 HD
ENDBRANCH   1  14
BRANCH   1  16
ATOM     16  C   LIG    1        9.325   0.472   7.189  0.00  0.00    +0.037 C 
BRANCH  16  17
ATOM     17  C   LIG    1       10.241  -0.352   6.263  0.00  0.00    +0.018 C 
BRANCH  17  18
ATOM     18  C   LIG    1        9.983   0.011   4.791  0.00  0.00    +0.084 C 
BRANCH  18  19
ATOM     19  N   LIG    1       10.743  -0.729   3.770  0.00  0.00    -0.303 NA
BRANCH  19  20
ATOM     20  C   LIG    1       10.363  -2.150   3.632  0.00  0.00    +0.081 C 
ATOM     21  C   LIG    1        8.861  -2.419   3.466  0.00  0.00    +0.020 C 
ENDBRANCH  19  20
BRANCH  19  22
ATOM     22  C   LIG    1       12.211  -0.606   3.906  0.00  0.00    +0.084 C 
BRANCH  22  23
ATOM     23  C   LIG    1       12.772   0.821   4.067  0.00  0.00    +0.015 C 
BRANCH  23  24
ATOM     24  C   LIG    1       12.487   1.783   2.907  0.00  0.00    +0.001 C 
BRANCH  24  25
ATOM     25  C   LIG    1       13.010   1.356   1.533  0.00  0.00    +0.000 C 
BRANCH  25  26
ATOM     26  C   LIG    1       14.525   1.145   1.454  0.00  0.00    -0.000 C 
BRANCH  26  28
ATOM     27  C   LIG    1       14.442  -0.559  -0.455  0.00  0.00    +0.004 C 
ATOM     28  C   LIG    1       14.990   0.772   0.040  0.00  0.00    -0.003 C 
ENDBRANCH  26  28
ENDBRANCH  25  26
ENDBRANCH  24  25
ENDBRANCH  23  24
ENDBRANCH  22  23
ENDBRANCH  19  22
ENDBRANCH  18  19
ENDBRANCH  17  18
ENDBRANCH  16  17
ENDBRANCH   1  16
TORSDOF 15
