REMARK  Name = *****
REMARK                            x       y       z     vdW  Elec       q    Type
REMARK                         _______ _______ _______ _____ _____    ______ ____
ROOT
ATOM      1  C   LIG    1        4.045 -10.859  -0.481  0.00  0.00    +0.028 C 
ENDROOT
BRANCH   1   2
ATOM      2  C   LIG    1        4.902  -9.588  -0.628  0.00  0.00    +0.017 C 
BRANCH   2   3
ATOM      3  C   LIG    1        4.011  -8.341  -0.451  0.00  0.00    +0.084 C 
BRANCH   3   4
ATOM      4  N   LIG    1        4.708  -7.050  -0.581  0.00  0.00    -0.305 NA
ATOM      5  C   LIG    1        5.781  -6.909   0.412  0.00  0.00    +0.105 C 
BRANCH   4   6
ATOM      6  C   LIG    1        3.776  -5.911  -0.410  0.00  0.00    +0.089 C 
BRANCH   6   7
ATOM      7  C   LIG    1        2.596  -5.860  -1.398  0.00  0.00    +0.050 C 
BRANCH   7  11
ATOM      8  C   LIG    1       -0.005  -2.525  -0.497  0.00  0.00    +0.162 A 
ATOM      9  C   LIG    1       -0.495  -3.838  -0.417  0.00  0.00    +0.162 A 
ATOM     10  C   LIG    1        0.357  -4.904  -0.737  0.00  0.00    +0.053 A 
ATOM     11  C   LIG    1        1.692  -4.685  -1.108  0.00  0.00    -0.043 A 
ATOM     12  C   LIG    1        2.164  -3.374  -1.196  0.00  0.00    +0.007 A 
ATOM     13  C   LIG    1        1.321  -2.307  -0.895  0.00  0.00    +0.050 A 
BRANCH   8  15
ATOM     14  C   LIG    1       -1.741  -1.424   0.696  0.00  0.00    +0.277 C 
ATOM     15  O   LIG    1       -0.692  -1.363  -0.261  0.00  0.00    -0.491 OA
ENDBRANCH   8  15
BRANCH   9  16
ATOM     16  O   LIG    1       -1.813  -4.039  -0.104  0.00  0.00    -0.491 OA
ATOM     17  C   LIG    1       -2.112  -5.251   0.582  0.00  0.00    +0.277 C 
ENDBRANCH   9  16
ENDBRANCH   7  11
ENDBRANCH   6   7
ENDBRANCH   4   6
ENDBRANCH   3   4
ENDBRANCH   2   3
ENDBRANCH   1   2
BRANCH   1  18
ATOM     18  C   LIG    1        4.769 -12.252  -0.581  0.00  0.00    +0.085 C 
BRANCH  18  19
ATOM     19  C   LIG    1        5.362 -12.384  -1.997  0.00  0.00    -0.024 A 
ATOM     20  C   LIG    1        6.651 -11.918  -2.322  0.00  0.00    +0.054 A 
ATOM     21  C   LIG    1        7.179 -12.030  -3.625  0.00  0.00    +0.162 A 
ATOM     22  C   LIG    1        6.394 -12.601  -4.646  0.00  0.00    +0.162 A 
ATOM     23  C   LIG    1        5.098 -13.017  -4.339  0.00  0.00    +0.050 A 
ATOM     24  C   LIG    1        4.595 -12.913  -3.047  0.00  0.00    +0.009 A 
BRANCH  21  25
ATOM     25  O   LIG    1        8.438 -11.578  -3.954  0.00  0.00    -0.491 OA
ATOM     26  C   LIG    1        9.394 -11.567  -2.894  0.00  0.00    +0.277 C 
ENDBRANCH  21  25
BRANCH  22  27
ATOM     27  O   LIG    1        6.916 -12.707  -5.915  0.00  0.00    -0.491 OA
ATOM     28  C   LIG    1        6.350 -13.738  -6.731  0.00  0.00    +0.277 C 
ENDBRANCH  22  27
ENDBRANCH  18  19
BRANCH  18  29
ATOM     29  C   LIG    1        5.804 -12.468   0.599  0.00  0.00    +0.007 C 
ATOM     30  C   LIG    1        6.704 -13.715   0.466  0.00  0.00    +0.009 C 
ATOM     31  C   LIG    1        5.127 -12.530   1.987  0.00  0.00    +0.009 C 
ENDBRANCH  18  29
BRANCH  18  32
ATOM     32  C   LIG    1        3.687 -13.277  -0.385  0.00  0.00    +0.074 C 
ATOM     33  N   LIG    1        2.816 -14.002  -0.249  0.00  0.00    -0.196 NA
ENDBRANCH  18  32
ENDBRANCH   1  18
TORSDOF 14
