REMARK  Name = *****
REMARK                            x       y       z     vdW  Elec       q    Type
REMARK                         _______ _______ _______ _____ _____    ______ ____
ROOT
ATOM      1  N   LIG    1        3.709   7.778  -0.272  0.00  0.00    -0.299 NA
ATOM      2  C   LIG    1        3.179   8.775   0.677  0.00  0.00    +0.103 C 
ATOM      3  C   LIG    1        3.327  10.240   0.225  0.00  0.00    +0.120 C 
ATOM      4  N   LIG    1        2.819  10.485  -1.144  0.00  0.00    -0.327 NA
ATOM      5  C   LIG    1        3.289   9.463  -2.112  0.00  0.00    +0.120 C 
ATOM      6  C   LIG    1        3.093   8.025  -1.594  0.00  0.00    +0.103 C 
ENDROOT
BRANCH   4   7
ATOM      7  C   LIG    1        2.900  11.829  -1.590  0.00  0.00    +0.030 C 
ATOM      8  C   LIG    1        2.796  12.156  -2.961  0.00  0.00    +0.034 C 
ATOM      9  C   LIG    1        2.918  13.488  -3.400  0.00  0.00    +0.023 C 
ATOM     10  C   LIG    1        3.107  14.479  -2.454  0.00  0.00    +0.136 C 
ATOM     11  O   LIG    1        3.226  15.693  -3.050  0.00  0.00    -0.450 OA
ATOM     12  C   LIG    1        3.113  15.489  -4.401  0.00  0.00    +0.190 C 
ATOM     13  C   LIG    1        3.165  14.246  -1.091  0.00  0.00    +0.049 C 
ATOM     14  C   LIG    1        2.905  14.147  -4.655  0.00  0.00    +0.063 C 
ATOM     15  C   LIG    1        3.047  12.908  -0.689  0.00  0.00    +0.027 C 
BRANCH  12  16
ATOM     16  C   LIG    1        3.229  16.618  -5.288  0.00  0.00    +0.277 C 
ATOM     17  O   LIG    1        3.154  16.559  -6.511  0.00  0.00    -0.267 OA
ATOM     18  N   LIG    1        3.446  17.813  -4.661  0.00  0.00    -0.323 N 
ATOM     19  H   LIG    1        3.548  18.646  -5.220  0.00  0.00    +0.145 HD
ATOM     20  H   LIG    1        3.514  17.858  -3.653  0.00  0.00    +0.145 HD
ENDBRANCH  12  16
ENDBRANCH   4   7
BRANCH   1  21
ATOM     21  C   LIG    1        3.415   6.399   0.158  0.00  0.00    +0.084 C 
BRANCH  21  22
ATOM     22  C   LIG    1        4.051   6.040   1.509  0.00  0.00    +0.016 C 
BRANCH  22  23
ATOM     23  C   LIG    1        3.752   4.614   1.983  0.00  0.00    +0.006 C 
BRANCH  23  24
ATOM     24  C   LIG    1        4.273   3.519   1.048  0.00  0.00    +0.037 C 
BRANCH  24  33
ATOM     25  C   LIG    1        6.462   0.559   3.982  0.00  0.00    +0.052 C 
ATOM     26  C   LIG    1        6.002   1.521   3.069  0.00  0.00    +0.029 C 
ATOM     27  C   LIG    1        4.744   1.353   2.456  0.00  0.00    +0.004 C 
ATOM     28  C   LIG    1        4.014   0.198   2.744  0.00  0.00    +0.047 C 
ATOM     29  N   LIG    1        2.859   0.255   2.000  0.00  0.00    -0.360 NA
ATOM     30  H   LIG    1        2.142  -0.457   1.998  0.00  0.00    +0.165 HD
ATOM     31  C   LIG    1        2.812   1.423   1.289  0.00  0.00    +0.087 C 
ATOM     32  C   LIG    1        4.456  -0.777   3.645  0.00  0.00    +0.027 C 
ATOM     33  C   LIG    1        3.954   2.149   1.565  0.00  0.00    -0.022 C 
ATOM     34  C   LIG    1        5.691  -0.571   4.270  0.00  0.00    +0.021 C 
BRANCH  25  36
ATOM     35  N   LIG    1        8.742   0.924   5.168  0.00  0.00    -0.191 NA
ATOM     36  C   LIG    1        7.721   0.754   4.634  0.00  0.00    +0.099 C 
ENDBRANCH  25  36
ENDBRANCH  24  33
ENDBRANCH  23  24
ENDBRANCH  22  23
ENDBRANCH  21  22
ENDBRANCH   1  21
TORSDOF 8
