REMARK  Name = *****
REMARK                            x       y       z     vdW  Elec       q    Type
REMARK                         _______ _______ _______ _____ _____    ______ ____
ROOT
ATOM      1  C   LIG    1        1.840   0.654  -2.507  0.00  0.00    +0.283 C 
ATOM      2  C   LIG    1        0.295   0.409  -2.668  0.00  0.00    +0.208 C 
ATOM      3  C   LIG    1       -0.393   0.357  -1.248  0.00  0.00    +0.179 C 
ATOM      4  C   LIG    1        0.512   0.893  -0.117  0.00  0.00    +0.177 C 
ATOM      5  C   LIG    1        1.141   2.140  -0.703  0.00  0.00    +0.178 C 
ATOM      6  O   LIG    1        2.139   1.784  -1.658  0.00  0.00    -0.341 OA
ENDROOT
BRANCH   3   7
ATOM      7  O   LIG    1       -0.814  -0.956  -0.853  0.00  0.00    -0.386 OA
ATOM      8  H   LIG    1       -1.353  -1.325  -1.572  0.00  0.00    +0.210 HD
ENDBRANCH   3   7
BRANCH   4   9
ATOM      9  O   LIG    1       -0.280   1.171   1.040  0.00  0.00    -0.387 OA
ATOM     10  H   LIG    1       -0.840   0.380   1.167  0.00  0.00    +0.210 HD
ENDBRANCH   4   9
BRANCH   1  11
ATOM     11  O   LIG    1        2.500  -0.541  -2.052  0.00  0.00    -0.338 OA
BRANCH  11  14
ATOM     12  C   LIG    1        4.143  -1.465  -4.633  0.00  0.00    +0.010 C 
ATOM     13  C   LIG    1        4.412  -0.568  -3.673  0.00  0.00    -0.045 C 
ATOM     14  C   LIG    1        3.923  -0.586  -2.222  0.00  0.00    +0.094 C 
ATOM     15  C   LIG    1        4.489  -1.862  -1.554  0.00  0.00    +0.040 C 
ATOM     16  C   LIG    1        5.994  -2.055  -1.859  0.00  0.00    +0.007 C 
ATOM     17  C   LIG    1        6.842  -0.734  -1.839  0.00  0.00    +0.002 C 
ATOM     18  C   LIG    1        6.037   0.502  -2.311  0.00  0.00    -0.019 C 
ATOM     19  C   LIG    1        6.862   1.743  -2.024  0.00  0.00    +0.008 C 
ATOM     20  C   LIG    1        8.028   1.806  -2.973  0.00  0.00    +0.006 C 
ATOM     21  C   LIG    1        8.943   0.551  -3.017  0.00  0.00    +0.012 C 
ATOM     22  C   LIG    1       10.423   0.846  -2.503  0.00  0.00    +0.068 C 
ATOM     23  C   LIG    1       10.881   2.299  -2.827  0.00  0.00    +0.023 C 
ATOM     24  C   LIG    1       10.507   0.655  -0.976  0.00  0.00    +0.018 C 
ATOM     25  C   LIG    1        9.762  -0.544  -0.404  0.00  0.00    +0.002 C 
ATOM     26  C   LIG    1        9.228  -1.512  -1.446  0.00  0.00    +0.007 C 
ATOM     27  C   LIG    1        8.297  -0.841  -2.498  0.00  0.00    -0.025 C 
ATOM     28  C   LIG    1        8.249  -1.841  -3.695  0.00  0.00    +0.012 C 
ATOM     29  C   LIG    1        4.700   0.572  -1.576  0.00  0.00    +0.047 C 
ATOM     30  C   LIG    1        5.540   0.424  -3.771  0.00  0.00    +0.040 C 
BRANCH  22  31
ATOM     31  C   LIG    1       11.442  -0.059  -3.261  0.00  0.00    +0.311 C 
ATOM     32  O   LIG    1       11.178  -0.798  -4.171  0.00  0.00    -0.250 OA
BRANCH  31  33
ATOM     33  O   LIG    1       12.732   0.079  -2.858  0.00  0.00    -0.480 OA
ATOM     34  H   LIG    1       12.904   0.747  -2.173  0.00  0.00    +0.295 HD
ENDBRANCH  31  33
ENDBRANCH  22  31
ENDBRANCH  11  14
ENDBRANCH   1  11
BRANCH   2  35
ATOM     35  O   LIG    1       -0.382   1.446  -3.454  0.00  0.00    -0.338 OA
BRANCH  35  36
ATOM     36  C   LIG    1        0.053   1.612  -4.826  0.00  0.00    +0.282 C 
ATOM     37  C   LIG    1       -0.911   2.544  -5.625  0.00  0.00    +0.201 C 
ATOM     38  C   LIG    1       -0.898   3.974  -5.036  0.00  0.00    +0.179 C 
ATOM     39  C   LIG    1        0.300   4.180  -4.083  0.00  0.00    +0.177 C 
ATOM     40  C   LIG    1        1.507   3.571  -4.806  0.00  0.00    +0.178 C 
ATOM     41  O   LIG    1        1.387   2.139  -4.895  0.00  0.00    -0.341 OA
BRANCH  37  42
ATOM     42  O   LIG    1       -0.481   2.586  -7.003  0.00  0.00    -0.384 OA
ATOM     43  H   LIG    1       -1.205   2.973  -7.528  0.00  0.00    +0.210 HD
ENDBRANCH  37  42
BRANCH  38  44
ATOM     44  O   LIG    1       -2.145   4.214  -4.372  0.00  0.00    -0.386 OA
ATOM     45  H   LIG    1       -1.962   4.769  -3.594  0.00  0.00    +0.210 HD
ENDBRANCH  38  44
BRANCH  39  46
ATOM     46  O   LIG    1        0.446   5.563  -3.772  0.00  0.00    -0.387 OA
ATOM     47  H   LIG    1        0.518   5.635  -2.798  0.00  0.00    +0.210 HD
ENDBRANCH  39  46
BRANCH  40  48
ATOM     48  C   LIG    1        2.866   3.937  -4.197  0.00  0.00    +0.190 C 
BRANCH  48  49
ATOM     49  O   LIG    1        3.955   3.414  -4.964  0.00  0.00    -0.392 OA
ATOM     50  H   LIG    1        3.639   3.250  -5.870  0.00  0.00    +0.209 HD
ENDBRANCH  48  49
ENDBRANCH  40  48
ENDBRANCH  35  36
ENDBRANCH   2  35
BRANCH   5  51
ATOM     51  C   LIG    1        1.663   3.186   0.283  0.00  0.00    +0.190 C 
BRANCH  51  52
ATOM     52  O   LIG    1        1.998   4.373  -0.459  0.00  0.00    -0.392 OA
ATOM     53  H   LIG    1        2.686   4.094  -1.091  0.00  0.00    +0.209 HD
ENDBRANCH  51  52
ENDBRANCH   5  51
TORSDOF 15
