REMARK  Name = *****
REMARK                            x       y       z     vdW  Elec       q    Type
REMARK                         _______ _______ _______ _____ _____    ______ ____
ROOT
ATOM      1  C   LIG    1        7.178   8.185  10.500  0.00  0.00    +0.018 A 
ATOM      2  C   LIG    1        7.840   7.200   9.787  0.00  0.00    +0.025 A 
ATOM      3  C   LIG    1        8.541   6.133  10.377  0.00  0.00    +0.041 A 
ATOM      4  C   LIG    1        8.927   6.283  11.705  0.00  0.00    +0.076 A 
ATOM      5  N   LIG    1        9.790   5.440  12.282  0.00  0.00    -0.235 NA
ATOM      6  C   LIG    1       10.232   4.421  11.530  0.00  0.00    +0.224 A 
ATOM      7  N   LIG    1        9.857   4.137  10.268  0.00  0.00    -0.220 NA
ATOM      8  C   LIG    1        8.429   7.387  12.395  0.00  0.00    +0.029 A 
ATOM      9  C   LIG    1        8.977   4.987   9.695  0.00  0.00    +0.134 A 
ATOM     10  C   LIG    1        7.505   8.284  11.836  0.00  0.00    +0.013 A 
ENDROOT
BRANCH   1  13
ATOM     11  C   LIG    1        4.900  10.801   9.754  0.00  0.00    +0.119 A 
ATOM     12  O   LIG    1        5.731  10.082  10.566  0.00  0.00    -0.458 OA
ATOM     13  C   LIG    1        6.261   9.086   9.824  0.00  0.00    +0.135 A 
ATOM     14  C   LIG    1        5.807   9.225   8.533  0.00  0.00    +0.050 A 
ATOM     15  C   LIG    1        4.797  10.208   8.523  0.00  0.00    +0.046 A 
BRANCH  11  16
ATOM     16  C   LIG    1        4.327  12.030  10.332  0.00  0.00    +0.155 C 
BRANCH  16  17
ATOM     17  N   LIG    1        4.272  11.945  11.785  0.00  0.00    -0.308 NA
ATOM     18  H   LIG    1        4.003  12.858  12.160  0.00  0.00    +0.122 HD
BRANCH  17  19
ATOM     19  C   LIG    1        3.367  10.890  12.245  0.00  0.00    +0.104 C 
BRANCH  19  20
ATOM     20  C   LIG    1        3.336  10.807  13.760  0.00  0.00    +0.180 C 
BRANCH  20  22
ATOM     21  C   LIG    1        2.753  11.975  16.212  0.00  0.00    +0.194 C 
ATOM     22  S   LIG    1        2.742  12.325  14.477  0.00  0.00    -0.033 S 
ATOM     23  O   LIG    1        3.660  13.375  14.226  0.00  0.00    -0.175 OA
ATOM     24  O   LIG    1        1.318  12.462  14.078  0.00  0.00    -0.175 OA
ENDBRANCH  20  22
ENDBRANCH  19  20
ENDBRANCH  17  19
ENDBRANCH  16  17
ENDBRANCH  11  16
ENDBRANCH   1  13
BRANCH   9  25
ATOM     25  N   LIG    1        8.550   4.649   8.387  0.00  0.00    -0.299 N 
ATOM     26  H   LIG    1        9.254   4.038   7.980  0.00  0.00    +0.154 HD
BRANCH  25  27
ATOM     27  C   LIG    1        7.515   5.055   7.516  0.00  0.00    +0.034 A 
ATOM     28  C   LIG    1        6.351   5.756   7.877  0.00  0.00    +0.047 A 
ATOM     29  C   LIG    1        5.510   6.353   6.930  0.00  0.00    +0.084 A 
ATOM     30 CL   LIG    1        3.998   7.073   7.403  0.00  0.00    -0.080 Cl
ATOM     31  C   LIG    1        5.799   6.246   5.587  0.00  0.00    +0.139 A 
ATOM     32  C   LIG    1        6.758   5.315   5.213  0.00  0.00    +0.049 A 
ATOM     33  C   LIG    1        7.609   4.732   6.165  0.00  0.00    +0.027 A 
BRANCH  31  34
ATOM     34  O   LIG    1        5.039   7.011   4.763  0.00  0.00    -0.486 OA
BRANCH  34  35
ATOM     35  C   LIG    1        5.046   6.671   3.394  0.00  0.00    +0.264 C 
BRANCH  35  36
ATOM     36  C   LIG    1        4.067   7.547   2.654  0.00  0.00    -0.008 A 
ATOM     37  C   LIG    1        3.366   8.592   3.279  0.00  0.00    +0.045 A 
ATOM     38  C   LIG    1        2.545   9.426   2.531  0.00  0.00    +0.124 A 
ATOM     39  F   LIG    1        1.896  10.428   3.138  0.00  0.00    -0.205 F 
ATOM     40  C   LIG    1        2.403   9.245   1.163  0.00  0.00    +0.038 A 
ATOM     41  C   LIG    1        3.070   8.193   0.536  0.00  0.00    +0.003 A 
ATOM     42  C   LIG    1        3.887   7.341   1.280  0.00  0.00    +0.007 A 
ENDBRANCH  35  36
ENDBRANCH  34  35
ENDBRANCH  31  34
ENDBRANCH  25  27
ENDBRANCH   9  25
TORSDOF 11
