REMARK  Name = *****
REMARK                            x       y       z     vdW  Elec       q    Type
REMARK                         _______ _______ _______ _____ _____    ______ ____
ROOT
ATOM      1  C   LIG    1        4.860   1.279   0.685  0.00  0.00    +0.042 A 
ATOM      2  N   LIG    1        5.438   1.715  -0.458  0.00  0.00    -0.260 NA
ATOM      3  C   LIG    1        6.787   1.784  -0.494  0.00  0.00    +0.112 A 
ATOM      4  C   LIG    1        7.603   1.444   0.567  0.00  0.00    +0.030 A 
ATOM      5  C   LIG    1        7.001   0.996   1.743  0.00  0.00    +0.006 A 
ATOM      6  C   LIG    1        5.605   0.899   1.797  0.00  0.00    +0.033 A 
ENDROOT
BRANCH   5   7
ATOM      7  C   LIG    1        7.818   0.620   2.930  0.00  0.00    +0.077 C 
ATOM      8  S   LIG    1        9.341  -0.069   2.881  0.00  0.00    -0.035 S 
BRANCH   7   9
ATOM      9  N   LIG    1        7.270   0.874   4.162  0.00  0.00    -0.352 N 
ATOM     10  H   LIG    1        7.821   0.664   4.987  0.00  0.00    +0.143 HD
ATOM     11  H   LIG    1        6.412   1.394   4.301  0.00  0.00    +0.143 HD
ENDBRANCH   7   9
ENDBRANCH   5   7
BRANCH   1  12
ATOM     12  C   LIG    1        3.353   1.221   0.711  0.00  0.00    +0.055 C 
BRANCH  12  14
ATOM     13  C   LIG    1        1.290  -0.142   0.230  0.00  0.00    +0.004 C 
ATOM     14  C   LIG    1        2.811  -0.106   0.179  0.00  0.00    +0.003 C 
ENDBRANCH  12  14
ENDBRANCH   1  12
TORSDOF 4
