REMARK  Name = *****
REMARK                            x       y       z     vdW  Elec       q    Type
REMARK                         _______ _______ _______ _____ _____    ______ ____
ROOT
ATOM      1  O   LIG    1        5.417  -1.379   1.409  0.00  0.00    -0.270 OA
ATOM      2  C   LIG    1        5.364  -2.552   1.723  0.00  0.00    +0.255 C 
ATOM      3  N   LIG    1        4.421  -3.490   1.397  0.00  0.00    -0.222 N 
ATOM      4  C   LIG    1        4.670  -4.684   2.014  0.00  0.00    +0.255 C 
ATOM      5  O   LIG    1        4.031  -5.717   1.962  0.00  0.00    -0.270 OA
ATOM      6  C   LIG    1        5.903  -4.516   2.778  0.00  0.00    +0.049 A 
ATOM      7  C   LIG    1        6.599  -5.412   3.565  0.00  0.00    +0.014 A 
ATOM      8  C   LIG    1        7.766  -4.947   4.181  0.00  0.00    +0.001 A 
ATOM      9  C   LIG    1        8.201  -3.617   3.998  0.00  0.00    +0.001 A 
ATOM     10  C   LIG    1        7.476  -2.730   3.195  0.00  0.00    +0.014 A 
ATOM     11  C   LIG    1        6.330  -3.214   2.596  0.00  0.00    +0.049 A 
ENDROOT
BRANCH   3  12
ATOM     12  C   LIG    1        3.278  -3.206   0.540  0.00  0.00    +0.171 C 
ATOM     13  C   LIG    1        3.260  -4.189  -0.628  0.00  0.00    +0.240 C 
ATOM     14  O   LIG    1        4.210  -4.319  -1.401  0.00  0.00    -0.273 OA
ATOM     15  N   LIG    1        2.151  -4.990  -0.748  0.00  0.00    -0.255 N 
ATOM     16  H   LIG    1        2.163  -5.639  -1.523  0.00  0.00    +0.158 HD
ATOM     17  C   LIG    1        1.188  -5.237   0.196  0.00  0.00    +0.219 C 
ATOM     18  O   LIG    1        0.353  -6.122   0.023  0.00  0.00    -0.275 OA
ATOM     19  C   LIG    1        1.244  -4.425   1.466  0.00  0.00    +0.098 C 
ATOM     20  C   LIG    1        1.939  -3.091   1.264  0.00  0.00    +0.042 C 
ENDBRANCH   3  12
TORSDOF 1
