REMARK  Name = *****
REMARK                            x       y       z     vdW  Elec       q    Type
REMARK                         _______ _______ _______ _____ _____    ______ ____
ROOT
ATOM      1  C   LIG    1        2.258  -1.467  -4.702  0.00  0.00    +0.003 C 
ENDROOT
BRANCH   1   2
ATOM      2  C   LIG    1        3.260  -1.910  -5.761  0.00  0.00    +0.003 C 
BRANCH   2   3
ATOM      3  C   LIG    1        2.582  -2.557  -6.965  0.00  0.00    +0.041 C 
BRANCH   3   4
ATOM      4  C   LIG    1        3.639  -2.980  -7.979  0.00  0.00    +0.243 C 
BRANCH   4   5
ATOM      5  N   LIG    1        2.962  -3.548  -9.137  0.00  0.00    -0.110 NA
ATOM      6  C   LIG    1        3.561  -4.474  -9.812  0.00  0.00    +0.425 C 
BRANCH   6   7
ATOM      7  N   LIG    1        4.806  -4.978  -9.587  0.00  0.00    -0.286 N 
ATOM      8  H   LIG    1        5.200  -5.402 -10.410  0.00  0.00    +0.255 HD
ATOM      9  H   LIG    1        5.449  -4.383  -9.076  0.00  0.00    +0.255 HD
ENDBRANCH   6   7
BRANCH   6  10
ATOM     10  N   LIG    1        2.899  -5.034 -10.847  0.00  0.00    -0.003 NA
ATOM     11  C   LIG    1        1.978  -4.418 -11.530  0.00  0.00    +0.394 C 
BRANCH  11  12
ATOM     12  N   LIG    1        1.468  -5.126 -12.569  0.00  0.00    -0.288 N 
ATOM     13  H   LIG    1        0.526  -4.916 -12.858  0.00  0.00    +0.255 HD
ATOM     14  H   LIG    1        1.655  -6.118 -12.475  0.00  0.00    +0.255 HD
ENDBRANCH  11  12
BRANCH  11  15
ATOM     15  N   LIG    1        1.528  -3.121 -11.410  0.00  0.00    -0.243 N 
ATOM     16  H   LIG    1        1.962  -2.642 -10.618  0.00  0.00    +0.265 HD
BRANCH  15  17
ATOM     17  C   LIG    1        0.231  -2.622 -11.680  0.00  0.00    +0.100 A 
ATOM     18  C   LIG    1        0.061  -1.265 -12.004  0.00  0.00    +0.043 A 
ATOM     19  C   LIG    1       -1.208  -0.752 -12.317  0.00  0.00    +0.023 A 
ATOM     20  C   LIG    1       -2.317  -1.593 -12.313  0.00  0.00    +0.041 A 
ATOM     21 CL   LIG    1       -3.875  -0.977 -12.703  0.00  0.00    -0.084 Cl
ATOM     22  C   LIG    1       -2.174  -2.934 -11.977  0.00  0.00    +0.023 A 
ATOM     23  C   LIG    1       -0.913  -3.432 -11.637  0.00  0.00    +0.043 A 
ENDBRANCH  15  17
ENDBRANCH  11  15
ENDBRANCH   6  10
ENDBRANCH   4   5
ENDBRANCH   3   4
ENDBRANCH   2   3
ENDBRANCH   1   2
BRANCH   1  24
ATOM     24  C   LIG    1        2.991  -0.843  -3.516  0.00  0.00    +0.041 C 
BRANCH  24  25
ATOM     25  C   LIG    1        2.026  -0.379  -2.434  0.00  0.00    +0.243 C 
BRANCH  25  27
ATOM     26  C   LIG    1        2.689  -0.359  -0.161  0.00  0.00    +0.425 C 
ATOM     27  N   LIG    1        2.820   0.156  -1.333  0.00  0.00    -0.110 NA
BRANCH  26  28
ATOM     28  N   LIG    1        1.925  -1.423   0.187  0.00  0.00    -0.286 N 
ATOM     29  H   LIG    1        2.182  -1.745   1.114  0.00  0.00    +0.255 HD
ATOM     30  H   LIG    1        1.929  -2.173  -0.488  0.00  0.00    +0.255 HD
ENDBRANCH  26  28
BRANCH  26  31
ATOM     31  N   LIG    1        3.345   0.195   0.891  0.00  0.00    -0.003 NA
ATOM     32  C   LIG    1        4.470   0.828   0.777  0.00  0.00    +0.394 C 
BRANCH  32  33
ATOM     33  N   LIG    1        4.947   1.356   1.936  0.00  0.00    -0.288 N 
ATOM     34  H   LIG    1        5.264   2.311   1.810  0.00  0.00    +0.255 HD
ATOM     35  H   LIG    1        4.246   1.286   2.664  0.00  0.00    +0.255 HD
ENDBRANCH  32  33
BRANCH  32  36
ATOM     36  N   LIG    1        5.236   1.094  -0.329  0.00  0.00    -0.243 N 
ATOM     37  H   LIG    1        4.843   0.693  -1.182  0.00  0.00    +0.265 HD
BRANCH  36  38
ATOM     38  C   LIG    1        6.649   1.176  -0.351  0.00  0.00    +0.100 A 
ATOM     39  C   LIG    1        7.443   0.445   0.544  0.00  0.00    +0.043 A 
ATOM     40  C   LIG    1        8.837   0.540   0.526  0.00  0.00    +0.023 A 
ATOM     41  C   LIG    1        9.457   1.367  -0.402  0.00  0.00    +0.041 A 
ATOM     42 CL   LIG    1       11.174   1.483  -0.425  0.00  0.00    -0.084 Cl
ATOM     43  C   LIG    1        8.693   2.097  -1.311  0.00  0.00    +0.023 A 
ATOM     44  C   LIG    1        7.294   1.994  -1.291  0.00  0.00    +0.043 A 
ENDBRANCH  36  38
ENDBRANCH  32  36
ENDBRANCH  26  31
ENDBRANCH  25  27
ENDBRANCH  24  25
ENDBRANCH   1  24
TORSDOF 17
