REMARK  Name = *****
REMARK                            x       y       z     vdW  Elec       q    Type
REMARK                         _______ _______ _______ _____ _____    ______ ____
ROOT
ATOM      1  C   LIG    1        2.939   0.659   1.132  0.00  0.00    +0.033 C 
ATOM      2  C   LIG    1        2.604   0.212  -0.295  0.00  0.00    +0.106 C 
ENDROOT
BRANCH   2   3
ATOM      3  N   LIG    1        3.286  -1.078  -0.529  0.00  0.00    -0.288 NA
ATOM      4  C   LIG    1        4.173  -1.070  -1.465  0.00  0.00    +0.132 C 
BRANCH   4   5
ATOM      5  C   LIG    1        4.964  -2.285  -1.925  0.00  0.00    +0.225 C 
ATOM      6 CL   LIG    1        6.684  -1.944  -1.609  0.00  0.00    -0.077 Cl
ATOM      7 CL   LIG    1        4.702  -2.451  -3.679  0.00  0.00    -0.077 Cl
ATOM      8 CL   LIG    1        4.466  -3.767  -1.091  0.00  0.00    -0.077 Cl
ENDBRANCH   4   5
ENDBRANCH   2   3
BRANCH   2   9
ATOM      9  C   LIG    1        1.080   0.030  -0.485  0.00  0.00    +0.061 C 
BRANCH   9  10
ATOM     10  C   LIG    1        0.661  -0.299  -1.907  0.00  0.00    -0.045 A 
ATOM     11  C   LIG    1        0.352   0.713  -2.827  0.00  0.00    +0.003 A 
ATOM     12  C   LIG    1       -0.041   0.393  -4.132  0.00  0.00    +0.000 A 
ATOM     13  C   LIG    1       -0.141  -0.940  -4.528  0.00  0.00    +0.000 A 
ATOM     14  C   LIG    1        0.156  -1.954  -3.621  0.00  0.00    +0.000 A 
ATOM     15  C   LIG    1        0.559  -1.636  -2.321  0.00  0.00    +0.003 A 
ENDBRANCH   9  10
ENDBRANCH   2   9
TORSDOF 4
