REMARK  Name = *****
REMARK                            x       y       z     vdW  Elec       q    Type
REMARK                         _______ _______ _______ _____ _____    ______ ____
ROOT
ATOM      1  C   LIG    1        6.039   8.924  -7.875  0.00  0.00    +0.120 A 
ATOM      2  C   LIG    1        5.356  10.017  -7.340  0.00  0.00    +0.046 A 
ATOM      3  C   LIG    1        6.055  10.997  -6.628  0.00  0.00    +0.007 A 
ATOM      4  C   LIG    1        7.451  10.933  -6.502  0.00  0.00    -0.046 A 
ATOM      5  C   LIG    1        8.130   9.851  -7.066  0.00  0.00    +0.007 A 
ATOM      6  C   LIG    1        7.430   8.869  -7.757  0.00  0.00    +0.046 A 
ENDROOT
BRANCH   1   7
ATOM      7  O   LIG    1        5.297   7.931  -8.469  0.00  0.00    -0.492 OA
BRANCH   7   8
ATOM      8  C   LIG    1        5.963   6.653  -8.483  0.00  0.00    +0.235 C 
BRANCH   8   9
ATOM      9  C   LIG    1        4.980   5.497  -8.582  0.00  0.00    +0.096 C 
BRANCH   9  13
ATOM     10  C   LIG    1        2.850   5.152 -12.237  0.00  0.00    -0.029 A 
ATOM     11  C   LIG    1        4.237   5.215 -12.169  0.00  0.00    +0.114 A 
ATOM     12  N   LIG    1        4.932   5.354 -11.018  0.00  0.00    -0.260 NA
ATOM     13  C   LIG    1        4.217   5.461  -9.873  0.00  0.00    +0.044 A 
ATOM     14  C   LIG    1        2.828   5.423  -9.846  0.00  0.00    +0.024 A 
ATOM     15  C   LIG    1        2.140   5.261 -11.041  0.00  0.00    +0.007 A 
BRANCH  10  17
ATOM     16  C   LIG    1        1.960   3.451 -13.845  0.00  0.00    +0.009 C 
ATOM     17  C   LIG    1        2.136   4.931 -13.539  0.00  0.00    +0.033 C 
ENDBRANCH  10  17
ENDBRANCH   9  13
ENDBRANCH   8   9
ENDBRANCH   7   8
ENDBRANCH   1   7
BRANCH   4  18
ATOM     18  C   LIG    1        8.211  12.076  -5.864  0.00  0.00    +0.059 C 
BRANCH  18  19
ATOM     19  C   LIG    1        8.569  13.218  -6.830  0.00  0.00    +0.146 C 
ATOM     20  C   LIG    1        7.330  13.728  -7.537  0.00  0.00    +0.234 C 
ATOM     21  O   LIG    1        6.416  14.331  -6.986  0.00  0.00    -0.274 OA
ATOM     22  N   LIG    1        7.313  13.375  -8.851  0.00  0.00    -0.246 N 
ATOM     23  H   LIG    1        6.509  13.548  -9.429  0.00  0.00    +0.158 HD
ATOM     24  C   LIG    1        8.413  12.776  -9.379  0.00  0.00    +0.279 C 
ATOM     25  O   LIG    1        8.529  12.384 -10.516  0.00  0.00    -0.263 OA
ATOM     26  S   LIG    1        9.688  12.704  -8.182  0.00  0.00    -0.054 S 
ENDBRANCH  18  19
ENDBRANCH   4  18
TORSDOF 7
