REMARK  Name = *****
REMARK                            x       y       z     vdW  Elec       q    Type
REMARK                         _______ _______ _______ _____ _____    ______ ____
ROOT
ATOM      1  C   LIG    1        0.823  -0.086   0.120  0.00  0.00    +0.037 C 
ATOM      2  C   LIG    1        2.357   0.068   0.187  0.00  0.00    +0.113 C 
ATOM      3  S   LIG    1        2.808   1.834   0.138  0.00  0.00    -0.004 S 
ATOM      4  O   LIG    1        4.062   2.009   0.845  0.00  0.00    -0.172 OA
ATOM      5  O   LIG    1        1.653   2.636   0.489  0.00  0.00    -0.172 OA
ATOM      6  C   LIG    1        3.141   1.993  -1.624  0.00  0.00    +0.228 C 
ATOM      7  N   LIG    1        3.030   0.585  -2.102  0.00  0.00    -0.263 N 
ATOM      8  C   LIG    1        1.892   0.839  -2.824  0.00  0.00    +0.221 C 
ATOM      9  O   LIG    1        1.069   0.074  -3.262  0.00  0.00    -0.275 OA
ATOM     10  C   LIG    1        2.001   2.349  -2.583  0.00  0.00    +0.142 C 
ATOM     11  C   LIG    1        3.024  -0.491  -1.090  0.00  0.00    +0.213 C 
ATOM     12  C   LIG    1        2.813  -0.557   1.512  0.00  0.00    +0.037 C 
ENDROOT
BRANCH  11  13
ATOM     13  C   LIG    1        4.463  -1.007  -0.927  0.00  0.00    +0.328 C 
ATOM     14  O   LIG    1        4.811  -1.836  -0.101  0.00  0.00    -0.249 OA
BRANCH  13  15
ATOM     15  O   LIG    1        5.323  -0.528  -1.859  0.00  0.00    -0.479 OA
ATOM     16  H   LIG    1        4.858   0.014  -2.529  0.00  0.00    +0.295 HD
ENDBRANCH  13  15
ENDBRANCH  11  13
TORSDOF 2
