REMARK  Name = *****
REMARK                            x       y       z     vdW  Elec       q    Type
REMARK                         _______ _______ _______ _____ _____    ______ ____
ROOT
ATOM      1  C   LIG    1        7.585  -2.498   4.157  0.00  0.00    +0.067 C 
ATOM      2  C   LIG    1        8.636  -2.520   5.280  0.00  0.00    +0.041 C 
ENDROOT
BRANCH   1   3
ATOM      3  C   LIG    1        8.025  -3.154   2.797  0.00  0.00    +0.024 C 
ATOM      4  C   LIG    1        9.196  -2.442   2.082  0.00  0.00    +0.011 C 
ATOM      5  C   LIG    1       10.579  -2.727   2.678  0.00  0.00    +0.030 C 
ATOM      6  C   LIG    1       10.721  -4.076   3.338  0.00  0.00    -0.076 C 
ATOM      7  C   LIG    1       12.031  -4.345   4.015  0.00  0.00    +0.038 C 
ATOM      8  C   LIG    1        9.707  -4.969   3.370  0.00  0.00    -0.027 C 
ATOM      9  C   LIG    1        8.341  -4.662   2.835  0.00  0.00    +0.033 C 
ENDBRANCH   1   3
BRANCH   1  10
ATOM     10  O   LIG    1        7.324  -1.111   3.865  0.00  0.00    -0.389 OA
ATOM     11  H   LIG    1        7.322  -0.617   4.703  0.00  0.00    +0.210 HD
ENDBRANCH   1  10
BRANCH   1  12
ATOM     12  C   LIG    1        6.273  -3.097   4.745  0.00  0.00    +0.039 C 
BRANCH  12  13
ATOM     13  C   LIG    1        5.040  -2.967   3.841  0.00  0.00    +0.030 C 
BRANCH  13  16
ATOM     14  C   LIG    1        1.496  -3.636   5.418  0.00  0.00    +0.038 C 
ATOM     15  C   LIG    1        2.654  -2.900   4.792  0.00  0.00    -0.080 C 
ATOM     16  C   LIG    1        3.804  -3.539   4.493  0.00  0.00    -0.028 C 
ATOM     17  C   LIG    1        2.380  -1.442   4.544  0.00  0.00    +0.038 C 
ENDBRANCH  13  16
ENDBRANCH  12  13
ENDBRANCH   1  12
TORSDOF 5
