REMARK  Name = *****
REMARK                            x       y       z     vdW  Elec       q    Type
REMARK                         _______ _______ _______ _____ _____    ______ ____
ROOT
ATOM      1  CA  LEU A  1        4.158  -0.683  -1.147  0.00  0.00    +0.161 C 
ENDROOT
BRANCH   1   2
ATOM      2  N   LEU A  1        2.818  -1.125  -1.577  0.00  0.00    -0.318 NA
ATOM      3  H1  LEU A  1        2.822  -1.627  -2.461  0.00  0.00    +0.119 HD
ATOM      4  H2  LEU A  1        2.281  -1.575  -0.842  0.00  0.00    +0.119 HD
ENDBRANCH   1   2
BRANCH   1   5
ATOM      5  C   LEU A  1        5.116  -1.873  -0.914  0.00  0.00    +0.322 C 
ATOM      6  O   LEU A  1        6.288  -1.758  -0.598  0.00  0.00    -0.249 OA
BRANCH   5   7
ATOM      7  OXT LEU A  1        4.538  -3.088  -1.084  0.00  0.00    -0.479 OA
ATOM      8  HXT LEU A  1        3.596  -2.990  -1.310  0.00  0.00    +0.295 HD
ENDBRANCH   5   7
ENDBRANCH   1   5
BRANCH   1   9
ATOM      9  CB  LEU A  1        4.070   0.151   0.143  0.00  0.00    +0.033 C 
BRANCH   9  11
ATOM     10  CD1 LEU A  1        3.227   2.136   1.435  0.00  0.00    +0.007 C 
ATOM     11  CG  LEU A  1        3.213   1.435   0.072  0.00  0.00    -0.015 C 
ATOM     12  CD2 LEU A  1        3.689   2.411  -1.005  0.00  0.00    +0.007 C 
ENDBRANCH   9  11
ENDBRANCH   1   9
TORSDOF 5
