REMARK  Name = *****
REMARK                            x       y       z     vdW  Elec       q    Type
REMARK                         _______ _______ _______ _____ _____    ______ ____
ROOT
ATOM      1  C   LIG    1        2.781   1.018  -1.356  0.00  0.00    -0.032 C 
ATOM      2  C   LIG    1        2.377   2.366  -1.339  0.00  0.00    +0.030 C 
ATOM      3  C   LIG    1        2.743   3.181  -2.422  0.00  0.00    +0.048 C 
ATOM      4  N   LIG    1        2.523   4.523  -2.640  0.00  0.00    -0.354 NA
ATOM      5  H   LIG    1        2.035   5.134  -2.001  0.00  0.00    +0.166 HD
ATOM      6  C   LIG    1        3.083   4.931  -3.830  0.00  0.00    +0.048 C 
ATOM      7  C   LIG    1        3.662   3.805  -4.414  0.00  0.00    +0.009 C 
ATOM      8  C   LIG    1        4.307   3.947  -5.662  0.00  0.00    +0.030 C 
ATOM      9  C   LIG    1        4.345   5.207  -6.268  0.00  0.00    +0.042 C 
ATOM     10 CL   LIG    1        5.130   5.388  -7.791  0.00  0.00    -0.084 Cl
ATOM     11  C   LIG    1        3.763   6.316  -5.660  0.00  0.00    +0.022 C 
ATOM     12  C   LIG    1        3.118   6.199  -4.425  0.00  0.00    +0.027 C 
ATOM     13  C   LIG    1        3.451   2.704  -3.523  0.00  0.00    +0.007 C 
ATOM     14  C   LIG    1        3.806   1.342  -3.551  0.00  0.00    +0.011 C 
ATOM     15  C   LIG    1        3.475   0.518  -2.468  0.00  0.00    +0.005 C 
ENDROOT
BRANCH   1  17
ATOM     16  C   LIG    1        1.018  -0.200  -0.026  0.00  0.00    +0.024 C 
ATOM     17  C   LIG    1        2.512   0.096  -0.169  0.00  0.00    +0.124 C 
BRANCH  17  18
ATOM     18  C   LIG    1        3.087   0.593   1.159  0.00  0.00    +0.312 C 
ATOM     19  O   LIG    1        2.584   0.357   2.253  0.00  0.00    -0.250 OA
BRANCH  18  20
ATOM     20  O   LIG    1        4.260   1.260   1.066  0.00  0.00    -0.480 OA
ATOM     21  H   LIG    1        4.578   1.390   0.150  0.00  0.00    +0.295 HD
ENDBRANCH  18  20
ENDBRANCH  17  18
ENDBRANCH   1  17
TORSDOF 3
