REMARK  Name = *****
REMARK                            x       y       z     vdW  Elec       q    Type
REMARK                         _______ _______ _______ _____ _____    ______ ____
ROOT
ATOM      1  C   LIG    1        1.990   0.055   1.165  0.00  0.00    +0.143 C 
ATOM      2  N   LIG    1        2.949  -0.128   0.091  0.00  0.00    -0.228 N 
ATOM      3  C   LIG    1        2.657  -1.089  -0.871  0.00  0.00    +0.242 C 
ATOM      4  O   LIG    1        1.594  -1.717  -0.860  0.00  0.00    -0.274 OA
ATOM      5  C   LIG    1        3.764  -1.386  -1.896  0.00  0.00    +0.142 C 
ATOM      6  C   LIG    1        3.091  -1.899  -3.184  0.00  0.00    +0.035 C 
ATOM      7  C   LIG    1        4.538  -0.107  -2.196  0.00  0.00    +0.239 C 
ATOM      8  O   LIG    1        5.010   0.176  -3.296  0.00  0.00    -0.274 OA
ATOM      9  N   LIG    1        4.761   0.710  -1.126  0.00  0.00    -0.239 N 
ATOM     10  H   LIG    1        5.333   1.524  -1.304  0.00  0.00    +0.159 HD
ATOM     11  C   LIG    1        3.935   0.827  -0.051  0.00  0.00    +0.315 C 
ATOM     12  O   LIG    1        4.046   1.810   0.679  0.00  0.00    -0.252 OA
ENDROOT
BRANCH   5  13
ATOM     13  C   LIG    1        4.774  -2.445  -1.372  0.00  0.00    -0.050 C 
ATOM     14  C   LIG    1        6.012  -2.685  -2.230  0.00  0.00    +0.032 C 
ATOM     15  C   LIG    1        6.770  -3.972  -1.895  0.00  0.00    +0.005 C 
ATOM     16  C   LIG    1        6.943  -4.122  -0.392  0.00  0.00    +0.004 C 
ATOM     17  C   LIG    1        5.586  -4.160   0.304  0.00  0.00    +0.027 C 
ATOM     18  C   LIG    1        4.607  -3.152  -0.233  0.00  0.00    -0.026 C 
ENDBRANCH   5  13
TORSDOF 1
