REMARK  Name = *****
REMARK                            x       y       z     vdW  Elec       q    Type
REMARK                         _______ _______ _______ _____ _____    ______ ____
ROOT
ATOM      1  C   LIG    1        6.596   3.579  -4.562  0.00  0.00    +0.077 A 
ATOM      2  C   LIG    1        6.840   3.591  -3.179  0.00  0.00    +0.144 A 
ATOM      3  C   LIG    1        7.093   2.384  -2.526  0.00  0.00    +0.076 A 
ATOM      4  C   LIG    1        7.349   1.216  -3.206  0.00  0.00    +0.080 A 
ATOM      5  N   LIG    1        7.681   0.165  -2.457  0.00  0.00    -0.235 NA
ATOM      6  C   LIG    1        7.968  -0.960  -3.105  0.00  0.00    +0.224 A 
ATOM      7  N   LIG    1        7.958  -1.119  -4.429  0.00  0.00    -0.220 NA
ATOM      8  C   LIG    1        7.622  -0.040  -5.167  0.00  0.00    +0.134 A 
ATOM      9  C   LIG    1        7.272   1.203  -4.600  0.00  0.00    +0.042 A 
ATOM     10  C   LIG    1        6.824   2.388  -5.266  0.00  0.00    +0.040 A 
ENDROOT
BRANCH   1  12
ATOM     11  C   LIG    1        5.575   4.914  -6.418  0.00  0.00    +0.241 C 
ATOM     12  N   LIG    1        6.144   4.766  -5.164  0.00  0.00    -0.279 N 
ATOM     13  H   LIG    1        6.168   5.588  -4.560  0.00  0.00    +0.155 HD
ATOM     14  O   LIG    1        5.328   4.050  -7.234  0.00  0.00    -0.271 OA
BRANCH  11  16
ATOM     15  C   LIG    1        5.831   6.965  -7.729  0.00  0.00    -0.007 C 
ATOM     16  C   LIG    1        5.253   6.345  -6.690  0.00  0.00    +0.064 C 
BRANCH  15  17
ATOM     17  C   LIG    1        5.655   8.429  -8.036  0.00  0.00    +0.111 C 
BRANCH  17  19
ATOM     18  C   LIG    1        5.889   8.238 -10.455  0.00  0.00    +0.105 C 
ATOM     19  N   LIG    1        5.083   8.744  -9.348  0.00  0.00    -0.305 NA
ATOM     20  C   LIG    1        3.693   8.310  -9.459  0.00  0.00    +0.105 C 
ENDBRANCH  17  19
ENDBRANCH  15  17
ENDBRANCH  11  16
ENDBRANCH   1  12
BRANCH   8  21
ATOM     21  N   LIG    1        7.585  -0.309  -6.544  0.00  0.00    -0.299 N 
ATOM     22  H   LIG    1        7.827  -1.299  -6.606  0.00  0.00    +0.154 HD
BRANCH  21  23
ATOM     23  C   LIG    1        8.217   0.386  -7.598  0.00  0.00    +0.034 A 
ATOM     24  C   LIG    1        9.454   1.032  -7.481  0.00  0.00    +0.046 A 
ATOM     25  C   LIG    1       10.018   1.665  -8.596  0.00  0.00    +0.078 A 
ATOM     26 CL   LIG    1       11.518   2.500  -8.435  0.00  0.00    -0.081 Cl
ATOM     27  C   LIG    1        9.369   1.624  -9.830  0.00  0.00    +0.142 A 
ATOM     28  F   LIG    1        9.884   2.244 -10.902  0.00  0.00    -0.204 F 
ATOM     29  C   LIG    1        8.174   0.933  -9.971  0.00  0.00    +0.041 A 
ATOM     30  C   LIG    1        7.614   0.302  -8.862  0.00  0.00    +0.026 A 
ENDBRANCH  21  23
ENDBRANCH   8  21
BRANCH   2  31
ATOM     31  O   LIG    1        6.779   4.790  -2.499  0.00  0.00    -0.484 OA
BRANCH  31  32
ATOM     32  C   LIG    1        7.685   4.890  -1.379  0.00  0.00    +0.201 C 
ATOM     33  C   LIG    1        7.155   5.868  -0.346  0.00  0.00    +0.204 C 
ATOM     34  O   LIG    1        7.742   7.146  -0.613  0.00  0.00    -0.376 OA
ATOM     35  C   LIG    1        8.799   6.980  -1.562  0.00  0.00    +0.163 C 
ATOM     36  C   LIG    1        9.004   5.499  -1.792  0.00  0.00    +0.075 C 
ENDBRANCH  31  32
ENDBRANCH   2  31
TORSDOF 8
