REMARK  Name = *****
REMARK                            x       y       z     vdW  Elec       q    Type
REMARK                         _______ _______ _______ _____ _____    ______ ____
ROOT
ATOM      1  C   LIG    1        5.439  -1.680  -0.029  0.00  0.00    +0.146 A 
ATOM      2  C   LIG    1        6.529  -2.538  -0.245  0.00  0.00    +0.101 A 
ATOM      3  C   LIG    1        7.816  -2.087   0.088  0.00  0.00    +0.019 A 
ATOM      4  C   LIG    1        8.020  -0.817   0.627  0.00  0.00    +0.013 A 
ATOM      5  C   LIG    1        6.936   0.041   0.859  0.00  0.00    +0.058 A 
ATOM      6  C   LIG    1        5.640  -0.403   0.531  0.00  0.00    +0.059 A 
ENDROOT
BRANCH   5   7
ATOM      7  C   LIG    1        7.206   1.425   1.406  0.00  0.00    +0.417 C 
ATOM      8  F   LIG    1        8.092   2.121   0.639  0.00  0.00    -0.166 F 
ATOM      9  F   LIG    1        7.744   1.391   2.656  0.00  0.00    -0.166 F 
ATOM     10  F   LIG    1        6.095   2.206   1.495  0.00  0.00    -0.166 F 
ENDBRANCH   5   7
BRANCH   2  11
ATOM     11  C   LIG    1        6.481  -3.847  -0.930  0.00  0.00    +0.340 C 
ATOM     12  O   LIG    1        7.297  -4.140  -1.800  0.00  0.00    -0.245 OA
BRANCH  11  13
ATOM     13  O   LIG    1        5.577  -4.724  -0.471  0.00  0.00    -0.477 OA
ATOM     14  H   LIG    1        5.072  -4.450   0.332  0.00  0.00    +0.295 HD
ENDBRANCH  11  13
ENDBRANCH   2  11
BRANCH   1  15
ATOM     15  O   LIG    1        4.152  -1.905  -0.572  0.00  0.00    -0.425 OA
BRANCH  15  17
ATOM     16  C   LIG    1        2.112  -3.083  -0.856  0.00  0.00    +0.136 C 
ATOM     17  C   LIG    1        3.364  -2.921  -0.043  0.00  0.00    +0.309 C 
ATOM     18  O   LIG    1        3.703  -3.656   0.878  0.00  0.00    -0.251 OA
ENDBRANCH  15  17
ENDBRANCH   1  15
TORSDOF 5
