REMARK  Name = *****
REMARK                            x       y       z     vdW  Elec       q    Type
REMARK                         _______ _______ _______ _____ _____    ______ ____
ROOT
ATOM      1  C   LIG    1        5.046   4.002   1.557  0.00  0.00    +0.162 C 
ENDROOT
BRANCH   1   2
ATOM      2  C   LIG    1        6.088   3.489   2.556  0.00  0.00    -0.007 A 
ATOM      3  C   LIG    1        6.561   4.307   3.627  0.00  0.00    +0.009 A 
ATOM      4  C   LIG    1        7.451   3.719   4.562  0.00  0.00    +0.071 A 
ATOM      5  C   LIG    1        7.944   4.480   5.609  0.00  0.00    +0.032 A 
ATOM      6  C   LIG    1        7.593   5.819   5.771  0.00  0.00    +0.048 A 
ATOM      7  C   LIG    1        6.707   6.414   4.884  0.00  0.00    +0.121 A 
ATOM      8  N   LIG    1        7.859   2.446   4.495  0.00  0.00    -0.255 NA
ATOM      9  C   LIG    1        7.419   1.703   3.468  0.00  0.00    +0.112 A 
ATOM     10  C   LIG    1        6.204   5.668   3.816  0.00  0.00    +0.056 A 
ATOM     11  C   LIG    1        6.576   2.177   2.484  0.00  0.00    +0.026 A 
BRANCH   7  12
ATOM     12  O   LIG    1        6.435   7.732   5.124  0.00  0.00    -0.495 OA
ATOM     13  C   LIG    1        5.148   8.172   4.704  0.00  0.00    +0.277 C 
ENDBRANCH   7  12
ENDBRANCH   1   2
BRANCH   1  17
ATOM     14  C   LIG    1        2.515   1.338  -0.952  0.00  0.00    +0.028 C 
ATOM     15  C   LIG    1        2.106   2.731  -0.395  0.00  0.00    -0.000 C 
ATOM     16  C   LIG    1        3.365   3.631  -0.394  0.00  0.00    +0.026 C 
ATOM     17  C   LIG    1        4.470   2.990   0.498  0.00  0.00    +0.090 C 
ATOM     18  N   LIG    1        3.983   1.693   1.051  0.00  0.00    -0.296 NA
ATOM     19  C   LIG    1        2.768   1.884   1.866  0.00  0.00    +0.085 C 
ATOM     20  C   LIG    1        1.675   2.616   1.079  0.00  0.00    +0.019 C 
ATOM     21  C   LIG    1        3.667   0.788  -0.076  0.00  0.00    +0.092 C 
BRANCH  14  23
ATOM     22  C   LIG    1        1.267  -0.589  -1.984  0.00  0.00    +0.004 C 
ATOM     23  C   LIG    1        1.377   0.342  -1.034  0.00  0.00    -0.029 C 
ENDBRANCH  14  23
ENDBRANCH   1  17
BRANCH   1  24
ATOM     24  O   LIG    1        5.609   5.102   0.825  0.00  0.00    -0.386 OA
ATOM     25  H   LIG    1        6.517   4.848   0.586  0.00  0.00    +0.210 HD
ENDBRANCH   1  24
TORSDOF 5
