REMARK  Name = *****
REMARK                            x       y       z     vdW  Elec       q    Type
REMARK                         _______ _______ _______ _____ _____    ______ ____
ROOT
ATOM      1  CG  ARG A  1        6.726   4.111   4.718  0.00  0.00    +0.039 C 
ENDROOT
BRANCH   1   2
ATOM      2  CD  ARG A  1        5.999   4.067   6.062  0.00  0.00    +0.196 C 
BRANCH   2   3
ATOM      3  NE  ARG A  1        6.414   5.196   6.866  0.00  0.00    -0.276 N 
ATOM      4  HE  ARG A  1        5.700   5.877   7.081  0.00  0.00    +0.258 HD
BRANCH   3   7
ATOM      5  NH1 ARG A  1        8.479   4.334   7.520  0.00  0.00    -0.130 NA
ATOM      6  HH1 ARG A  1        9.257   4.611   8.121  0.00  0.00    +0.306 HD
ATOM      7  CZ  ARG A  1        7.579   5.248   7.544  0.00  0.00    +0.376 C 
BRANCH   7   8
ATOM      8  NH2 ARG A  1        7.705   6.396   8.236  0.00  0.00    -0.289 N 
ATOM      9 HH21 ARG A  1        7.258   7.191   7.799  0.00  0.00    +0.255 HD
ATOM     10 HH22 ARG A  1        8.645   6.622   8.534  0.00  0.00    +0.255 HD
ENDBRANCH   7   8
ENDBRANCH   3   7
ENDBRANCH   2   3
ENDBRANCH   1   2
BRANCH   1  11
ATOM     11  CB  ARG A  1        6.340   2.973   3.769  0.00  0.00    +0.033 C 
BRANCH  11  12
ATOM     12  CA  ARG A  1        6.697   1.566   4.269  0.00  0.00    +0.161 C 
BRANCH  12  13
ATOM     13  N   ARG A  1        8.170   1.369   4.423  0.00  0.00    -0.318 NA
ATOM     14  H1  ARG A  1        8.439   1.733   5.345  0.00  0.00    +0.119 HD
ATOM     15  H2  ARG A  1        8.657   1.987   3.766  0.00  0.00    +0.119 HD
ENDBRANCH  12  13
BRANCH  12  16
ATOM     16  C   ARG A  1        6.176   0.498   3.282  0.00  0.00    +0.322 C 
ATOM     17  O   ARG A  1        5.034   0.399   2.888  0.00  0.00    -0.249 OA
BRANCH  16  18
ATOM     18  OXT ARG A  1        7.180  -0.349   2.916  0.00  0.00    -0.479 OA
ATOM     19  HXT ARG A  1        7.968  -0.047   3.432  0.00  0.00    +0.295 HD
ENDBRANCH  16  18
ENDBRANCH  12  16
ENDBRANCH  11  12
ENDBRANCH   1  11
TORSDOF 9
