REMARK  Name = *****
REMARK                            x       y       z     vdW  Elec       q    Type
REMARK                         _______ _______ _______ _____ _____    ______ ____
ROOT
ATOM      1  O   LIG    1        0.987   0.040  -0.049  0.00  0.00    -0.248 OA
ATOM      2  C   LIG    1        2.210  -0.035  -0.047  0.00  0.00    +0.338 C 
ENDROOT
BRANCH   2   3
ATOM      3  C   LIG    1        2.985  -1.071  -0.845  0.00  0.00    +0.279 C 
ATOM      4 CL   LIG    1        4.562  -1.392  -0.076  0.00  0.00    -0.092 Cl
ATOM      5 CL   LIG    1        3.233  -0.454  -2.488  0.00  0.00    -0.092 Cl
ENDBRANCH   2   3
BRANCH   2   6
ATOM      6  O   LIG    1        2.964   0.858   0.646  0.00  0.00    -0.479 OA
ATOM      7  H   LIG    1        3.927   0.688   0.566  0.00  0.00    +0.295 HD
ENDBRANCH   2   6
TORSDOF 2
