REMARK  Name = *****
REMARK                            x       y       z     vdW  Elec       q    Type
REMARK                         _______ _______ _______ _____ _____    ______ ____
ROOT
ATOM      1  N   LIG    1        6.657   2.084   1.924  0.00  0.00    -0.298 N 
ATOM      2  C   LIG    1        7.343   2.120   0.673  0.00  0.00    +0.048 A 
ATOM      3  C   LIG    1        8.724   1.857   0.574  0.00  0.00    +0.034 A 
ATOM      4  C   LIG    1        9.374   1.851  -0.676  0.00  0.00    +0.017 A 
ATOM      5  C   LIG    1        8.683   2.134  -1.848  0.00  0.00    +0.001 A 
ATOM      6  C   LIG    1        7.335   2.445  -1.774  0.00  0.00    +0.002 A 
ATOM      7  S   LIG    1        9.759   1.493   1.970  0.00  0.00    -0.086 S 
ATOM      8  C   LIG    1        8.665   1.768   3.342  0.00  0.00    +0.034 A 
ATOM      9  C   LIG    1        9.268   1.710   4.614  0.00  0.00    +0.017 A 
ATOM     10  C   LIG    1        8.519   1.859   5.775  0.00  0.00    +0.001 A 
ATOM     11  C   LIG    1        7.154   2.065   5.671  0.00  0.00    +0.002 A 
ATOM     12  C   LIG    1        6.551   2.130   4.409  0.00  0.00    +0.024 A 
ATOM     13  C   LIG    1        6.684   2.443  -0.535  0.00  0.00    +0.024 A 
ATOM     14  C   LIG    1        7.277   1.986   3.204  0.00  0.00    +0.048 A 
ENDROOT
BRANCH   1  15
ATOM     15  C   LIG    1        5.178   1.966   1.875  0.00  0.00    +0.112 C 
BRANCH  15  16
ATOM     16  C   LIG    1        4.493   3.334   1.998  0.00  0.00    +0.035 C 
BRANCH  16  17
ATOM     17  C   LIG    1        2.964   3.186   2.004  0.00  0.00    +0.085 C 
BRANCH  17  19
ATOM     18  C   LIG    1        0.793   4.234   2.041  0.00  0.00    +0.104 C 
ATOM     19  N   LIG    1        2.240   4.467   2.109  0.00  0.00    -0.308 NA
ATOM     20  C   LIG    1        2.554   5.193   3.342  0.00  0.00    +0.104 C 
ENDBRANCH  17  19
ENDBRANCH  16  17
ENDBRANCH  15  16
ENDBRANCH   1  15
TORSDOF 4
