REMARK  Name = *****
REMARK                            x       y       z     vdW  Elec       q    Type
REMARK                         _______ _______ _______ _____ _____    ______ ____
ROOT
ATOM      1  C   LIG    1        3.229  -4.462   1.406  0.00  0.00    +0.075 C 
ENDROOT
BRANCH   1   6
ATOM      2  C   LIG    1        2.708  -0.760   0.573  0.00  0.00    +0.165 A 
ATOM      3  C   LIG    1        3.475  -0.140   1.593  0.00  0.00    +0.203 A 
ATOM      4  C   LIG    1        4.170  -0.940   2.522  0.00  0.00    +0.165 A 
ATOM      5  C   LIG    1        4.070  -2.332   2.423  0.00  0.00    +0.053 A 
ATOM      6  C   LIG    1        3.285  -2.950   1.442  0.00  0.00    -0.036 A 
ATOM      7  C   LIG    1        2.606  -2.157   0.513  0.00  0.00    +0.053 A 
BRANCH   2   9
ATOM      8  C   LIG    1        1.805  -0.428  -1.617  0.00  0.00    +0.277 C 
ATOM      9  O   LIG    1        2.058   0.074  -0.308  0.00  0.00    -0.491 OA
ENDBRANCH   2   9
BRANCH   3  10
ATOM     10  O   LIG    1        3.395   1.235   1.618  0.00  0.00    -0.488 OA
ATOM     11  C   LIG    1        4.523   1.970   2.073  0.00  0.00    +0.277 C 
ENDBRANCH   3  10
BRANCH   4  12
ATOM     12  O   LIG    1        4.899  -0.341   3.515  0.00  0.00    -0.491 OA
ATOM     13  C   LIG    1        5.578  -1.180   4.445  0.00  0.00    +0.277 C 
ENDBRANCH   4  12
ENDBRANCH   1   6
BRANCH   1  14
ATOM     14  C   LIG    1        4.249  -5.123   0.519  0.00  0.00    +0.015 A 
ATOM     15  C   LIG    1        4.064  -6.387  -0.005  0.00  0.00    +0.125 A 
ATOM     16  N   LIG    1        4.994  -7.029  -0.733  0.00  0.00    -0.200 NA
ATOM     17  C   LIG    1        6.151  -6.398  -0.924  0.00  0.00    +0.214 A 
ATOM     18  N   LIG    1        6.446  -5.185  -0.477  0.00  0.00    -0.223 NA
ATOM     19  C   LIG    1        5.490  -4.577   0.256  0.00  0.00    +0.121 A 
BRANCH  15  20
ATOM     20  N   LIG    1        2.887  -7.108   0.205  0.00  0.00    -0.343 N 
ATOM     21  H   LIG    1        2.076  -6.608  -0.138  0.00  0.00    +0.144 HD
ATOM     22  H   LIG    1        2.999  -7.993  -0.285  0.00  0.00    +0.144 HD
ENDBRANCH  15  20
BRANCH  17  23
ATOM     23  N   LIG    1        7.106  -7.033  -1.701  0.00  0.00    -0.327 N 
ATOM     24  H   LIG    1        6.657  -7.685  -2.325  0.00  0.00    +0.145 HD
ATOM     25  H   LIG    1        7.715  -6.339  -2.110  0.00  0.00    +0.145 HD
ENDBRANCH  17  23
ENDBRANCH   1  14
TORSDOF 7
