REMARK  Name = *****
REMARK                            x       y       z     vdW  Elec       q    Type
REMARK                         _______ _______ _______ _____ _____    ______ ____
ROOT
ATOM      1  C   LIG    1        3.796   3.561   0.668  0.00  0.00    +0.158 C 
ENDROOT
BRANCH   1   2
ATOM      2  C   LIG    1        4.056   2.442  -0.331  0.00  0.00    -0.017 A 
ATOM      3  C   LIG    1        5.355   2.170  -0.787  0.00  0.00    +0.023 A 
ATOM      4  C   LIG    1        5.613   1.142  -1.722  0.00  0.00    +0.078 A 
ATOM      5  C   LIG    1        4.544   0.346  -2.166  0.00  0.00    +0.129 A 
ATOM      6  C   LIG    1        3.245   0.615  -1.735  0.00  0.00    +0.046 A 
ATOM      7  C   LIG    1        3.005   1.665  -0.844  0.00  0.00    +0.010 A 
BRANCH   4   8
ATOM      8  C   LIG    1        7.012   0.992  -2.219  0.00  0.00    +0.245 C 
ATOM      9  O   LIG    1        7.925   1.708  -1.795  0.00  0.00    -0.270 OA
ATOM     10  N   LIG    1        7.263   0.055  -3.180  0.00  0.00    -0.325 N 
ATOM     11  H   LIG    1        8.188  -0.032  -3.562  0.00  0.00    +0.145 HD
ATOM     12  H   LIG    1        6.503  -0.519  -3.536  0.00  0.00    +0.145 HD
ENDBRANCH   4   8
BRANCH   5  13
ATOM     13  O   LIG    1        4.739  -0.695  -3.038  0.00  0.00    -0.506 OA
ATOM     14  H   LIG    1        3.885  -1.132  -3.201  0.00  0.00    +0.292 HD
ENDBRANCH   5  13
ENDBRANCH   1   2
BRANCH   1  15
ATOM     15  O   LIG    1        2.507   4.127   0.408  0.00  0.00    -0.386 OA
ATOM     16  H   LIG    1        2.286   4.643   1.205  0.00  0.00    +0.210 HD
ENDBRANCH   1  15
BRANCH   1  17
ATOM     17  C   LIG    1        3.878   3.098   2.157  0.00  0.00    +0.117 C 
BRANCH  17  18
ATOM     18  N   LIG    1        3.639   4.208   3.113  0.00  0.00    -0.311 NA
ATOM     19  H   LIG    1        4.283   4.978   2.932  0.00  0.00    +0.122 HD
BRANCH  18  21
ATOM     20  C   LIG    1        3.367   4.997   5.419  0.00  0.00    +0.024 C 
ATOM     21  C   LIG    1        3.739   3.797   4.532  0.00  0.00    +0.051 C 
BRANCH  21  22
ATOM     22  C   LIG    1        5.105   3.210   4.973  0.00  0.00    +0.023 C 
BRANCH  22  23
ATOM     23  C   LIG    1        6.297   4.156   4.784  0.00  0.00    +0.036 C 
BRANCH  23  24
ATOM     24  C   LIG    1        7.607   3.532   5.201  0.00  0.00    -0.047 A 
ATOM     25  C   LIG    1        8.383   2.825   4.273  0.00  0.00    +0.003 A 
ATOM     26  C   LIG    1        9.608   2.274   4.651  0.00  0.00    +0.000 A 
ATOM     27  C   LIG    1       10.066   2.419   5.960  0.00  0.00    +0.000 A 
ATOM     28  C   LIG    1        9.296   3.111   6.893  0.00  0.00    +0.000 A 
ATOM     29  C   LIG    1        8.070   3.663   6.517  0.00  0.00    +0.003 A 
ENDBRANCH  23  24
ENDBRANCH  22  23
ENDBRANCH  21  22
ENDBRANCH  18  21
ENDBRANCH  17  18
ENDBRANCH   1  17
TORSDOF 10
