REMARK  Name = *****
REMARK                            x       y       z     vdW  Elec       q    Type
REMARK                         _______ _______ _______ _____ _____    ______ ____
ROOT
ATOM      1  C   LIG    1        7.067   1.734   2.139  0.00  0.00    -0.016 C 
ATOM      2  C   LIG    1        8.181   2.423   2.489  0.00  0.00    -0.011 C 
ATOM      3  C   LIG    1        9.520   2.152   1.908  0.00  0.00    +0.024 A 
ATOM      4  C   LIG    1       10.325   3.142   1.315  0.00  0.00    +0.129 A 
ATOM      5  C   LIG    1       11.581   2.790   0.799  0.00  0.00    +0.046 A 
ATOM      6  C   LIG    1       12.062   1.484   0.887  0.00  0.00    +0.008 A 
ATOM      7  C   LIG    1       11.315   0.509   1.550  0.00  0.00    -0.036 A 
ATOM      8  O   LIG    1       10.080   4.486   1.206  0.00  0.00    -0.487 OA
ATOM      9  C   LIG    1        8.773   4.998   1.458  0.00  0.00    +0.265 C 
ATOM     10  C   LIG    1        8.336   4.859   2.895  0.00  0.00    -0.003 A 
ATOM     11  C   LIG    1        8.257   5.971   3.745  0.00  0.00    +0.007 A 
ATOM     12  C   LIG    1        7.836   5.816   5.066  0.00  0.00    +0.000 A 
ATOM     13  C   LIG    1        7.490   4.553   5.547  0.00  0.00    +0.001 A 
ATOM     14  C   LIG    1        7.571   3.439   4.711  0.00  0.00    +0.009 A 
ATOM     15  C   LIG    1       10.059   0.859   2.069  0.00  0.00    +0.016 A 
ATOM     16  C   LIG    1        7.997   3.587   3.387  0.00  0.00    -0.011 A 
ENDROOT
BRANCH   1  17
ATOM     17  C   LIG    1        6.903   0.653   1.089  0.00  0.00    +0.043 C 
BRANCH  17  18
ATOM     18  C   LIG    1        6.373  -0.689   1.643  0.00  0.00    +0.088 C 
BRANCH  18  20
ATOM     19  C   LIG    1        5.761  -2.999   1.247  0.00  0.00    +0.104 C 
ATOM     20  N   LIG    1        6.263  -1.766   0.631  0.00  0.00    -0.308 NA
ATOM     21  C   LIG    1        5.419  -1.391  -0.504  0.00  0.00    +0.104 C 
ENDBRANCH  18  20
ENDBRANCH  17  18
ENDBRANCH   1  17
BRANCH   7  22
ATOM     22  C   LIG    1       11.851  -0.894   1.720  0.00  0.00    +0.155 C 
BRANCH  22  23
ATOM     23  C   LIG    1       12.731  -1.171   2.917  0.00  0.00    +0.309 C 
ATOM     24  O   LIG    1       13.206  -2.288   3.139  0.00  0.00    -0.251 OA
BRANCH  23  25
ATOM     25  O   LIG    1       12.991  -0.136   3.742  0.00  0.00    -0.480 OA
ATOM     26  H   LIG    1       12.563   0.718   3.493  0.00  0.00    +0.295 HD
ENDBRANCH  23  25
ENDBRANCH  22  23
ENDBRANCH   7  22
TORSDOF 6
