REMARK  Name = *****
REMARK                            x       y       z     vdW  Elec       q    Type
REMARK                         _______ _______ _______ _____ _____    ______ ____
ROOT
ATOM      1  C   LIG    1        6.790   1.978  -4.402  0.00  0.00    +0.307 C 
ATOM      2  O   LIG    1        6.405   2.920  -3.722  0.00  0.00    -0.251 OA
ENDROOT
BRANCH   1   3
ATOM      3  O   LIG    1        6.788   0.670  -4.019  0.00  0.00    -0.465 OA
BRANCH   3   4
ATOM      4  C   LIG    1        6.421   0.438  -2.653  0.00  0.00    +0.232 C 
BRANCH   4   5
ATOM      5  C   LIG    1        4.902   0.393  -2.503  0.00  0.00    +0.041 C 
BRANCH   5   6
ATOM      6  C   LIG    1        4.443   0.134  -1.067  0.00  0.00    +0.003 C 
BRANCH   6   7
ATOM      7  C   LIG    1        4.878   1.231  -0.088  0.00  0.00    -0.000 C 
BRANCH   7   9
ATOM      8  C   LIG    1        4.927  -0.217   2.018  0.00  0.00    +0.004 C 
ATOM      9  C   LIG    1        4.360   1.019   1.336  0.00  0.00    -0.003 C 
ENDBRANCH   7   9
ENDBRANCH   6   7
ENDBRANCH   5   6
ENDBRANCH   4   5
ENDBRANCH   3   4
ENDBRANCH   1   3
BRANCH   1  10
ATOM     10  C   LIG    1        7.316   2.093  -5.811  0.00  0.00    +0.128 C 
BRANCH  10  11
ATOM     11  C   LIG    1        7.507   3.553  -6.203  0.00  0.00    +0.086 C 
BRANCH  11  12
ATOM     12  C   LIG    1        8.543   4.236  -5.329  0.00  0.00    +0.147 C 
ATOM     13  O   LIG    1        9.462   3.603  -4.797  0.00  0.00    -0.296 OA
BRANCH  12  14
ATOM     14  C   LIG    1        8.445   5.751  -5.192  0.00  0.00    +0.152 C 
BRANCH  14  15
ATOM     15  N   LIG    1        9.696   6.356  -5.657  0.00  0.00    -0.324 NA
ATOM     16  H   LIG    1        9.741   7.323  -5.339  0.00  0.00    +0.119 HD
ATOM     17  H   LIG    1       10.467   5.871  -5.189  0.00  0.00    +0.119 HD
ENDBRANCH  14  15
ENDBRANCH  12  14
ENDBRANCH  11  12
ENDBRANCH  10  11
ENDBRANCH   1  10
TORSDOF 11
