REMARK  Name = *****
REMARK                            x       y       z     vdW  Elec       q    Type
REMARK                         _______ _______ _______ _____ _____    ______ ____
ROOT
ATOM      1  C   LIG    1        5.621   1.288   2.156  0.00  0.00    +0.002 C 
ENDROOT
BRANCH   1   2
ATOM      2  C   LIG    1        4.248   1.169   1.483  0.00  0.00    +0.011 C 
BRANCH   2   3
ATOM      3  C   LIG    1        3.075   1.452   2.428  0.00  0.00    +0.120 C 
BRANCH   3   5
ATOM      4  O   LIG    1        3.826   3.758   2.678  0.00  0.00    -0.251 OA
ATOM      5  C   LIG    1        3.057   2.857   2.989  0.00  0.00    +0.305 C 
BRANCH   5   6
ATOM      6  O   LIG    1        2.062   3.047   3.882  0.00  0.00    -0.481 OA
ATOM      7  H   LIG    1        1.500   2.260   4.023  0.00  0.00    +0.295 HD
ENDBRANCH   5   6
ENDBRANCH   3   5
ENDBRANCH   2   3
ENDBRANCH   1   2
BRANCH   1   8
ATOM      8  C   LIG    1        6.774   0.976   1.189  0.00  0.00    +0.015 C 
BRANCH   8   9
ATOM      9  C   LIG    1        8.160   1.077   1.856  0.00  0.00    +0.058 C 
ATOM     10  S   LIG    1        8.400  -0.175   3.163  0.00  0.00    -0.090 S 
ATOM     11  S   LIG    1        9.306  -1.605   2.007  0.00  0.00    -0.093 S 
ATOM     12  C   LIG    1        9.406  -0.635   0.483  0.00  0.00    +0.082 C 
ATOM     13  C   LIG    1        9.317   0.837   0.875  0.00  0.00    +0.026 C 
ENDBRANCH   8   9
ENDBRANCH   1   8
TORSDOF 6
