REMARK  Name = *****
REMARK                            x       y       z     vdW  Elec       q    Type
REMARK                         _______ _______ _______ _____ _____    ______ ____
ROOT
ATOM      1  CA  LIG    1       -4.550  -2.112  -2.579  0.00  0.00    +0.191 C 
ATOM      2  C   LIG    1       -3.493  -3.162  -3.024  0.00  0.00    +0.169 C 
ATOM      3  N   LIG    1       -3.987  -2.971  -4.379  0.00  0.00    -0.249 N 
ATOM      4  CA  LIG    1       -3.734  -3.811  -5.436  0.00  0.00    +0.125 C 
ATOM      5  C   LIG    1       -3.115  -5.007  -5.232  0.00  0.00    +0.006 C 
ATOM      6  C   LIG    1       -2.755  -5.543  -3.859  0.00  0.00    +0.107 C 
ATOM      7  S   LIG    1       -3.775  -4.871  -2.514  0.00  0.00    -0.131 S 
ATOM      8  C   LIG    1       -5.113  -2.314  -4.014  0.00  0.00    +0.244 C 
ATOM      9  O   LIG    1       -6.115  -2.082  -4.661  0.00  0.00    -0.273 OA
ENDROOT
BRANCH   1  11
ATOM     10  C   LIG    1       -6.213  -1.422  -0.872  0.00  0.00    +0.270 C 
ATOM     11  N   LIG    1       -5.458  -2.426  -1.453  0.00  0.00    -0.296 N 
ATOM     12  H   LIG    1       -5.447  -3.327  -0.979  0.00  0.00    +0.150 HD
ATOM     13  O   LIG    1       -6.152  -0.264  -1.262  0.00  0.00    -0.268 OA
BRANCH  10  15
ATOM     14  N   LIG    1       -6.880  -2.801   1.133  0.00  0.00    -0.076 NA
ATOM     15  C   LIG    1       -7.144  -1.849   0.278  0.00  0.00    +0.206 C 
BRANCH  15  16
ATOM     16  C   LIG    1       -8.409  -1.153   0.371  0.00  0.00    +0.161 A 
ATOM     17  O   LIG    1       -8.504   0.135  -0.081  0.00  0.00    -0.461 OA
ATOM     18  C   LIG    1       -9.769   0.564   0.143  0.00  0.00    +0.196 A 
ATOM     19  C   LIG    1      -10.512  -0.430   0.729  0.00  0.00    +0.042 A 
ATOM     20  C   LIG    1       -9.633  -1.531   0.897  0.00  0.00    +0.052 A 
ENDBRANCH  15  16
BRANCH  14  22
ATOM     21  C   LIG    1       -5.427  -4.378   1.951  0.00  0.00    +0.313 C 
ATOM     22  O   LIG    1       -5.606  -3.361   0.969  0.00  0.00    -0.396 OA
ENDBRANCH  14  22
ENDBRANCH  10  15
ENDBRANCH   1  11
BRANCH   4  23
ATOM     23  C   LIG    1       -4.010  -3.289  -6.836  0.00  0.00    +0.351 C 
ATOM     24  O   LIG    1       -3.404  -3.677  -7.826  0.00  0.00    -0.244 OA
BRANCH  23  25
ATOM     25  OXT LIG    1       -4.879  -2.263  -6.931  0.00  0.00    -0.476 OA
ATOM     26  HXT LIG    1       -5.487  -2.138  -6.168  0.00  0.00    +0.295 HD
ENDBRANCH  23  25
ENDBRANCH   4  23
BRANCH   5  27
ATOM     27  C   LIG    1       -2.719  -5.944  -6.367  0.00  0.00    +0.268 C 
BRANCH  27  28
ATOM     28  O   LIG    1       -2.768  -7.344  -6.040  0.00  0.00    -0.446 OA
BRANCH  28  29
ATOM     29  C   LIG    1       -4.009  -7.872  -5.973  0.00  0.00    +0.398 C 
ATOM     30  O   LIG    1       -5.048  -7.260  -5.798  0.00  0.00    -0.227 OA
ATOM     31  N   LIG    1       -3.951  -9.202  -6.203  0.00  0.00    -0.295 N 
ATOM     32  H   LIG    1       -4.821  -9.659  -6.437  0.00  0.00    +0.148 HD
ATOM     33  H   LIG    1       -3.083  -9.589  -6.541  0.00  0.00    +0.148 HD
ENDBRANCH  28  29
ENDBRANCH  27  28
ENDBRANCH   5  27
TORSDOF 9
