REMARK  Name = *****
REMARK                            x       y       z     vdW  Elec       q    Type
REMARK                         _______ _______ _______ _____ _____    ______ ____
ROOT
ATOM      1  C   LIG    1        5.162   1.888  -2.803  0.00  0.00    +0.094 C 
ATOM      2  C   LIG    1        4.367   1.165  -3.926  0.00  0.00    +0.038 C 
ATOM      3  C   LIG    1        4.307   1.861  -5.292  0.00  0.00    +0.085 C 
ATOM      4  N   LIG    1        3.275   2.893  -5.312  0.00  0.00    -0.305 NA
ATOM      5  C   LIG    1        2.685   2.999  -6.651  0.00  0.00    +0.105 C 
ATOM      6  C   LIG    1        3.727   4.215  -4.866  0.00  0.00    +0.084 C 
ATOM      7  C   LIG    1        4.784   4.286  -3.759  0.00  0.00    +0.017 C 
ATOM      8  C   LIG    1        4.571   3.320  -2.595  0.00  0.00    +0.024 C 
ENDROOT
BRANCH   1   9
ATOM      9  C   LIG    1        6.694   1.926  -3.027  0.00  0.00    -0.031 A 
ATOM     10  C   LIG    1        7.533   2.572  -2.099  0.00  0.00    +0.005 A 
ATOM     11  C   LIG    1        8.917   2.642  -2.298  0.00  0.00    +0.000 A 
ATOM     12  C   LIG    1        9.494   2.068  -3.426  0.00  0.00    +0.000 A 
ATOM     13  C   LIG    1        8.692   1.403  -4.343  0.00  0.00    +0.000 A 
ATOM     14  C   LIG    1        7.314   1.317  -4.134  0.00  0.00    +0.005 A 
ENDBRANCH   1   9
BRANCH   1  15
ATOM     15  C   LIG    1        4.869   1.082  -1.507  0.00  0.00    +0.318 C 
ATOM     16  O   LIG    1        4.301   1.521  -0.518  0.00  0.00    -0.250 OA
BRANCH  15  17
ATOM     17  O   LIG    1        5.299  -0.211  -1.634  0.00  0.00    -0.464 OA
BRANCH  17  19
ATOM     18  C   LIG    1        3.501  -1.576  -0.782  0.00  0.00    +0.048 C 
ATOM     19  C   LIG    1        4.928  -1.101  -0.572  0.00  0.00    +0.229 C 
ENDBRANCH  17  19
ENDBRANCH  15  17
ENDBRANCH   1  15
TORSDOF 4
