REMARK  Name = *****
REMARK                            x       y       z     vdW  Elec       q    Type
REMARK                         _______ _______ _______ _____ _____    ______ ____
ROOT
ATOM      1  C   LIG    1        8.609  -0.205   3.804  0.00  0.00    +0.060 C 
ATOM      2  C   LIG    1        9.428  -1.255   3.228  0.00  0.00    -0.013 C 
ATOM      3  C   LIG    1        8.973  -2.405   2.391  0.00  0.00    +0.046 C 
ATOM      4  C   LIG    1       10.754  -0.979   3.545  0.00  0.00    +0.044 C 
ATOM      5  N   LIG    1       10.760   0.212   4.214  0.00  0.00    -0.358 NA
ATOM      6  H   LIG    1       11.595   0.716   4.489  0.00  0.00    +0.166 HD
ATOM      7  C   LIG    1        9.497   0.716   4.355  0.00  0.00    +0.026 C 
ATOM      8  C   LIG    1        9.342   2.044   5.008  0.00  0.00    +0.064 C 
ENDROOT
BRANCH   4   9
ATOM      9  C   LIG    1       11.968  -1.693   3.345  0.00  0.00    +0.039 C 
ATOM     10  C   LIG    1       13.201  -1.174   3.222  0.00  0.00    +0.048 C 
ATOM     11  C   LIG    1       14.430  -1.975   3.078  0.00  0.00    +0.011 C 
ATOM     12  C   LIG    1       15.487  -1.061   2.969  0.00  0.00    +0.042 C 
ATOM     13  C   LIG    1       16.806  -1.448   2.845  0.00  0.00    +0.027 C 
ATOM     14  C   LIG    1       17.067  -2.817   2.831  0.00  0.00    +0.040 C 
ATOM     15  C   LIG    1       16.014  -3.740   2.941  0.00  0.00    +0.124 C 
ATOM     16  F   LIG    1       16.298  -5.049   2.930  0.00  0.00    -0.205 F 
ATOM     17  N   LIG    1       15.013   0.242   3.026  0.00  0.00    -0.281 N 
ATOM     18  H   LIG    1       15.573   1.080   2.989  0.00  0.00    +0.155 HD
ATOM     19  C   LIG    1       14.685  -3.334   3.068  0.00  0.00    +0.049 C 
ATOM     20  C   LIG    1       13.641   0.280   3.200  0.00  0.00    +0.249 C 
ATOM     21  O   LIG    1       12.979   1.278   3.350  0.00  0.00    -0.270 OA
ENDBRANCH   4   9
BRANCH   1  24
ATOM     22  N   LIG    1        6.668   1.190   3.761  0.00  0.00    -0.310 N 
ATOM     23  H   LIG    1        7.325   1.931   3.566  0.00  0.00    +0.149 HD
ATOM     24  C   LIG    1        7.142  -0.101   3.804  0.00  0.00    +0.246 C 
ATOM     25  O   LIG    1        6.404  -1.080   3.821  0.00  0.00    -0.270 OA
BRANCH  22  26
ATOM     26  C   LIG    1        5.260   1.518   3.765  0.00  0.00    +0.120 C 
BRANCH  26  27
ATOM     27  C   LIG    1        4.995   3.046   3.796  0.00  0.00    +0.103 C 
BRANCH  27  28
ATOM     28  N   LIG    1        5.565   3.794   4.950  0.00  0.00    -0.301 NA
BRANCH  28  30
ATOM     29  C   LIG    1        5.733   5.954   3.614  0.00  0.00    +0.020 C 
ATOM     30  C   LIG    1        5.246   5.240   4.877  0.00  0.00    +0.081 C 
ENDBRANCH  28  30
BRANCH  28  31
ATOM     31  C   LIG    1        5.065   3.212   6.218  0.00  0.00    +0.081 C 
ATOM     32  C   LIG    1        5.672   3.799   7.486  0.00  0.00    +0.020 C 
ENDBRANCH  28  31
ENDBRANCH  27  28
ENDBRANCH  26  27
ENDBRANCH  22  26
ENDBRANCH   1  24
TORSDOF 7
