REMARK  Name = *****
REMARK                            x       y       z     vdW  Elec       q    Type
REMARK                         _______ _______ _______ _____ _____    ______ ____
ROOT
ATOM      1  S   LIG    1        5.720   0.461   0.454  0.00  0.00    +0.075 S 
ATOM      2  O   LIG    1        7.146   0.460   0.187  0.00  0.00    -0.150 OA
ATOM      3  O   LIG    1        4.958  -0.763   0.341  0.00  0.00    -0.150 OA
ENDROOT
BRANCH   1   4
ATOM      4  C   LIG    1        5.514   1.115   2.088  0.00  0.00    +0.109 A 
ATOM      5  C   LIG    1        6.183   2.286   2.449  0.00  0.00    +0.030 A 
ATOM      6  C   LIG    1        6.048   2.778   3.750  0.00  0.00    +0.024 A 
ATOM      7  C   LIG    1        5.225   2.131   4.679  0.00  0.00    +0.025 A 
ATOM      8  C   LIG    1        4.615   0.926   4.317  0.00  0.00    +0.024 A 
ATOM      9  C   LIG    1        4.739   0.423   3.020  0.00  0.00    +0.030 A 
BRANCH   7  10
ATOM     10  N   LIG    1        5.205   2.554   6.013  0.00  0.00    -0.358 N 
ATOM     11  H   LIG    1        5.389   3.545   6.132  0.00  0.00    +0.142 HD
ATOM     12  H   LIG    1        4.383   2.251   6.526  0.00  0.00    +0.142 HD
ENDBRANCH   7  10
ENDBRANCH   1   4
BRANCH   1  13
ATOM     13  N   LIG    1        5.066   1.636  -0.540  0.00  0.00    -0.184 N 
ATOM     14  H   LIG    1        5.479   1.563  -1.464  0.00  0.00    +0.177 HD
BRANCH  13  18
ATOM     15  C   LIG    1        1.289   0.291  -3.027  0.00  0.00    +0.066 C 
ATOM     16  C   LIG    1        1.863   0.961  -1.815  0.00  0.00    +0.044 A 
ATOM     17  N   LIG    1        3.204   1.031  -1.728  0.00  0.00    -0.218 NA
ATOM     18  C   LIG    1        3.678   1.593  -0.616  0.00  0.00    +0.235 A 
ATOM     19  N   LIG    1        2.979   2.123   0.389  0.00  0.00    -0.218 NA
ATOM     20  C   LIG    1        1.639   2.076   0.250  0.00  0.00    +0.044 A 
ATOM     21  C   LIG    1        0.809   2.749   1.302  0.00  0.00    +0.066 C 
ATOM     22  C   LIG    1        1.029   1.489  -0.845  0.00  0.00    +0.046 A 
ENDBRANCH  13  18
ENDBRANCH   1  13
TORSDOF 4
