REMARK  Name = *****
REMARK                            x       y       z     vdW  Elec       q    Type
REMARK                         _______ _______ _______ _____ _____    ______ ____
ROOT
ATOM      1  C   LIG    1       -0.615   6.095  -0.954  0.00  0.00    +0.250 C 
ATOM      2  N   LIG    1        0.176   5.082  -0.436  0.00  0.00    -0.298 N 
ATOM      3  H   LIG    1       -0.098   4.118  -0.582  0.00  0.00    +0.150 HD
ATOM      4  O   LIG    1       -0.258   7.269  -0.915  0.00  0.00    -0.270 OA
ENDROOT
BRANCH   2   5
ATOM      5  CA  LIG    1        1.485   5.371   0.199  0.00  0.00    +0.190 C 
ATOM      6  C   LIG    1        1.466   5.926   1.643  0.00  0.00    +0.165 C 
ATOM      7  S   LIG    1        0.028   5.562   2.710  0.00  0.00    -0.127 S 
ATOM      8  C   LIG    1        0.842   4.184   3.661  0.00  0.00    +0.042 C 
ATOM      9  CA  LIG    1        2.348   4.217   3.290  0.00  0.00    +0.201 C 
ATOM     10  C   LIG    1        0.201   2.855   3.221  0.00  0.00    +0.025 C 
ATOM     11  C   LIG    1        0.508   4.419   5.141  0.00  0.00    +0.025 C 
ATOM     12  N   LIG    1        2.469   4.903   1.998  0.00  0.00    -0.271 N 
ATOM     13  C   LIG    1        2.237   4.194   0.845  0.00  0.00    +0.240 C 
ATOM     14  O   LIG    1        2.408   3.012   0.587  0.00  0.00    -0.273 OA
BRANCH   9  15
ATOM     15  C   LIG    1        3.231   4.862   4.365  0.00  0.00    +0.327 C 
ATOM     16  O   LIG    1        3.621   4.265   5.360  0.00  0.00    -0.249 OA
BRANCH  15  17
ATOM     17  OXT LIG    1        3.467   6.183   4.204  0.00  0.00    -0.479 OA
ATOM     18  HXT LIG    1        3.065   6.544   3.395  0.00  0.00    +0.295 HD
ENDBRANCH  15  17
ENDBRANCH   9  15
ENDBRANCH   2   5
BRANCH   1  21
ATOM     19  C   LIG    1       -2.567   3.758   0.217  0.00  0.00    +0.090 C 
ATOM     20  C   LIG    1       -2.667   4.659  -0.953  0.00  0.00    +0.147 A 
ATOM     21  C   LIG    1       -1.884   5.664  -1.507  0.00  0.00    +0.106 A 
ATOM     22  C   LIG    1       -2.682   6.162  -2.608  0.00  0.00    +0.127 A 
ATOM     23  N   LIG    1       -3.814   5.431  -2.683  0.00  0.00    -0.077 NA
ATOM     24  O   LIG    1       -3.805   4.530  -1.665  0.00  0.00    -0.359 OA
BRANCH  22  25
ATOM     25  C   LIG    1       -2.537   7.249  -3.612  0.00  0.00    +0.023 A 
ATOM     26  C   LIG    1       -1.349   7.696  -4.210  0.00  0.00    +0.050 A 
ATOM     27 CL   LIG    1        0.208   7.013  -3.906  0.00  0.00    -0.083 Cl
ATOM     28  C   LIG    1       -1.378   8.686  -5.219  0.00  0.00    +0.021 A 
ATOM     29  C   LIG    1       -2.582   9.203  -5.694  0.00  0.00    +0.002 A 
ATOM     30  C   LIG    1       -3.771   8.762  -5.139  0.00  0.00    +0.001 A 
ATOM     31  C   LIG    1       -3.743   7.819  -4.105  0.00  0.00    +0.012 A 
ENDBRANCH  22  25
ENDBRANCH   1  21
TORSDOF 5
