REMARK  Name = *****
REMARK                            x       y       z     vdW  Elec       q    Type
REMARK                         _______ _______ _______ _____ _____    ______ ____
ROOT
ATOM      1  C1*   I A  1        6.025  -2.844   0.525  0.00  0.00    +0.253 C 
ATOM      2  C2*   I A  1        7.170  -2.030   1.127  0.00  0.00    +0.195 C 
ATOM      3  C3*   I A  1        8.368  -2.896   0.771  0.00  0.00    +0.178 C 
ATOM      4  C4*   I A  1        7.816  -4.322   0.808  0.00  0.00    +0.177 C 
ATOM      5  O4*   I A  1        6.382  -4.238   0.637  0.00  0.00    -0.346 OA
ENDROOT
BRANCH   1  11
ATOM      6  O6    I A  1        1.218  -2.220   4.032  0.00  0.00    -0.265 OA
ATOM      7  C6    I A  1        2.385  -2.516   3.806  0.00  0.00    +0.279 C 
ATOM      8  C5    I A  1        3.050  -2.448   2.520  0.00  0.00    +0.172 A 
ATOM      9  N7    I A  1        2.584  -2.028   1.302  0.00  0.00    -0.229 NA
ATOM     10  C8    I A  1        3.620  -2.148   0.497  0.00  0.00    +0.204 A 
ATOM     11  N9    I A  1        4.732  -2.632   1.145  0.00  0.00    -0.285 N 
ATOM     12  C4    I A  1        4.371  -2.840   2.448  0.00  0.00    +0.169 A 
ATOM     13  N3    I A  1        5.160  -3.303   3.450  0.00  0.00    -0.218 NA
ATOM     14  C2    I A  1        4.546  -3.332   4.596  0.00  0.00    +0.201 C 
ATOM     15  N1    I A  1        3.232  -2.966   4.810  0.00  0.00    -0.312 N 
ATOM     16  H1    I A  1        2.821  -3.023   5.729  0.00  0.00    +0.170 HD
ENDBRANCH   1  11
BRANCH   2  17
ATOM     17  O2*   I A  1        7.289  -0.726   0.550  0.00  0.00    -0.385 OA
ATOM     18  H2*   I A  1        7.851  -0.845  -0.245  0.00  0.00    +0.210 HD
ENDBRANCH   2  17
BRANCH   3  19
ATOM     19  O3*   I A  1        8.761  -2.549  -0.575  0.00  0.00    -0.386 OA
ATOM     20  H3*   I A  1        9.566  -3.060  -0.781  0.00  0.00    +0.210 HD
ENDBRANCH   3  19
BRANCH   4  21
ATOM     21  C5*   I A  1        8.119  -5.067   2.109  0.00  0.00    +0.190 C 
BRANCH  21  22
ATOM     22  O5*   I A  1        7.673  -4.349   3.249  0.00  0.00    -0.392 OA
ATOM     23  H5*   I A  1        6.699  -4.241   3.160  0.00  0.00    +0.209 HD
ENDBRANCH  21  22
ENDBRANCH   4  21
TORSDOF 5
