REMARK  Name = *****
REMARK                            x       y       z     vdW  Elec       q    Type
REMARK                         _______ _______ _______ _____ _____    ______ ____
ROOT
ATOM      1  C   LIG    1       15.930  -3.745  -6.536  0.00  0.00    +0.159 C 
ATOM      2  C   LIG    1       16.366  -2.413  -5.870  0.00  0.00    +0.237 C 
ATOM      3  O   LIG    1       15.636  -1.458  -5.619  0.00  0.00    -0.274 OA
ATOM      4  N   LIG    1       17.689  -2.476  -5.417  0.00  0.00    -0.285 N 
ATOM      5  C   LIG    1       17.948  -2.282  -3.986  0.00  0.00    +0.166 C 
ATOM      6  C   LIG    1       18.759  -0.986  -3.886  0.00  0.00    +0.078 C 
ATOM      7  C   LIG    1       19.613  -1.044  -5.152  0.00  0.00    +0.195 C 
ATOM      8  C   LIG    1       16.778  -2.463  -2.981  0.00  0.00    +0.234 C 
ATOM      9  O   LIG    1       16.498  -3.556  -2.485  0.00  0.00    -0.274 OA
ATOM     10  N   LIG    1       16.015  -1.346  -2.732  0.00  0.00    -0.299 N 
ATOM     11  H   LIG    1       16.159  -0.511  -3.287  0.00  0.00    +0.150 HD
ATOM     12  C   LIG    1       15.002  -1.306  -1.699  0.00  0.00    +0.119 C 
ATOM     13  C   LIG    1       13.534  -1.634  -1.956  0.00  0.00    +0.046 C 
ATOM     14  C   LIG    1       12.890  -1.950  -3.240  0.00  0.00    -0.025 C 
ATOM     15  C   LIG    1       12.193  -3.069  -3.508  0.00  0.00    -0.031 C 
ATOM     16  C   LIG    1       11.234  -3.209  -4.667  0.00  0.00    +0.027 C 
ATOM     17  C   LIG    1       11.778  -3.955  -5.881  0.00  0.00    +0.004 C 
ATOM     18  C   LIG    1       12.803  -3.118  -6.643  0.00  0.00    +0.000 C 
ATOM     19  C   LIG    1       13.566  -3.955  -7.663  0.00  0.00    +0.002 C 
ATOM     20  C   LIG    1       13.959  -0.198  -1.813  0.00  0.00    +0.046 C 
ATOM     21  C   LIG    1       18.619  -1.627  -6.169  0.00  0.00    +0.153 C 
ATOM     22  C   LIG    1       15.036  -3.544  -7.782  0.00  0.00    +0.032 C 
ENDROOT
BRANCH   1  24
ATOM     23  C   LIG    1       15.601  -5.994  -5.465  0.00  0.00    +0.265 C 
ATOM     24  N   LIG    1       15.374  -4.633  -5.511  0.00  0.00    -0.299 N 
ATOM     25  H   LIG    1       14.826  -4.236  -4.750  0.00  0.00    +0.150 HD
ATOM     26  O   LIG    1       16.262  -6.602  -6.300  0.00  0.00    -0.269 OA
BRANCH  23  31
ATOM     27  C   LIG    1       13.355  -8.730  -1.001  0.00  0.00    +0.067 C 
ATOM     28  C   LIG    1       13.983  -8.012  -2.157  0.00  0.00    +0.056 A 
ATOM     29  N   LIG    1       15.100  -8.535  -2.720  0.00  0.00    -0.256 NA
ATOM     30  C   LIG    1       15.593  -7.861  -3.798  0.00  0.00    +0.144 A 
ATOM     31  C   LIG    1       15.001  -6.707  -4.294  0.00  0.00    +0.143 A 
ATOM     32  N   LIG    1       13.882  -6.171  -3.732  0.00  0.00    -0.247 NA
ATOM     33  C   LIG    1       13.392  -6.859  -2.669  0.00  0.00    +0.134 A 
ENDBRANCH  23  31
ENDBRANCH   1  24
BRANCH  12  34
ATOM     34  C   LIG    1       15.511  -1.508  -0.275  0.00  0.00    +0.256 C 
ATOM     35  N   LIG    1       15.496  -2.820   0.200  0.00  0.00    -0.188 N 
ATOM     36  H   LIG    1       15.414  -3.598  -0.456  0.00  0.00    +0.176 HD
ATOM     37  O   LIG    1       15.826  -0.540   0.400  0.00  0.00    -0.272 OA
BRANCH  35  38
ATOM     38  S   LIG    1       15.898  -3.226   1.759  0.00  0.00    +0.048 S 
ATOM     39  O   LIG    1       17.139  -2.558   2.121  0.00  0.00    -0.155 OA
ATOM     40  O   LIG    1       15.777  -4.658   1.851  0.00  0.00    -0.155 OA
BRANCH  38  41
ATOM     41  C   LIG    1       14.600  -2.492   2.808  0.00  0.00    +0.151 C 
ATOM     42  C   LIG    1       13.675  -3.465   3.496  0.00  0.00    +0.030 C 
ATOM     43  C   LIG    1       14.767  -2.784   4.275  0.00  0.00    +0.030 C 
ENDBRANCH  38  41
ENDBRANCH  35  38
ENDBRANCH  12  34
BRANCH   7  44
ATOM     44  O   LIG    1       20.693  -1.970  -4.991  0.00  0.00    -0.471 OA
BRANCH  44  45
ATOM     45  C   LIG    1       21.885  -1.438  -4.523  0.00  0.00    +0.224 A 
ATOM     46  C   LIG    1       22.975  -2.316  -4.429  0.00  0.00    +0.044 A 
ATOM     47  C   LIG    1       24.211  -1.776  -4.009  0.00  0.00    -0.004 A 
ATOM     48  C   LIG    1       25.312  -2.669  -3.925  0.00  0.00    +0.009 A 
ATOM     49  C   LIG    1       25.197  -4.027  -4.231  0.00  0.00    +0.001 A 
ATOM     50  C   LIG    1       23.976  -4.541  -4.635  0.00  0.00    +0.001 A 
ATOM     51  C   LIG    1       24.286  -0.380  -3.696  0.00  0.00    +0.008 A 
ATOM     52  C   LIG    1       23.100   0.384  -3.801  0.00  0.00    +0.075 A 
ATOM     53  C   LIG    1       23.141   1.738  -3.487  0.00  0.00    +0.028 A 
ATOM     54  C   LIG    1       24.317   2.376  -3.086  0.00  0.00    +0.002 A 
ATOM     55  C   LIG    1       25.491   1.647  -2.993  0.00  0.00    +0.001 A 
ATOM     56  C   LIG    1       25.474   0.286  -3.291  0.00  0.00    +0.010 A 
ATOM     57  C   LIG    1       22.877  -3.693  -4.737  0.00  0.00    +0.014 A 
ATOM     58  N   LIG    1       21.927  -0.129  -4.203  0.00  0.00    -0.212 NA
ENDBRANCH  44  45
ENDBRANCH   7  44
TORSDOF 7
