REMARK  Name = *****
REMARK                            x       y       z     vdW  Elec       q    Type
REMARK                         _______ _______ _______ _____ _____    ______ ____
ROOT
ATOM      1  N   LIG    1       20.018  11.839   1.150  0.00  0.00    -0.237 N 
ATOM      2  C   LIG    1       19.511  13.132   1.604  0.00  0.00    +0.046 A 
ATOM      3  C   LIG    1       20.304  14.286   1.392  0.00  0.00    -0.025 A 
ATOM      4  C   LIG    1       19.666  15.556   1.395  0.00  0.00    +0.009 A 
ATOM      5  C   LIG    1       18.260  15.673   1.679  0.00  0.00    +0.046 A 
ATOM      6  C   LIG    1       17.498  14.546   2.102  0.00  0.00    +0.122 A 
ATOM      7  C   LIG    1       21.766  14.085   1.060  0.00  0.00    +0.046 C 
ATOM      8  C   LIG    1       22.178  12.795   1.766  0.00  0.00    +0.101 C 
ATOM      9  C   LIG    1       18.205  13.317   2.125  0.00  0.00    +0.069 A 
ATOM     10  C   LIG    1       21.399  11.627   1.202  0.00  0.00    +0.223 C 
ATOM     11  O   LIG    1       21.942  10.557   0.932  0.00  0.00    -0.275 OA
ENDROOT
BRANCH   1  12
ATOM     12  C   LIG    1       19.240  10.781   0.430  0.00  0.00    +0.349 C 
BRANCH  12  13
ATOM     13  O   LIG    1       17.848  10.793   0.719  0.00  0.00    -0.445 OA
BRANCH  13  14
ATOM     14  C   LIG    1       17.065  11.163  -0.365  0.00  0.00    +0.309 C 
ATOM     15  O   LIG    1       16.937  10.594  -1.362  0.00  0.00    -0.251 OA
BRANCH  14  16
ATOM     16  C   LIG    1       16.357  12.445  -0.040  0.00  0.00    +0.120 C 
BRANCH  16  17
ATOM     17  C   LIG    1       16.763  13.707  -0.829  0.00  0.00    +0.011 C 
BRANCH  17  18
ATOM     18  C   LIG    1       18.255  13.941  -1.105  0.00  0.00    +0.000 C 
BRANCH  18  19
ATOM     19  C   LIG    1       18.825  15.273  -1.602  0.00  0.00    +0.000 C 
BRANCH  19  20
ATOM     20  C   LIG    1       18.799  15.540  -3.079  0.00  0.00    -0.000 C 
BRANCH  20  21
ATOM     21  C   LIG    1       17.486  15.285  -3.802  0.00  0.00    -0.000 C 
BRANCH  21  22
ATOM     22  C   LIG    1       17.607  15.682  -5.297  0.00  0.00    -0.000 C 
BRANCH  22  23
ATOM     23  C   LIG    1       18.553  14.717  -6.082  0.00  0.00    -0.000 C 
BRANCH  23  24
ATOM     24  C   LIG    1       18.733  14.999  -7.600  0.00  0.00    -0.000 C 
BRANCH  24  26
ATOM     25  C   LIG    1       19.854  14.536  -9.884  0.00  0.00    +0.004 C 
ATOM     26  C   LIG    1       19.756  14.136  -8.400  0.00  0.00    -0.003 C 
ENDBRANCH  24  26
ENDBRANCH  23  24
ENDBRANCH  22  23
ENDBRANCH  21  22
ENDBRANCH  20  21
ENDBRANCH  19  20
ENDBRANCH  18  19
ENDBRANCH  17  18
ENDBRANCH  16  17
ENDBRANCH  14  16
ENDBRANCH  13  14
ENDBRANCH  12  13
ENDBRANCH   1  12
BRANCH   6  27
ATOM     27  O   LIG    1       16.122  14.703   2.324  0.00  0.00    -0.492 OA
BRANCH  27  28
ATOM     28  C   LIG    1       15.032  13.675   2.475  0.00  0.00    +0.229 C 
BRANCH  28  29
ATOM     29  C   LIG    1       14.793  13.138   3.919  0.00  0.00    +0.042 C 
BRANCH  29  30
ATOM     30  C   LIG    1       13.777  11.972   4.280  0.00  0.00    +0.019 C 
BRANCH  30  31
ATOM     31  C   LIG    1       13.710  11.592   5.839  0.00  0.00    +0.085 C 
BRANCH  31  32
ATOM     32  N   LIG    1       13.176  12.570   6.823  0.00  0.00    -0.299 NA
ATOM     33  C   LIG    1       11.748  12.868   6.620  0.00  0.00    +0.103 C 
ATOM     34  C   LIG    1       10.716  11.737   7.052  0.00  0.00    +0.120 C 
ATOM     35  N   LIG    1       11.340  10.664   7.900  0.00  0.00    -0.326 N 
ATOM     36  C   LIG    1       12.124  11.334   8.939  0.00  0.00    +0.120 C 
ATOM     37  C   LIG    1       13.282  12.152   8.271  0.00  0.00    +0.103 C 
BRANCH  35  38
ATOM     38  C   LIG    1       11.664   9.313   7.702  0.00  0.00    +0.050 A 
ATOM     39  C   LIG    1       10.773   8.268   7.373  0.00  0.00    +0.080 A 
ATOM     40 CL   LIG    1        9.269   8.593   6.576  0.00  0.00    -0.080 Cl
ATOM     41  C   LIG    1       11.115   6.912   7.670  0.00  0.00    +0.061 A 
ATOM     42 CL   LIG    1        9.939   5.633   7.699  0.00  0.00    -0.082 Cl
ATOM     43  C   LIG    1       12.405   6.545   8.069  0.00  0.00    +0.021 A 
ATOM     44  C   LIG    1       13.356   7.528   8.210  0.00  0.00    +0.003 A 
ATOM     45  C   LIG    1       12.970   8.862   8.063  0.00  0.00    +0.025 A 
ENDBRANCH  35  38
ENDBRANCH  31  32
ENDBRANCH  30  31
ENDBRANCH  29  30
ENDBRANCH  28  29
ENDBRANCH  27  28
ENDBRANCH   6  27
TORSDOF 20
