REMARK  Name = *****
REMARK                            x       y       z     vdW  Elec       q    Type
REMARK                         _______ _______ _______ _____ _____    ______ ____
ROOT
ATOM      1  C   LIG    1       -0.917   6.119   0.467  0.00  0.00    +0.250 C 
ATOM      2  N   LIG    1        0.242   5.496   0.063  0.00  0.00    -0.298 N 
ATOM      3  H   LIG    1        0.155   4.557  -0.318  0.00  0.00    +0.150 HD
ATOM      4  O   LIG    1       -0.981   7.294   0.800  0.00  0.00    -0.270 OA
ENDROOT
BRANCH   2   5
ATOM      5  CA  LIG    1        1.559   6.165  -0.081  0.00  0.00    +0.190 C 
ATOM      6  C   LIG    1        2.719   5.195  -0.478  0.00  0.00    +0.165 C 
ATOM      7  S   LIG    1        2.176   3.564  -1.174  0.00  0.00    -0.127 S 
ATOM      8  C   LIG    1        2.376   4.091  -2.942  0.00  0.00    +0.042 C 
ATOM      9  CA  LIG    1        3.232   5.381  -2.914  0.00  0.00    +0.201 C 
ATOM     10  C   LIG    1        0.975   4.364  -3.518  0.00  0.00    +0.025 C 
ATOM     11  C   LIG    1        2.994   2.929  -3.731  0.00  0.00    +0.025 C 
ATOM     12  N   LIG    1        2.984   6.048  -1.641  0.00  0.00    -0.271 N 
ATOM     13  C   LIG    1        1.862   6.818  -1.461  0.00  0.00    +0.240 C 
ATOM     14  O   LIG    1        1.308   7.536  -2.251  0.00  0.00    -0.273 OA
BRANCH   9  15
ATOM     15  C   LIG    1        4.738   5.108  -3.022  0.00  0.00    +0.327 C 
ATOM     16  O   LIG    1        5.449   4.742  -2.097  0.00  0.00    -0.249 OA
BRANCH  15  17
ATOM     17  OXT LIG    1        5.233   5.266  -4.275  0.00  0.00    -0.479 OA
ATOM     18  HXT LIG    1        4.607   5.606  -4.943  0.00  0.00    +0.295 HD
ENDBRANCH  15  17
ENDBRANCH   9  15
ENDBRANCH   2   5
BRANCH   1  21
ATOM     19  C   LIG    1       -1.096   3.102   1.697  0.00  0.00    +0.090 C 
ATOM     20  C   LIG    1       -2.058   3.933   0.946  0.00  0.00    +0.147 A 
ATOM     21  C   LIG    1       -2.057   5.224   0.450  0.00  0.00    +0.106 A 
ATOM     22  C   LIG    1       -3.405   5.423   0.007  0.00  0.00    +0.130 A 
ATOM     23  N   LIG    1       -4.069   4.253   0.055  0.00  0.00    -0.077 NA
ATOM     24  O   LIG    1       -3.247   3.349   0.675  0.00  0.00    -0.359 OA
BRANCH  22  25
ATOM     25  C   LIG    1       -4.079   6.621  -0.499  0.00  0.00    +0.058 A 
ATOM     26  C   LIG    1       -5.402   6.953  -0.138  0.00  0.00    +0.053 A 
ATOM     27 CL   LIG    1       -6.343   6.046   1.004  0.00  0.00    -0.083 Cl
ATOM     28  C   LIG    1       -6.031   8.089  -0.671  0.00  0.00    +0.021 A 
ATOM     29  C   LIG    1       -5.348   8.931  -1.544  0.00  0.00    +0.004 A 
ATOM     30  C   LIG    1       -4.038   8.627  -1.898  0.00  0.00    +0.039 A 
ATOM     31  C   LIG    1       -3.425   7.476  -1.394  0.00  0.00    +0.134 A 
ATOM     32  F   LIG    1       -2.188   7.192  -1.828  0.00  0.00    -0.205 F 
ENDBRANCH  22  25
ENDBRANCH   1  21
TORSDOF 5
