REMARK  Name = *****
REMARK                            x       y       z     vdW  Elec       q    Type
REMARK                         _______ _______ _______ _____ _____    ______ ____
ROOT
ATOM      1  C   LIG    1       -0.402   0.849   0.372  0.00  0.00    +0.019 C 
ATOM      2  C   LIG    1       -1.870   0.434   0.610  0.00  0.00    +0.029 C 
ATOM      3  C   LIG    1       -1.891  -0.348   1.914  0.00  0.00    +0.140 C 
ATOM      4  O   LIG    1       -1.972   0.156   3.027  0.00  0.00    -0.297 OA
ATOM      5  C   LIG    1       -1.746  -1.835   1.687  0.00  0.00    +0.075 C 
ATOM      6  C   LIG    1       -1.670  -1.945   0.163  0.00  0.00    +0.012 C 
ATOM      7  C   LIG    1       -2.319  -0.662  -0.389  0.00  0.00    +0.006 C 
ATOM      8  C   LIG    1       -3.852  -0.784  -0.650  0.00  0.00    +0.001 C 
ATOM      9  C   LIG    1       -4.523   0.608  -0.755  0.00  0.00    +0.023 C 
ATOM     10  C   LIG    1       -6.025   0.530  -0.970  0.00  0.00    -0.041 A 
ATOM     11  C   LIG    1       -6.747  -0.635  -0.677  0.00  0.00    -0.040 A 
ATOM     12  C   LIG    1       -6.075  -1.889  -0.190  0.00  0.00    +0.036 C 
ATOM     13  C   LIG    1       -8.134  -0.669  -0.894  0.00  0.00    +0.052 A 
ATOM     14  C   LIG    1       -8.809   0.451  -1.376  0.00  0.00    +0.159 A 
ATOM     15  C   LIG    1       -8.100   1.623  -1.629  0.00  0.00    +0.049 A 
ATOM     16  C   LIG    1       -6.717   1.659  -1.441  0.00  0.00    +0.008 A 
ATOM     17  C   LIG    1       -4.218   1.455   0.489  0.00  0.00    +0.009 C 
ATOM     18  C   LIG    1       -4.652  -1.672   0.320  0.00  0.00    +0.009 C 
ATOM     19  C   LIG    1       -2.726   1.701   0.624  0.00  0.00    +0.015 C 
ENDROOT
BRANCH  14  20
ATOM     20  O   LIG    1      -10.162   0.500  -1.598  0.00  0.00    -0.325 OA
BRANCH  20  21
ATOM     21  S   LIG    1      -11.003  -0.839  -1.999  0.00  0.00    +0.251 S 
ATOM     22  O   LIG    1      -11.184  -1.665  -0.825  0.00  0.00    -0.108 OA
ATOM     23  O   LIG    1      -10.480  -1.378  -3.237  0.00  0.00    -0.108 OA
BRANCH  21  24
ATOM     24  O   LIG    1      -12.448  -0.253  -2.388  0.00  0.00    -0.222 OA
ATOM     25  H   LIG    1      -12.496  -0.244  -3.364  0.00  0.00    +0.248 HD
ENDBRANCH  21  24
ENDBRANCH  20  21
ENDBRANCH  14  20
TORSDOF 3
