REMARK  Name = *****
REMARK                            x       y       z     vdW  Elec       q    Type
REMARK                         _______ _______ _______ _____ _____    ______ ____
ROOT
ATOM      1  C   LIG    1        1.312  -2.737   0.973  0.00  0.00    +0.089 C 
ENDROOT
BRANCH   1   2
ATOM      2  N   LIG    1        0.479  -3.351  -0.075  0.00  0.00    -0.302 NA
ATOM      3  C   LIG    1        1.127  -4.388  -0.887  0.00  0.00    +0.085 C 
ATOM      4  C   LIG    1        1.236  -5.753  -0.203  0.00  0.00    +0.025 C 
ATOM      5  C   LIG    1       -0.142  -6.279   0.219  0.00  0.00    +0.044 C 
ATOM      6  C   LIG    1       -0.815  -5.204   1.091  0.00  0.00    +0.025 C 
ATOM      7  C   LIG    1       -0.824  -3.810   0.437  0.00  0.00    +0.085 C 
BRANCH   5   8
ATOM      8  C   LIG    1       -0.973  -6.745  -0.959  0.00  0.00    +0.095 A 
ATOM      9  C   LIG    1       -0.990  -8.021  -1.599  0.00  0.00    +0.045 A 
ATOM     10  C   LIG    1       -1.897  -7.860  -2.636  0.00  0.00    +0.170 A 
ATOM     11  C   LIG    1       -2.241  -8.841  -3.558  0.00  0.00    +0.088 A 
ATOM     12  C   LIG    1       -1.611 -10.069  -3.386  0.00  0.00    +0.127 A 
ATOM     13  C   LIG    1       -0.695 -10.293  -2.358  0.00  0.00    +0.039 A 
ATOM     14  F   LIG    1       -1.897 -11.066  -4.234  0.00  0.00    -0.205 F 
ATOM     15  O   LIG    1       -2.393  -6.600  -2.609  0.00  0.00    -0.354 OA
ATOM     16  C   LIG    1       -0.365  -9.273  -1.450  0.00  0.00    +0.016 A 
ATOM     17  N   LIG    1       -1.831  -5.909  -1.562  0.00  0.00    -0.082 NA
ENDBRANCH   5   8
ENDBRANCH   1   2
BRANCH   1  18
ATOM     18  C   LIG    1        2.629  -2.120   0.449  0.00  0.00    +0.058 C 
BRANCH  18  21
ATOM     19  C   LIG    1        2.728   0.900   1.107  0.00  0.00    +0.066 C 
ATOM     20  C   LIG    1        3.513  -0.163   1.833  0.00  0.00    +0.049 C 
ATOM     21  C   LIG    1        3.457  -1.470   1.531  0.00  0.00    +0.039 C 
ATOM     22  C   LIG    1        4.342  -2.376   2.308  0.00  0.00    +0.258 C 
ATOM     23  O   LIG    1        4.272  -3.607   2.140  0.00  0.00    -0.267 OA
ATOM     24  N   LIG    1        5.204  -1.792   3.200  0.00  0.00    -0.294 N 
ATOM     25  C   LIG    1        6.048  -2.677   3.997  0.00  0.00    +0.127 C 
ATOM     26  C   LIG    1        7.169  -1.968   4.743  0.00  0.00    +0.025 C 
ATOM     27  C   LIG    1        6.586  -0.802   5.516  0.00  0.00    +0.041 C 
ATOM     28  C   LIG    1        5.983   0.193   4.543  0.00  0.00    +0.180 C 
ATOM     29  C   LIG    1        5.095  -0.455   3.472  0.00  0.00    +0.141 C 
ATOM     30  N   LIG    1        4.295   0.351   2.835  0.00  0.00    -0.236 NA
BRANCH  28  31
ATOM     31  O   LIG    1        5.217   1.140   5.283  0.00  0.00    -0.384 OA
ATOM     32  H   LIG    1        4.644   1.575   4.618  0.00  0.00    +0.210 HD
ENDBRANCH  28  31
ENDBRANCH  18  21
ENDBRANCH   1  18
TORSDOF 5
