REMARK  Name = *****
REMARK                            x       y       z     vdW  Elec       q    Type
REMARK                         _______ _______ _______ _____ _____    ______ ____
ROOT
ATOM      1  C   LIG    1        8.588  -1.976   3.927  0.00  0.00    +0.121 A 
ATOM      2  C   LIG    1        9.061  -3.206   3.474  0.00  0.00    +0.046 A 
ATOM      3  C   LIG    1       10.436  -3.434   3.332  0.00  0.00    +0.007 A 
ATOM      4  C   LIG    1       11.360  -2.430   3.669  0.00  0.00    -0.045 A 
ATOM      5  C   LIG    1       10.876  -1.204   4.124  0.00  0.00    +0.007 A 
ATOM      6  C   LIG    1        9.505  -0.975   4.258  0.00  0.00    +0.046 A 
ENDROOT
BRANCH   1   7
ATOM      7  O   LIG    1        7.234  -1.855   4.057  0.00  0.00    -0.489 OA
BRANCH   7   8
ATOM      8  C   LIG    1        6.699  -0.531   3.951  0.00  0.00    +0.261 C 
BRANCH   8   9
ATOM      9  C   LIG    1        5.167  -0.549   4.112  0.00  0.00    +0.166 C 
BRANCH   9  10
ATOM     10  O   LIG    1        4.801  -1.023   5.420  0.00  0.00    -0.387 OA
ATOM     11  H   LIG    1        5.340  -0.540   6.069  0.00  0.00    +0.210 HD
ENDBRANCH   9  10
BRANCH   9  12
ATOM     12  C   LIG    1        4.520  -1.452   3.051  0.00  0.00    +0.115 C 
BRANCH  12  13
ATOM     13  N   LIG    1        3.050  -1.453   3.154  0.00  0.00    -0.311 NA
ATOM     14  H   LIG    1        2.815  -1.747   4.106  0.00  0.00    +0.122 HD
BRANCH  13  16
ATOM     15  C   LIG    1        2.860  -3.809   2.338  0.00  0.00    +0.024 C 
ATOM     16  C   LIG    1        2.425  -2.350   2.172  0.00  0.00    +0.048 C 
ATOM     17  C   LIG    1        0.901  -2.259   2.299  0.00  0.00    +0.024 C 
ENDBRANCH  13  16
ENDBRANCH  12  13
ENDBRANCH   9  12
ENDBRANCH   8   9
ENDBRANCH   7   8
ENDBRANCH   1   7
BRANCH   4  18
ATOM     18  C   LIG    1       12.846  -2.665   3.551  0.00  0.00    +0.063 C 
BRANCH  18  19
ATOM     19  C   LIG    1       13.569  -2.549   4.886  0.00  0.00    +0.164 C 
BRANCH  19  20
ATOM     20  O   LIG    1       14.969  -2.758   4.690  0.00  0.00    -0.379 OA
BRANCH  20  21
ATOM     21  C   LIG    1       15.718  -2.667   5.907  0.00  0.00    +0.163 C 
BRANCH  21  22
ATOM     22  C   LIG    1       15.672  -1.273   6.453  0.00  0.00    +0.015 C 
ATOM     23  C   LIG    1       14.867  -0.968   7.694  0.00  0.00    +0.006 C 
ATOM     24  C   LIG    1       16.368  -0.922   7.742  0.00  0.00    +0.006 C 
ENDBRANCH  21  22
ENDBRANCH  20  21
ENDBRANCH  19  20
ENDBRANCH  18  19
ENDBRANCH   4  18
TORSDOF 12
