REMARK  Name = *****
REMARK                            x       y       z     vdW  Elec       q    Type
REMARK                         _______ _______ _______ _____ _____    ______ ____
ROOT
ATOM      1  C   LIG    1        0.930 -10.010   5.418  0.00  0.00    +0.066 A 
ATOM      2  C   LIG    1        0.675 -11.407   5.365  0.00  0.00    +0.040 A 
ATOM      3  I   LIG    1        1.758 -13.108   3.859  0.00  0.00    -0.042 I 
ATOM      4  C   LIG    1       -0.624 -11.878   5.163  0.00  0.00    +0.066 A 
ATOM      5  C   LIG    1       -1.457 -11.027   4.403  0.00  0.00    +0.049 A 
ATOM      6  I   LIG    1       -1.607 -11.788   2.234  0.00  0.00    -0.041 I 
ATOM      7  C   LIG    1       -1.294  -9.633   4.410  0.00  0.00    +0.061 A 
ATOM      8  C   LIG    1       -0.231  -9.150   5.194  0.00  0.00    +0.049 A 
ATOM      9  I   LIG    1       -0.929  -7.654   6.697  0.00  0.00    -0.041 I 
ENDROOT
BRANCH   4  10
ATOM     10  C   LIG    1       -1.251 -12.535   6.378  0.00  0.00    +0.248 C 
ATOM     11  N   LIG    1       -0.739 -13.746   6.895  0.00  0.00    -0.298 N 
ATOM     12  C   LIG    1        0.510 -14.370   6.571  0.00  0.00    +0.132 C 
ATOM     13  O   LIG    1       -2.204 -11.972   6.868  0.00  0.00    -0.270 OA
BRANCH  11  14
ATOM     14  C   LIG    1       -1.544 -14.530   7.828  0.00  0.00    +0.141 C 
BRANCH  14  15
ATOM     15  C   LIG    1       -0.764 -14.969   9.100  0.00  0.00    +0.157 C 
BRANCH  15  16
ATOM     16  O   LIG    1        0.390 -15.771   8.805  0.00  0.00    -0.388 OA
ATOM     17  H   LIG    1        0.468 -16.512   9.428  0.00  0.00    +0.210 HD
ENDBRANCH  15  16
BRANCH  15  18
ATOM     18  C   LIG    1       -1.675 -15.761  10.033  0.00  0.00    +0.188 C 
BRANCH  18  19
ATOM     19  O   LIG    1       -2.814 -15.027  10.438  0.00  0.00    -0.392 OA
ATOM     20  H   LIG    1       -2.650 -14.078  10.289  0.00  0.00    +0.209 HD
ENDBRANCH  18  19
ENDBRANCH  15  18
ENDBRANCH  14  15
ENDBRANCH  11  14
ENDBRANCH   4  10
BRANCH   1  23
ATOM     21  C   LIG    1        4.585  -8.935   6.388  0.00  0.00    +0.132 C 
ATOM     22  N   LIG    1        3.458  -9.742   5.876  0.00  0.00    -0.298 N 
ATOM     23  C   LIG    1        2.150  -9.212   6.028  0.00  0.00    +0.248 C 
ATOM     24  O   LIG    1        2.001  -8.158   6.617  0.00  0.00    -0.270 OA
BRANCH  22  25
ATOM     25  C   LIG    1        3.846 -10.919   5.146  0.00  0.00    +0.141 C 
BRANCH  25  26
ATOM     26  C   LIG    1        4.020 -10.822   3.603  0.00  0.00    +0.157 C 
BRANCH  26  27
ATOM     27  O   LIG    1        5.148  -9.996   3.295  0.00  0.00    -0.388 OA
ATOM     28  H   LIG    1        5.293 -10.087   2.336  0.00  0.00    +0.210 HD
ENDBRANCH  26  27
BRANCH  26  29
ATOM     29  C   LIG    1        2.840 -10.345   2.711  0.00  0.00    +0.188 C 
BRANCH  29  30
ATOM     30  O   LIG    1        2.482  -8.998   2.918  0.00  0.00    -0.392 OA
ATOM     31  H   LIG    1        3.300  -8.479   2.860  0.00  0.00    +0.209 HD
ENDBRANCH  29  30
ENDBRANCH  26  29
ENDBRANCH  25  26
ENDBRANCH  22  25
ENDBRANCH   1  23
BRANCH   7  32
ATOM     32  N   LIG    1       -2.343  -8.800   3.924  0.00  0.00    -0.283 N 
ATOM     33  H   LIG    1       -3.204  -8.841   4.451  0.00  0.00    +0.155 HD
ATOM     34  C   LIG    1       -2.384  -8.321   2.609  0.00  0.00    +0.225 C 
ATOM     35  O   LIG    1       -1.458  -8.435   1.822  0.00  0.00    -0.275 OA
BRANCH  34  36
ATOM     36  C   LIG    1       -3.715  -7.695   2.145  0.00  0.00    +0.126 C 
BRANCH  36  37
ATOM     37  C   LIG    1       -4.380  -6.885   3.256  0.00  0.00    +0.170 C 
BRANCH  37  38
ATOM     38  O   LIG    1       -3.530  -5.822   3.671  0.00  0.00    -0.394 OA
ATOM     39  H   LIG    1       -3.455  -5.195   2.929  0.00  0.00    +0.209 HD
ENDBRANCH  37  38
ENDBRANCH  36  37
BRANCH  36  40
ATOM     40  C   LIG    1       -4.661  -8.741   1.544  0.00  0.00    +0.170 C 
BRANCH  40  41
ATOM     41  O   LIG    1       -5.883  -8.116   1.145  0.00  0.00    -0.394 OA
ATOM     42  H   LIG    1       -6.557  -8.811   1.032  0.00  0.00    +0.209 HD
ENDBRANCH  40  41
ENDBRANCH  36  40
ENDBRANCH  34  36
ENDBRANCH   7  32
TORSDOF 18
