REMARK  Name = *****
REMARK                            x       y       z     vdW  Elec       q    Type
REMARK                         _______ _______ _______ _____ _____    ______ ____
ROOT
ATOM      1  C   LIG    1        3.505  -1.012  -0.653  0.00  0.00    +0.053 C 
ATOM      2  C   LIG    1        2.612  -0.456   0.453  0.00  0.00    +0.187 C 
ENDROOT
BRANCH   2   3
ATOM      3  O   LIG    1        1.240  -0.694   0.079  0.00  0.00    -0.457 OA
BRANCH   3   4
ATOM      4  C   LIG    1        0.486  -1.436   0.929  0.00  0.00    +0.340 C 
ATOM      5  O   LIG    1        0.818  -1.878   2.011  0.00  0.00    -0.245 OA
BRANCH   4   6
ATOM      6  C   LIG    1       -0.867  -1.603   0.343  0.00  0.00    +0.059 A 
ATOM      7  C   LIG    1       -1.968  -1.772   1.192  0.00  0.00    +0.015 A 
ATOM      8  C   LIG    1       -3.246  -1.925   0.649  0.00  0.00    +0.001 A 
ATOM      9  C   LIG    1       -3.423  -1.923  -0.736  0.00  0.00    +0.000 A 
ATOM     10  C   LIG    1       -2.326  -1.772  -1.583  0.00  0.00    +0.001 A 
ATOM     11  C   LIG    1       -1.049  -1.613  -1.046  0.00  0.00    +0.015 A 
ENDBRANCH   4   6
ENDBRANCH   3   4
ENDBRANCH   2   3
BRANCH   2  12
ATOM     12  C   LIG    1        2.826   1.056   0.679  0.00  0.00    +0.125 C 
BRANCH  12  13
ATOM     13  N   LIG    1        2.591   1.857  -0.532  0.00  0.00    -0.310 NA
ATOM     14  H   LIG    1        1.637   1.681  -0.853  0.00  0.00    +0.122 HD
BRANCH  13  15
ATOM     15  C   LIG    1        2.793   3.303  -0.342  0.00  0.00    +0.054 C 
ATOM     16  C   LIG    1        4.230   3.666   0.074  0.00  0.00    +0.019 C 
ATOM     17  C   LIG    1        5.249   3.281  -0.998  0.00  0.00    +0.002 C 
ATOM     18  C   LIG    1        4.931   3.963  -2.326  0.00  0.00    +0.000 C 
ATOM     19  C   LIG    1        3.488   3.730  -2.772  0.00  0.00    +0.002 C 
ATOM     20  C   LIG    1        2.478   4.037  -1.662  0.00  0.00    +0.019 C 
ENDBRANCH  13  15
ENDBRANCH  12  13
ENDBRANCH   2  12
TORSDOF 6
