REMARK  Name = *****
REMARK                            x       y       z     vdW  Elec       q    Type
REMARK                         _______ _______ _______ _____ _____    ______ ____
ROOT
ATOM      1  C   LIG    1        4.324   1.802   3.958  0.00  0.00    +0.106 C 
ENDROOT
BRANCH   1   2
ATOM      2  C   LIG    1        3.279   1.433   5.095  0.00  0.00    +0.026 C 
ATOM      3  C   LIG    1        3.244   2.359   6.332  0.00  0.00    +0.007 C 
ATOM      4  C   LIG    1        2.321   3.577   6.243  0.00  0.00    +0.000 C 
ATOM      5  C   LIG    1        0.935   3.286   5.677  0.00  0.00    +0.000 C 
ATOM      6  C   LIG    1        0.972   2.409   4.440  0.00  0.00    +0.000 C 
ATOM      7  C   LIG    1        1.820   1.158   4.651  0.00  0.00    +0.007 C 
ENDBRANCH   1   2
BRANCH   1   8
ATOM      8  C   LIG    1        3.980   3.067   3.152  0.00  0.00    -0.015 A 
ATOM      9  C   LIG    1        3.150   3.019   2.018  0.00  0.00    +0.006 A 
ATOM     10  C   LIG    1        2.762   4.172   1.329  0.00  0.00    +0.000 A 
ATOM     11  C   LIG    1        3.249   5.416   1.735  0.00  0.00    +0.000 A 
ATOM     12  C   LIG    1        4.099   5.494   2.822  0.00  0.00    +0.000 A 
ATOM     13  C   LIG    1        4.456   4.343   3.531  0.00  0.00    +0.006 A 
ENDBRANCH   1   8
BRANCH   1  14
ATOM     14  O   LIG    1        4.385   0.714   2.995  0.00  0.00    -0.382 OA
ATOM     15  H   LIG    1        3.476   0.481   2.753  0.00  0.00    +0.211 HD
ENDBRANCH   1  14
BRANCH   1  16
ATOM     16  C   LIG    1        5.819   1.888   4.509  0.00  0.00    +0.124 C 
BRANCH  16  21
ATOM     17  C   LIG    1        9.838  -0.126   2.716  0.00  0.00    +0.192 C 
ATOM     18  N   LIG    1        8.938  -0.260   3.941  0.00  0.00    +0.241 N 
ATOM     19  C   LIG    1        7.508  -0.620   3.460  0.00  0.00    +0.148 C 
ATOM     20  C   LIG    1        6.476  -0.522   4.604  0.00  0.00    +0.135 C 
ATOM     21  N   LIG    1        6.420   0.775   5.301  0.00  0.00    -0.289 NA
ATOM     22  C   LIG    1        7.782   1.138   5.764  0.00  0.00    +0.135 C 
ATOM     23  C   LIG    1        8.901   1.089   4.691  0.00  0.00    +0.148 C 
ATOM     24  C   LIG    1        9.506  -1.359   4.833  0.00  0.00    +0.192 C 
ENDBRANCH  16  21
ENDBRANCH   1  16
TORSDOF 5
