REMARK  Name = *****
REMARK                            x       y       z     vdW  Elec       q    Type
REMARK                         _______ _______ _______ _____ _____    ______ ____
ROOT
ATOM      1  C   LIG    1        8.386  -3.041  -0.789  0.00  0.00    +0.069 C 
ATOM      2  C   LIG    1        9.805  -2.518  -0.484  0.00  0.00    +0.113 C 
ATOM      3  C   LIG    1       10.482  -3.363   0.641  0.00  0.00    +0.141 C 
ATOM      4  N   LIG    1       10.965  -2.405   1.694  0.00  0.00    -0.231 NA
ATOM      5  C   LIG    1       10.579  -1.269   1.218  0.00  0.00    +0.276 C 
ATOM      6  C   LIG    1        9.494  -4.359   1.222  0.00  0.00    +0.098 C 
ATOM      7  N   LIG    1        9.855  -1.186   0.086  0.00  0.00    -0.294 N 
ATOM      8  H   LIG    1       10.078  -0.397  -0.506  0.00  0.00    +0.151 HD
ATOM      9  S   LIG    1        8.429  -4.761  -0.179  0.00  0.00    -0.153 S 
ENDROOT
BRANCH   5  10
ATOM     10  O   LIG    1       10.899  -0.122   1.802  0.00  0.00    -0.482 OA
ATOM     11  H   LIG    1       11.396  -0.340   2.607  0.00  0.00    +0.295 HD
ENDBRANCH   5  10
BRANCH   1  12
ATOM     12  C   LIG    1        7.218  -2.236  -0.178  0.00  0.00    +0.016 C 
BRANCH  12  13
ATOM     13  C   LIG    1        5.825  -2.814  -0.493  0.00  0.00    +0.002 C 
BRANCH  13  14
ATOM     14  C   LIG    1        4.703  -1.975   0.127  0.00  0.00    +0.011 C 
BRANCH  14  15
ATOM     15  C   LIG    1        3.318  -2.552  -0.182  0.00  0.00    +0.120 C 
BRANCH  15  17
ATOM     16  O   LIG    1        2.396  -0.680   1.062  0.00  0.00    -0.251 OA
ATOM     17  C   LIG    1        2.221  -1.703   0.425  0.00  0.00    +0.305 C 
BRANCH  17  18
ATOM     18  O   LIG    1        0.985  -2.197   0.182  0.00  0.00    -0.481 OA
ATOM     19  H   LIG    1        0.979  -3.021  -0.340  0.00  0.00    +0.295 HD
ENDBRANCH  17  18
ENDBRANCH  15  17
ENDBRANCH  14  15
ENDBRANCH  13  14
ENDBRANCH  12  13
ENDBRANCH   1  12
TORSDOF 7
