REMARK  Name = *****
REMARK                            x       y       z     vdW  Elec       q    Type
REMARK                         _______ _______ _______ _____ _____    ______ ____
ROOT
ATOM      1  O   LIG    1        6.933  -4.720   0.390  0.00  0.00    -0.471 OA
ENDROOT
BRANCH   1   2
ATOM      2  C   LIG    1        8.243  -4.720   0.755  0.00  0.00    +0.265 A 
ATOM      3  C   LIG    1        9.072  -5.897   1.075  0.00  0.00    +0.194 A 
ATOM      4  N   LIG    1       10.312  -5.553   1.438  0.00  0.00    -0.172 NA
ATOM      5  S   LIG    1       10.412  -3.898   1.340  0.00  0.00    +0.121 S 
ATOM      6  N   LIG    1        8.863  -3.533   0.867  0.00  0.00    -0.153 NA
BRANCH   3   7
ATOM      7  N   LIG    1        8.662  -7.224   1.067  0.00  0.00    -0.306 N 
ATOM      8  C   LIG    1        9.717  -8.253   1.252  0.00  0.00    +0.135 C 
ATOM      9  C   LIG    1        9.085  -9.580   1.690  0.00  0.00    +0.178 C 
ATOM     10  O   LIG    1        8.142 -10.040   0.712  0.00  0.00    -0.377 OA
ATOM     11  C   LIG    1        7.093  -9.075   0.546  0.00  0.00    +0.178 C 
ATOM     12  C   LIG    1        7.620  -7.686   0.132  0.00  0.00    +0.135 C 
ENDBRANCH   3   7
ENDBRANCH   1   2
BRANCH   1  13
ATOM     13  C   LIG    1        6.379  -3.422   0.100  0.00  0.00    +0.263 C 
BRANCH  13  14
ATOM     14  C   LIG    1        4.898  -3.542  -0.309  0.00  0.00    +0.166 C 
BRANCH  14  15
ATOM     15  O   LIG    1        4.767  -4.305  -1.513  0.00  0.00    -0.387 OA
ATOM     16  H   LIG    1        3.866  -4.681  -1.481  0.00  0.00    +0.210 HD
ENDBRANCH  14  15
BRANCH  14  17
ATOM     17  C   LIG    1        4.097  -4.212   0.818  0.00  0.00    +0.116 C 
BRANCH  17  18
ATOM     18  N   LIG    1        2.667  -4.404   0.493  0.00  0.00    -0.309 NA
ATOM     19  H   LIG    1        2.242  -3.495   0.296  0.00  0.00    +0.122 HD
BRANCH  18  21
ATOM     20  C   LIG    1        1.938  -4.225   2.884  0.00  0.00    +0.027 C 
ATOM     21  C   LIG    1        1.910  -5.062   1.590  0.00  0.00    +0.011 C 
ATOM     22  C   LIG    1        0.438  -5.202   1.150  0.00  0.00    +0.027 C 
ATOM     23  C   LIG    1        2.450  -6.477   1.867  0.00  0.00    +0.027 C 
ENDBRANCH  18  21
ENDBRANCH  17  18
ENDBRANCH  14  17
ENDBRANCH  13  14
ENDBRANCH   1  13
TORSDOF 8
