REMARK  Name = *****
REMARK                            x       y       z     vdW  Elec       q    Type
REMARK                         _______ _______ _______ _____ _____    ______ ____
ROOT
ATOM      1  C   LIG    1        0.610  -4.113   0.401  0.00  0.00    +0.098 C 
ENDROOT
BRANCH   1   2
ATOM      2  C   LIG    1       -0.959  -3.943   0.452  0.00  0.00    -0.028 A 
ATOM      3  C   LIG    1       -1.610  -2.735   0.121  0.00  0.00    +0.005 A 
ATOM      4  C   LIG    1       -3.005  -2.654   0.019  0.00  0.00    +0.000 A 
ATOM      5  C   LIG    1       -3.790  -3.778   0.240  0.00  0.00    +0.000 A 
ATOM      6  C   LIG    1       -3.181  -4.982   0.580  0.00  0.00    +0.000 A 
ATOM      7  C   LIG    1       -1.786  -5.062   0.700  0.00  0.00    +0.005 A 
ENDBRANCH   1   2
BRANCH   1   8
ATOM      8  C   LIG    1        1.157  -4.771   1.716  0.00  0.00    -0.028 A 
ATOM      9  C   LIG    1        2.007  -5.897   1.694  0.00  0.00    +0.005 A 
ATOM     10  C   LIG    1        2.524  -6.469   2.864  0.00  0.00    +0.000 A 
ATOM     11  C   LIG    1        2.197  -5.939   4.103  0.00  0.00    +0.000 A 
ATOM     12  C   LIG    1        1.355  -4.832   4.166  0.00  0.00    +0.000 A 
ATOM     13  C   LIG    1        0.843  -4.252   2.991  0.00  0.00    +0.005 A 
ENDBRANCH   1   8
BRANCH   1  14
ATOM     14  C   LIG    1        1.000  -4.955  -0.886  0.00  0.00    +0.225 C 
ATOM     15  O   LIG    1        2.153  -5.200  -1.219  0.00  0.00    -0.275 OA
ATOM     16  N   LIG    1        0.027  -5.450  -1.701  0.00  0.00    -0.328 N 
ATOM     17  H   LIG    1        0.350  -5.941  -2.522  0.00  0.00    +0.145 HD
ATOM     18  H   LIG    1       -0.914  -5.081  -1.711  0.00  0.00    +0.145 HD
ENDBRANCH   1  14
BRANCH   1  19
ATOM     19  C   LIG    1        1.315  -2.719   0.179  0.00  0.00    +0.047 C 
BRANCH  19  20
ATOM     20  C   LIG    1        2.845  -2.710   0.020  0.00  0.00    +0.124 C 
BRANCH  20  23
ATOM     21  C   LIG    1        3.251  -1.284  -2.741  0.00  0.00    +0.086 C 
ATOM     22  C   LIG    1        3.550  -0.713  -1.402  0.00  0.00    +0.106 A 
ATOM     23  N   LIG    1        3.353  -1.359  -0.199  0.00  0.00    -0.335 N 
ATOM     24  C   LIG    1        3.748  -0.511   0.799  0.00  0.00    +0.107 A 
ATOM     25  C   LIG    1        4.165   0.628   0.159  0.00  0.00    +0.130 A 
ATOM     26  N   LIG    1        4.035   0.497  -1.196  0.00  0.00    -0.241 NA
ENDBRANCH  20  23
ENDBRANCH  19  20
ENDBRANCH   1  19
TORSDOF 6
