REMARK  Name = *****
REMARK                            x       y       z     vdW  Elec       q    Type
REMARK                         _______ _______ _______ _____ _____    ______ ____
ROOT
ATOM      1  N   LIG    1        2.865   1.099   0.842  0.00  0.00    -0.344 NA
ATOM      2  C   LIG    1        2.531   2.439   0.508  0.00  0.00    +0.090 C 
ATOM      3  C   LIG    1        2.938   3.473   1.374  0.00  0.00    +0.052 C 
ATOM      4  C   LIG    1        2.671   4.812   1.093  0.00  0.00    +0.054 C 
ATOM      5  C   LIG    1        1.974   5.154  -0.059  0.00  0.00    +0.148 C 
ATOM      6  C   LIG    1        1.494   4.195  -0.972  0.00  0.00    +0.103 C 
ATOM      7  F   LIG    1        1.757   6.465  -0.237  0.00  0.00    -0.203 F 
ATOM      8  C   LIG    1        3.700   3.162   2.605  0.00  0.00    +0.203 C 
ATOM      9  O   LIG    1        4.120   4.048   3.347  0.00  0.00    -0.286 OA
ATOM     10  C   LIG    1        3.981   1.753   2.913  0.00  0.00    +0.122 C 
ATOM     11  C   LIG    1        1.813   2.843  -0.648  0.00  0.00    +0.171 C 
ATOM     12  F   LIG    1        1.447   1.895  -1.525  0.00  0.00    -0.201 F 
ATOM     13  C   LIG    1        3.562   0.848   2.020  0.00  0.00    +0.105 C 
ENDROOT
BRANCH   6  14
ATOM     14  N   LIG    1        0.802   4.525  -2.153  0.00  0.00    -0.323 NA
ATOM     15  C   LIG    1       -0.368   3.708  -2.558  0.00  0.00    +0.123 C 
ATOM     16  C   LIG    1       -1.704   4.303  -2.026  0.00  0.00    +0.068 C 
ATOM     17  C   LIG    1       -1.889   4.052  -0.527  0.00  0.00    +0.025 C 
ATOM     18  N   LIG    1       -1.890   5.738  -2.359  0.00  0.00    -0.310 NA
ATOM     19  H   LIG    1       -2.006   5.804  -3.371  0.00  0.00    +0.122 HD
ATOM     20  C   LIG    1       -0.685   6.523  -2.002  0.00  0.00    +0.100 C 
ATOM     21  C   LIG    1        0.628   5.935  -2.569  0.00  0.00    +0.120 C 
ENDBRANCH   6  14
BRANCH   1  23
ATOM     22  C   LIG    1        3.722  -0.156  -1.113  0.00  0.00    +0.027 C 
ATOM     23  C   LIG    1        2.599  -0.013  -0.094  0.00  0.00    +0.118 C 
ENDBRANCH   1  23
BRANCH  10  24
ATOM     24  C   LIG    1        4.731   1.304   4.104  0.00  0.00    +0.342 C 
ATOM     25  O   LIG    1        4.751   0.149   4.487  0.00  0.00    -0.245 OA
BRANCH  24  26
ATOM     26  O   LIG    1        5.436   2.284   4.713  0.00  0.00    -0.477 OA
ATOM     27  H   LIG    1        5.257   3.187   4.357  0.00  0.00    +0.295 HD
ENDBRANCH  24  26
ENDBRANCH  10  24
TORSDOF 4
