REMARK  Name = *****
REMARK                            x       y       z     vdW  Elec       q    Type
REMARK                         _______ _______ _______ _____ _____    ______ ____
ROOT
ATOM      1  C   LIG    1        0.832   7.611   8.226  0.00  0.00    +0.014 C 
ATOM      2  C   LIG    1       -0.203   6.795   7.442  0.00  0.00    +0.037 C 
ATOM      3  C   LIG    1        0.501   5.913   6.352  0.00  0.00    +0.127 C 
ATOM      4  C   LIG    1        0.354   6.457   4.902  0.00  0.00    +0.056 C 
ATOM      5  C   LIG    1        0.760   7.937   4.788  0.00  0.00    +0.014 C 
ATOM      6  C   LIG    1        1.123   5.664   3.793  0.00  0.00    +0.179 C 
ATOM      7  C   LIG    1        1.648   4.273   4.131  0.00  0.00    +0.052 C 
ATOM      8  O   LIG    1        0.205   5.473   2.685  0.00  0.00    -0.461 OA
ATOM      9  C   LIG    1        0.343   6.265   1.592  0.00  0.00    +0.310 C 
ATOM     10  O   LIG    1        1.177   7.148   1.446  0.00  0.00    -0.251 OA
ATOM     11  C   LIG    1       -0.724   5.946   0.577  0.00  0.00    +0.152 C 
ATOM     12  C   LIG    1       -0.260   4.994  -0.523  0.00  0.00    +0.128 C 
ATOM     13  C   LIG    1        0.114   3.567  -0.081  0.00  0.00    +0.063 C 
ATOM     14  C   LIG    1       -1.012   2.533  -0.265  0.00  0.00    +0.119 C 
ATOM     15  C   LIG    1       -2.166   2.625   0.743  0.00  0.00    +0.062 C 
ATOM     16  C   LIG    1       -2.015   1.786   2.021  0.00  0.00    +0.117 C 
ATOM     17  C   LIG    1       -2.981   2.232   3.131  0.00  0.00    +0.034 C 
ATOM     18  C   LIG    1       -2.498   3.440   3.945  0.00  0.00    +0.036 C 
ATOM     19  C   LIG    1       -3.518   4.030   4.937  0.00  0.00    +0.143 C 
ATOM     20  C   LIG    1       -4.142   3.076   5.984  0.00  0.00    +0.150 C 
ATOM     21  C   LIG    1       -3.133   2.179   6.692  0.00  0.00    +0.108 C 
ATOM     22  C   LIG    1       -3.771   1.480   7.872  0.00  0.00    +0.138 C 
ATOM     23  O   LIG    1       -4.129   2.131   8.857  0.00  0.00    -0.297 OA
ATOM     24  C   LIG    1       -3.882  -0.040   7.856  0.00  0.00    +0.106 C 
ATOM     25  C   LIG    1       -4.924  -0.653   6.905  0.00  0.00    +0.138 C 
ATOM     26  C   LIG    1       -4.471  -0.891   5.451  0.00  0.00    +0.155 C 
ATOM     27  C   LIG    1       -5.509  -1.593   4.526  0.00  0.00    +0.134 C 
ATOM     28  C   LIG    1       -5.536  -0.955   3.106  0.00  0.00    +0.068 C 
ATOM     29  C   LIG    1       -6.884  -0.441   2.552  0.00  0.00    +0.147 C 
ATOM     30  C   LIG    1       -7.372   0.706   3.411  0.00  0.00    +0.004 C 
ATOM     31  C   LIG    1       -8.525   0.765   4.102  0.00  0.00    -0.002 C 
ATOM     32  C   LIG    1       -8.752   1.673   5.207  0.00  0.00    -0.000 C 
ATOM     33  C   LIG    1       -8.285   2.924   5.322  0.00  0.00    +0.000 C 
ATOM     34  C   LIG    1       -8.293   3.615   6.594  0.00  0.00    +0.000 C 
ATOM     35  C   LIG    1       -7.650   4.773   6.802  0.00  0.00    -0.000 C 
ATOM     36  C   LIG    1       -7.489   5.374   8.107  0.00  0.00    -0.004 C 
ATOM     37  C   LIG    1       -6.981   4.710   9.159  0.00  0.00    -0.026 C 
ATOM     38  C   LIG    1       -6.734   5.322  10.510  0.00  0.00    +0.031 C 
ATOM     39  C   LIG    1       -5.263   5.253  10.948  0.00  0.00    +0.031 C 
ATOM     40  C   LIG    1       -4.344   6.040  10.053  0.00  0.00    -0.026 C 
ATOM     41  C   LIG    1       -3.159   5.586   9.616  0.00  0.00    -0.005 C 
ATOM     42  C   LIG    1       -2.320   6.351   8.726  0.00  0.00    -0.004 C 
ATOM     43  C   LIG    1       -1.056   6.013   8.426  0.00  0.00    -0.021 C 
ENDROOT
BRANCH   3  44
ATOM     44  O   LIG    1       -0.050   4.589   6.376  0.00  0.00    -0.391 OA
ATOM     45  H   LIG    1       -1.016   4.692   6.338  0.00  0.00    +0.210 HD
ENDBRANCH   3  44
BRANCH  12  46
ATOM     46  O   LIG    1        0.872   5.548  -1.203  0.00  0.00    -0.391 OA
ATOM     47  H   LIG    1        0.738   6.504  -1.324  0.00  0.00    +0.210 HD
ENDBRANCH  12  46
BRANCH  14  48
ATOM     48  O   LIG    1       -0.445   1.221  -0.228  0.00  0.00    -0.392 OA
ATOM     49  H   LIG    1       -0.006   1.149   0.645  0.00  0.00    +0.210 HD
ENDBRANCH  14  48
BRANCH  16  50
ATOM     50  O   LIG    1       -0.670   1.793   2.489  0.00  0.00    -0.392 OA
ATOM     51  H   LIG    1       -0.630   1.190   3.254  0.00  0.00    +0.210 HD
ENDBRANCH  16  50
BRANCH  19  52
ATOM     52  O   LIG    1       -4.582   4.619   4.173  0.00  0.00    -0.389 OA
ATOM     53  H   LIG    1       -5.263   3.917   4.122  0.00  0.00    +0.210 HD
ENDBRANCH  19  52
BRANCH  20  54
ATOM     54  O   LIG    1       -5.115   2.281   5.295  0.00  0.00    -0.389 OA
ATOM     55  H   LIG    1       -5.704   1.885   5.981  0.00  0.00    +0.210 HD
ENDBRANCH  20  54
BRANCH  25  56
ATOM     56  O   LIG    1       -6.077   0.199   6.903  0.00  0.00    -0.391 OA
ATOM     57  H   LIG    1       -6.762  -0.304   6.402  0.00  0.00    +0.210 HD
ENDBRANCH  25  56
BRANCH  26  58
ATOM     58  C   LIG    1       -3.169  -1.644   5.353  0.00  0.00    +0.313 C 
ATOM     59  O   LIG    1       -2.277  -1.393   4.561  0.00  0.00    -0.251 OA
BRANCH  58  60
ATOM     60  O   LIG    1       -3.067  -2.680   6.201  0.00  0.00    -0.480 OA
ATOM     61  H   LIG    1       -2.196  -3.091   6.007  0.00  0.00    +0.295 HD
ENDBRANCH  58  60
ENDBRANCH  26  58
BRANCH  27  62
ATOM     62  O   LIG    1       -6.792  -1.639   5.149  0.00  0.00    -0.391 OA
ATOM     63  H   LIG    1       -7.417  -2.064   4.524  0.00  0.00    +0.210 HD
ENDBRANCH  27  62
BRANCH  29  64
ATOM     64  O   LIG    1       -7.904  -1.437   2.485  0.00  0.00    -0.341 OA
BRANCH  64  65
ATOM     65  C   LIG    1       -7.597  -2.588   1.694  0.00  0.00    +0.281 C 
ATOM     66  C   LIG    1       -8.714  -3.639   1.862  0.00  0.00    +0.189 C 
ATOM     67  C   LIG    1       -9.993  -3.243   1.100  0.00  0.00    +0.116 C 
ATOM     68  C   LIG    1       -9.630  -2.880  -0.354  0.00  0.00    +0.162 C 
ATOM     69  C   LIG    1       -8.445  -1.905  -0.486  0.00  0.00    +0.148 C 
ATOM     70  C   LIG    1       -8.817  -0.436  -0.322  0.00  0.00    +0.040 C 
ATOM     71  O   LIG    1       -7.327  -2.287   0.327  0.00  0.00    -0.343 OA
BRANCH  67  72
ATOM     72  N   LIG    1      -10.748  -2.219   1.855  0.00  0.00    -0.323 NA
ATOM     73  H   LIG    1      -10.148  -1.412   2.047  0.00  0.00    +0.119 HD
ATOM     74  H   LIG    1      -11.526  -1.877   1.289  0.00  0.00    +0.119 HD
ENDBRANCH  67  72
BRANCH  66  75
ATOM     75  O   LIG    1       -9.014  -3.837   3.255  0.00  0.00    -0.385 OA
ATOM     76  H   LIG    1       -9.808  -3.279   3.411  0.00  0.00    +0.210 HD
ENDBRANCH  66  75
BRANCH  68  77
ATOM     77  O   LIG    1       -9.292  -4.102  -1.038  0.00  0.00    -0.388 OA
ATOM     78  H   LIG    1       -8.329  -4.240  -0.965  0.00  0.00    +0.210 HD
ENDBRANCH  68  77
ENDBRANCH  64  65
ENDBRANCH  29  64
TORSDOF 15
