REMARK  Name = *****
REMARK                            x       y       z     vdW  Elec       q    Type
REMARK                         _______ _______ _______ _____ _____    ______ ____
ROOT
ATOM      1  C   LIG    1        1.695  -2.691  -9.549  0.00  0.00    +0.009 A 
ATOM      2  C   LIG    1        2.939  -2.145  -9.188  0.00  0.00    +0.039 A 
ATOM      3  C   LIG    1        3.949  -1.828 -10.131  0.00  0.00    +0.049 A 
ATOM      4  N   LIG    1        5.226  -1.300  -9.757  0.00  0.00    -0.298 N 
ATOM      5  C   LIG    1        6.289  -0.982 -10.659  0.00  0.00    +0.048 A 
ATOM      6  C   LIG    1        6.157  -1.147 -12.055  0.00  0.00    +0.034 A 
ATOM      7  S   LIG    1        4.691  -1.746 -12.850  0.00  0.00    -0.086 S 
ATOM      8  C   LIG    1        7.216  -0.834 -12.932  0.00  0.00    +0.017 A 
ATOM      9  C   LIG    1        8.429  -0.355 -12.461  0.00  0.00    +0.001 A 
ATOM     10  C   LIG    1        8.593  -0.186 -11.096  0.00  0.00    +0.002 A 
ATOM     11  C   LIG    1        7.543  -0.494 -10.224  0.00  0.00    +0.024 A 
ATOM     12  C   LIG    1        3.616  -2.079 -11.480  0.00  0.00    +0.034 A 
ATOM     13  C   LIG    1        2.363  -2.616 -11.843  0.00  0.00    +0.018 A 
ATOM     14  C   LIG    1        1.406  -2.922 -10.885  0.00  0.00    +0.016 A 
ENDROOT
BRANCH   1  16
ATOM     15  C   LIG    1        0.912  -4.782  -7.970  0.00  0.00    +0.090 C 
ATOM     16  S   LIG    1        0.473  -3.055  -8.300  0.00  0.00    -0.129 S 
ENDBRANCH   1  16
BRANCH   4  17
ATOM     17  C   LIG    1        5.462  -1.013  -8.314  0.00  0.00    +0.112 C 
BRANCH  17  18
ATOM     18  C   LIG    1        5.034   0.420  -7.949  0.00  0.00    +0.038 C 
BRANCH  18  19
ATOM     19  C   LIG    1        5.243   0.809  -6.459  0.00  0.00    +0.058 C 
ATOM     20  N   LIG    1        6.667   0.844  -6.031  0.00  0.00    -0.302 NA
ATOM     21  C   LIG    1        7.444   1.837  -6.788  0.00  0.00    +0.105 C 
ATOM     22  C   LIG    1        6.790   1.170  -4.595  0.00  0.00    +0.084 C 
ATOM     23  C   LIG    1        6.043   0.174  -3.716  0.00  0.00    +0.015 C 
ATOM     24  C   LIG    1        4.569   0.156  -4.077  0.00  0.00    +0.003 C 
ATOM     25  C   LIG    1        4.410  -0.138  -5.562  0.00  0.00    +0.019 C 
ENDBRANCH  18  19
ENDBRANCH  17  18
ENDBRANCH   4  17
TORSDOF 4
