REMARK  Name = *****
REMARK                            x       y       z     vdW  Elec       q    Type
REMARK                         _______ _______ _______ _____ _____    ______ ____
ROOT
ATOM      1  C   LIG    1        2.271  -2.862  -0.786  0.00  0.00    +0.213 C 
ENDROOT
BRANCH   1   2
ATOM      2  C   LIG    1        2.121  -4.382  -0.560  0.00  0.00    -0.001 A 
ATOM      3  C   LIG    1        0.877  -4.922  -0.169  0.00  0.00    +0.007 A 
ATOM      4  C   LIG    1        0.705  -6.300  -0.008  0.00  0.00    +0.000 A 
ATOM      5  C   LIG    1        1.762  -7.169  -0.258  0.00  0.00    +0.000 A 
ATOM      6  C   LIG    1        2.993  -6.662  -0.662  0.00  0.00    +0.000 A 
ATOM      7  C   LIG    1        3.172  -5.283  -0.814  0.00  0.00    +0.007 A 
ENDBRANCH   1   2
BRANCH   1   8
ATOM      8  C   LIG    1        1.732  -2.415  -2.162  0.00  0.00    -0.001 A 
ATOM      9  C   LIG    1        1.886  -3.217  -3.308  0.00  0.00    +0.007 A 
ATOM     10  C   LIG    1        1.332  -2.840  -4.535  0.00  0.00    +0.000 A 
ATOM     11  C   LIG    1        0.649  -1.633  -4.654  0.00  0.00    +0.000 A 
ATOM     12  C   LIG    1        0.529  -0.796  -3.549  0.00  0.00    +0.000 A 
ATOM     13  C   LIG    1        1.063  -1.183  -2.316  0.00  0.00    +0.007 A 
ENDBRANCH   1   8
BRANCH   1  14
ATOM     14  C   LIG    1        3.709  -2.323  -0.491  0.00  0.00    +0.349 C 
ATOM     15  O   LIG    1        4.469  -2.767   0.361  0.00  0.00    -0.247 OA
BRANCH  14  16
ATOM     16  O   LIG    1        3.992  -1.183  -1.206  0.00  0.00    -0.454 OA
BRANCH  16  20
ATOM     17  C   LIG    1        5.357   2.697  -3.094  0.00  0.00    +0.192 C 
ATOM     18  N   LIG    1        5.164   1.196  -2.841  0.00  0.00    +0.242 N 
ATOM     19  C   LIG    1        5.104   0.975  -1.308  0.00  0.00    +0.178 C 
ATOM     20  C   LIG    1        5.220  -0.501  -0.878  0.00  0.00    +0.221 C 
ATOM     21  C   LIG    1        6.410  -1.179  -1.552  0.00  0.00    +0.055 C 
ATOM     22  C   LIG    1        6.357  -1.024  -3.066  0.00  0.00    +0.055 C 
ATOM     23  C   LIG    1        6.336   0.443  -3.473  0.00  0.00    +0.133 C 
ATOM     24  C   LIG    1        3.849   0.796  -3.515  0.00  0.00    +0.192 C 
ENDBRANCH  16  20
ENDBRANCH  14  16
ENDBRANCH   1  14
BRANCH   1  25
ATOM     25  O   LIG    1        1.490  -2.190   0.239  0.00  0.00    -0.370 OA
ATOM     26  H   LIG    1        1.593  -2.721   1.051  0.00  0.00    +0.212 HD
ENDBRANCH   1  25
TORSDOF 6
