REMARK  Name = *****
REMARK                            x       y       z     vdW  Elec       q    Type
REMARK                         _______ _______ _______ _____ _____    ______ ____
ROOT
ATOM      1  C   LIG    1        4.147  -4.833  -7.662  0.00  0.00    +0.054 C 
ENDROOT
BRANCH   1   3
ATOM      2  C   LIG    1        6.468  -5.918  -8.123  0.00  0.00    -0.027 C 
ATOM      3  C   LIG    1        5.351  -5.244  -8.463  0.00  0.00    -0.027 C 
BRANCH   2   4
ATOM      4  C   LIG    1        6.916  -6.544  -6.835  0.00  0.00    +0.054 C 
BRANCH   4   6
ATOM      5  C   LIG    1        9.474  -5.816  -6.361  0.00  0.00    -0.031 C 
ATOM      6  C   LIG    1        8.164  -6.045  -6.134  0.00  0.00    -0.027 C 
BRANCH   5   7
ATOM      7  C   LIG    1       10.401  -5.882  -7.553  0.00  0.00    +0.027 C 
BRANCH   7   8
ATOM      8  C   LIG    1        9.755  -5.439  -8.856  0.00  0.00    +0.004 C 
BRANCH   8   9
ATOM      9  C   LIG    1       10.638  -5.430 -10.109  0.00  0.00    +0.000 C 
BRANCH   9  11
ATOM     10  C   LIG    1       10.631  -4.918 -12.624  0.00  0.00    +0.004 C 
ATOM     11  C   LIG    1        9.819  -4.978 -11.335  0.00  0.00    -0.003 C 
ENDBRANCH   9  11
ENDBRANCH   8   9
ENDBRANCH   7   8
ENDBRANCH   5   7
ENDBRANCH   4   6
ENDBRANCH   2   4
ENDBRANCH   1   3
BRANCH   1  12
ATOM     12  C   LIG    1        4.161  -3.375  -7.284  0.00  0.00    -0.027 C 
ATOM     13  C   LIG    1        4.594  -2.838  -6.124  0.00  0.00    -0.031 C 
BRANCH  13  14
ATOM     14  C   LIG    1        5.134  -3.576  -4.910  0.00  0.00    +0.027 C 
BRANCH  14  15
ATOM     15  C   LIG    1        6.582  -3.253  -4.472  0.00  0.00    +0.005 C 
BRANCH  15  16
ATOM     16  C   LIG    1        7.113  -4.030  -3.224  0.00  0.00    +0.011 C 
BRANCH  16  17
ATOM     17  C   LIG    1        6.336  -3.774  -1.926  0.00  0.00    +0.120 C 
BRANCH  17  18
ATOM     18  C   LIG    1        6.863  -4.602  -0.739  0.00  0.00    +0.305 C 
ATOM     19  O   LIG    1        7.790  -5.366  -0.755  0.00  0.00    -0.251 OA
BRANCH  18  20
ATOM     20  O   LIG    1        6.116  -4.352   0.390  0.00  0.00    -0.481 OA
ATOM     21  H   LIG    1        5.402  -3.710   0.268  0.00  0.00    +0.295 HD
ENDBRANCH  18  20
ENDBRANCH  17  18
ENDBRANCH  16  17
ENDBRANCH  15  16
ENDBRANCH  14  15
ENDBRANCH  13  14
ENDBRANCH   1  12
TORSDOF 14
