REMARK  Name = *****
REMARK                            x       y       z     vdW  Elec       q    Type
REMARK                         _______ _______ _______ _____ _____    ______ ____
ROOT
ATOM      1  O   LIG    1        2.502  -0.039  -0.876  0.00  0.00    -0.293 OA
ATOM      2  C   LIG    1        3.614   0.161  -0.383  0.00  0.00    +0.174 C 
ATOM      3  C   LIG    1        4.707   0.964  -1.123  0.00  0.00    +0.253 C 
ATOM      4  O   LIG    1        4.094   2.082  -1.842  0.00  0.00    -0.476 OA
ATOM      5  C   LIG    1        4.112   3.102  -0.919  0.00  0.00    +0.167 A 
ATOM      6  C   LIG    1        5.011   2.863   0.096  0.00  0.00    +0.014 A 
ATOM      7  C   LIG    1        5.045   3.628   1.291  0.00  0.00    -0.038 A 
ATOM      8  C   LIG    1        4.208   4.738   1.357  0.00  0.00    +0.008 A 
ATOM      9  C   LIG    1        3.356   5.039   0.271  0.00  0.00    +0.049 A 
ATOM     10  C   LIG    1        5.984   3.174   2.442  0.00  0.00    +0.057 C 
ATOM     11  C   LIG    1        6.884   2.103   1.783  0.00  0.00    +0.093 C 
ATOM     12  N   LIG    1        8.289   1.718   1.564  0.00  0.00    -0.296 NA
ATOM     13  C   LIG    1        8.494   1.771   0.046  0.00  0.00    +0.086 C 
ATOM     14  C   LIG    1        7.182   1.744  -0.901  0.00  0.00    +0.034 C 
ATOM     15  C   LIG    1        6.021   0.937   1.145  0.00  0.00    +0.096 C 
ATOM     16  C   LIG    1        4.745   0.464   1.850  0.00  0.00    +0.045 C 
ATOM     17  C   LIG    1        3.299   4.213  -0.865  0.00  0.00    +0.159 A 
ATOM     18  C   LIG    1        5.768   1.571  -0.201  0.00  0.00    +0.075 C 
ATOM     19  C   LIG    1        3.975  -0.492   0.938  0.00  0.00    +0.081 C 
ENDROOT
BRANCH  15  20
ATOM     20  O   LIG    1        6.795  -0.269   0.975  0.00  0.00    -0.386 OA
ATOM     21  H   LIG    1        7.656  -0.074   1.409  0.00  0.00    +0.210 HD
ENDBRANCH  15  20
BRANCH  17  22
ATOM     22  O   LIG    1        2.436   4.470  -1.885  0.00  0.00    -0.503 OA
ATOM     23  H   LIG    1        1.893   5.240  -1.657  0.00  0.00    +0.292 HD
ENDBRANCH  17  22
BRANCH  12  24
ATOM     24  C   LIG    1        9.217   2.589   2.292  0.00  0.00    +0.088 C 
BRANCH  24  25
ATOM     25  C   LIG    1       10.629   2.114   2.123  0.00  0.00    +0.003 C 
ATOM     26  C   LIG    1       11.601   2.874   1.253  0.00  0.00    +0.005 C 
ATOM     27  C   LIG    1       11.759   2.896   2.746  0.00  0.00    +0.005 C 
ENDBRANCH  24  25
ENDBRANCH  12  24
TORSDOF 4
