REMARK  Name = *****
REMARK                            x       y       z     vdW  Elec       q    Type
REMARK                         _______ _______ _______ _____ _____    ______ ____
ROOT
ATOM      1  C   LIG    1        3.253  -1.651   0.236  0.00  0.00    +0.044 C 
ATOM      2  C   LIG    1        2.728  -0.243   0.343  0.00  0.00    -0.050 C 
ATOM      3  C   LIG    1        1.556   0.139   0.895  0.00  0.00    +0.003 C 
ENDROOT
BRANCH   2   4
ATOM      4  C   LIG    1        3.603   0.753  -0.252  0.00  0.00    +0.003 C 
ATOM      5  C   LIG    1        4.095   1.801   0.429  0.00  0.00    +0.004 C 
BRANCH   5   6
ATOM      6  C   LIG    1        4.955   2.829  -0.146  0.00  0.00    -0.043 C 
ATOM      7  C   LIG    1        6.359   2.968   0.484  0.00  0.00    -0.010 C 
ATOM      8  C   LIG    1        6.329   2.950   2.031  0.00  0.00    +0.016 C 
ATOM      9  C   LIG    1        7.243   1.793   0.010  0.00  0.00    +0.016 C 
ATOM     10  C   LIG    1        7.023   4.311   0.076  0.00  0.00    +0.011 C 
ATOM     11  C   LIG    1        6.878   4.599  -1.409  0.00  0.00    +0.005 C 
ATOM     12  C   LIG    1        5.407   4.682  -1.793  0.00  0.00    +0.031 C 
ATOM     13  C   LIG    1        4.529   3.626  -1.159  0.00  0.00    -0.069 C 
ATOM     14  C   LIG    1        3.143   3.586  -1.762  0.00  0.00    +0.039 C 
ENDBRANCH   5   6
ENDBRANCH   2   4
BRANCH   3  15
ATOM     15  C   LIG    1        0.579  -0.733   1.498  0.00  0.00    +0.001 C 
ATOM     16  C   LIG    1       -0.578  -0.302   2.031  0.00  0.00    +0.003 C 
BRANCH  16  17
ATOM     17  C   LIG    1       -1.549  -1.191   2.646  0.00  0.00    -0.052 C 
ATOM     18  C   LIG    1       -2.868  -0.901   2.685  0.00  0.00    +0.004 C 
ATOM     19  C   LIG    1       -1.018  -2.442   3.302  0.00  0.00    +0.043 C 
BRANCH  18  20
ATOM     20  C   LIG    1       -3.551   0.261   2.037  0.00  0.00    +0.183 C 
BRANCH  20  21
ATOM     21  O   LIG    1       -4.870  -0.130   1.675  0.00  0.00    -0.391 OA
ATOM     22  H   LIG    1       -4.794  -0.960   1.174  0.00  0.00    +0.210 HD
ENDBRANCH  20  21
ENDBRANCH  18  20
ENDBRANCH  16  17
ENDBRANCH   3  15
TORSDOF 6
