REMARK  Name = *****
REMARK                            x       y       z     vdW  Elec       q    Type
REMARK                         _______ _______ _______ _____ _____    ______ ____
ROOT
ATOM      1  C   LIG    1        5.608   1.502   1.542  0.00  0.00    +0.046 A 
ATOM      2  C   LIG    1        5.595   2.909   1.464  0.00  0.00    +0.043 A 
ATOM      3  C   LIG    1        6.634   3.723   1.977  0.00  0.00    +0.133 A 
ATOM      4  C   LIG    1        7.717   3.082   2.575  0.00  0.00    +0.285 A 
ATOM      5  C   LIG    1        7.766   1.691   2.689  0.00  0.00    +0.086 A 
ATOM      6  C   LIG    1        6.718   0.918   2.176  0.00  0.00    +0.030 A 
ENDROOT
BRANCH   1  11
ATOM      7  C   LIG    1        1.163   0.058   0.353  0.00  0.00    +0.041 C 
ATOM      8  C   LIG    1        2.592   0.010  -0.164  0.00  0.00    +0.107 C 
ATOM      9  C   LIG    1        3.417   1.191   0.365  0.00  0.00    +0.250 C 
ATOM     10  O   LIG    1        3.076   2.354   0.180  0.00  0.00    -0.272 OA
ATOM     11  N   LIG    1        4.551   0.707   0.996  0.00  0.00    -0.193 N 
ATOM     12  C   LIG    1        4.496  -0.670   1.005  0.00  0.00    +0.314 C 
ATOM     13  O   LIG    1        5.291  -1.493   1.437  0.00  0.00    -0.252 OA
ATOM     14  N   LIG    1        3.328  -1.080   0.404  0.00  0.00    -0.285 N 
ATOM     15  H   LIG    1        3.146  -2.066   0.259  0.00  0.00    +0.151 HD
ATOM     16  C   LIG    1        2.662  -0.020  -1.688  0.00  0.00    +0.041 C 
ENDBRANCH   1  11
BRANCH   3  17
ATOM     17  C   LIG    1        6.492   5.217   1.848  0.00  0.00    +0.424 C 
ATOM     18  F   LIG    1        5.300   5.650   2.349  0.00  0.00    -0.166 F 
ATOM     19  F   LIG    1        6.514   5.620   0.549  0.00  0.00    -0.166 F 
ATOM     20  F   LIG    1        7.434   5.949   2.491  0.00  0.00    -0.166 F 
ENDBRANCH   3  17
BRANCH   4  21
ATOM     21  N   LIG    1        8.858   3.824   3.075  0.00  0.00    +0.080 N 
ATOM     22  O   LIG    1        9.564   4.389   2.233  0.00  0.00    -0.576 OA
ATOM     23  O   LIG    1        9.055   3.789   4.296  0.00  0.00    +0.042 OA
ENDBRANCH   4  21
TORSDOF 3
