REMARK  Name = *****
REMARK                            x       y       z     vdW  Elec       q    Type
REMARK                         _______ _______ _______ _____ _____    ______ ____
ROOT
ATOM      1  C   LIG    1        6.938   2.908   1.574  0.00  0.00    -0.045 C 
ATOM      2  C   LIG    1        7.567   2.367   2.715  0.00  0.00    +0.014 C 
ATOM      3  C   LIG    1        8.974   2.241   2.755  0.00  0.00    +0.003 C 
ATOM      4  C   LIG    1        9.696   2.688   1.647  0.00  0.00    +0.047 C 
ATOM      5  N   LIG    1       11.023   2.494   1.924  0.00  0.00    -0.360 NA
ATOM      6  H   LIG    1       11.781   2.735   1.301  0.00  0.00    +0.165 HD
ATOM      7  C   LIG    1       11.169   1.929   3.159  0.00  0.00    +0.087 C 
ATOM      8  C   LIG    1        9.099   3.221   0.501  0.00  0.00    +0.026 C 
ATOM      9  C   LIG    1        9.920   1.715   3.713  0.00  0.00    -0.019 C 
ATOM     10  C   LIG    1        7.708   3.316   0.480  0.00  0.00    +0.006 C 
ENDROOT
BRANCH   9  11
ATOM     11  C   LIG    1        9.591   1.063   5.047  0.00  0.00    +0.023 C 
ATOM     12  C   LIG    1       10.454  -0.160   5.397  0.00  0.00    +0.023 C 
ATOM     13  C   LIG    1       11.845   0.188   5.940  0.00  0.00    +0.085 C 
ATOM     14  N   LIG    1       11.884   1.225   6.974  0.00  0.00    -0.305 NA
ATOM     15  C   LIG    1       11.665   0.687   8.310  0.00  0.00    +0.105 C 
ATOM     16  C   LIG    1       11.034   2.382   6.670  0.00  0.00    +0.085 C 
ATOM     17  C   LIG    1        9.611   2.039   6.227  0.00  0.00    +0.023 C 
ENDBRANCH   9  11
BRANCH   1  18
ATOM     18  C   LIG    1        5.432   2.961   1.480  0.00  0.00    +0.059 C 
BRANCH  18  19
ATOM     19  C   LIG    1        4.926   1.637   0.940  0.00  0.00    +0.190 C 
BRANCH  19  20
ATOM     20  S   LIG    1        3.153   1.613   0.809  0.00  0.00    +0.029 S 
ATOM     21  O   LIG    1        2.568   1.662   2.126  0.00  0.00    -0.158 OA
ATOM     22  O   LIG    1        2.741   2.527  -0.240  0.00  0.00    -0.158 OA
BRANCH  20  24
ATOM     23  C   LIG    1        3.181  -1.064   1.097  0.00  0.00    +0.127 C 
ATOM     24  N   LIG    1        2.893   0.060   0.201  0.00  0.00    -0.198 NA
ATOM     25  H   LIG    1        1.989   0.014  -0.272  0.00  0.00    +0.147 HD
ENDBRANCH  20  24
ENDBRANCH  19  20
ENDBRANCH  18  19
ENDBRANCH   1  18
TORSDOF 5
