REMARK  Name = *****
REMARK                            x       y       z     vdW  Elec       q    Type
REMARK                         _______ _______ _______ _____ _____    ______ ____
ROOT
ATOM      1  O   LIG    1        1.515  -0.359  -0.141  0.00  0.00    -0.252 OA
ATOM      2  C   LIG    1        2.699  -0.410   0.134  0.00  0.00    +0.306 C 
ATOM      3  N   LIG    1        3.460   0.611   0.692  0.00  0.00    -0.272 N 
ATOM      4  C   LIG    1        4.873   0.250   0.767  0.00  0.00    +0.152 C 
ATOM      5  C   LIG    1        4.878  -1.266   0.451  0.00  0.00    +0.155 C 
ATOM      6  C   LIG    1        5.152  -2.061   1.747  0.00  0.00    +0.230 C 
ATOM      7  S   LIG    1        4.975  -0.907   3.189  0.00  0.00    -0.004 S 
ATOM      8  C   LIG    1        6.587  -1.404   3.894  0.00  0.00    +0.278 C 
ATOM      9  C   LIG    1        6.933  -2.746   3.273  0.00  0.00    +0.059 C 
ATOM     10  C   LIG    1        6.577  -2.619   1.804  0.00  0.00    +0.064 C 
ATOM     11  C   LIG    1        5.545   0.460   2.120  0.00  0.00    +0.302 C 
ATOM     12  N   LIG    1        3.541  -1.493  -0.082  0.00  0.00    -0.271 N 
ENDROOT
BRANCH   3  13
ATOM     13  C   LIG    1        2.925   1.936   0.955  0.00  0.00    +0.145 C 
BRANCH  13  14
ATOM     14  C   LIG    1        3.464   3.018   0.047  0.00  0.00    -0.030 A 
ATOM     15  C   LIG    1        3.267   2.963  -1.341  0.00  0.00    +0.005 A 
ATOM     16  C   LIG    1        3.728   3.993  -2.167  0.00  0.00    +0.000 A 
ATOM     17  C   LIG    1        4.386   5.090  -1.616  0.00  0.00    +0.000 A 
ATOM     18  C   LIG    1        4.579   5.163  -0.238  0.00  0.00    +0.000 A 
ATOM     19  C   LIG    1        4.117   4.136   0.589  0.00  0.00    +0.005 A 
ENDBRANCH  13  14
ENDBRANCH   3  13
BRANCH  12  20
ATOM     20  C   LIG    1        3.105  -2.740  -0.680  0.00  0.00    +0.145 C 
BRANCH  20  21
ATOM     21  C   LIG    1        3.800  -3.049  -1.985  0.00  0.00    -0.030 A 
ATOM     22  C   LIG    1        4.532  -4.235  -2.141  0.00  0.00    +0.005 A 
ATOM     23  C   LIG    1        5.125  -4.547  -3.367  0.00  0.00    +0.000 A 
ATOM     24  C   LIG    1        4.991  -3.680  -4.449  0.00  0.00    +0.000 A 
ATOM     25  C   LIG    1        4.270  -2.496  -4.306  0.00  0.00    +0.000 A 
ATOM     26  C   LIG    1        3.679  -2.180  -3.081  0.00  0.00    +0.005 A 
ENDBRANCH  20  21
ENDBRANCH  12  20
TORSDOF 4
