REMARK  Name = *****
REMARK                            x       y       z     vdW  Elec       q    Type
REMARK                         _______ _______ _______ _____ _____    ______ ____
ROOT
ATOM      1  O   LIG    1        0.993   0.006   0.196  0.00  0.00    -0.273 OA
ATOM      2  C   LIG    1        2.224  -0.037   0.198  0.00  0.00    +0.239 C 
ATOM      3  N   LIG    1        2.928   1.038   0.675  0.00  0.00    -0.283 N 
ATOM      4  H   LIG    1        2.331   1.832   0.871  0.00  0.00    +0.155 HD
ATOM      5  C   LIG    1        4.321   1.201   0.686  0.00  0.00    +0.043 A 
ATOM      6  C   LIG    1        5.247   0.145   0.758  0.00  0.00    +0.028 A 
ATOM      7  C   LIG    1        6.622   0.412   0.631  0.00  0.00    +0.096 A 
ATOM      8  C   LIG    1        7.068   1.734   0.517  0.00  0.00    +0.274 A 
ATOM      9  C   LIG    1        6.156   2.793   0.527  0.00  0.00    +0.086 A 
ATOM     10  C   LIG    1        4.824  -1.251   1.094  0.00  0.00    +0.075 C 
ATOM     11  N   LIG    1        3.817  -1.856   0.562  0.00  0.00    -0.273 NA
ATOM     12  C   LIG    1        4.788   2.522   0.614  0.00  0.00    +0.030 A 
ATOM     13  C   LIG    1        3.005  -1.174  -0.437  0.00  0.00    +0.238 C 
ENDROOT
BRANCH  10  14
ATOM     14  C   LIG    1        5.598  -2.016   2.132  0.00  0.00    +0.001 A 
ATOM     15  C   LIG    1        6.217  -1.376   3.215  0.00  0.00    +0.010 A 
ATOM     16  C   LIG    1        6.938  -2.120   4.152  0.00  0.00    +0.001 A 
ATOM     17  C   LIG    1        7.022  -3.506   4.029  0.00  0.00    +0.000 A 
ATOM     18  C   LIG    1        6.382  -4.153   2.974  0.00  0.00    +0.001 A 
ATOM     19  C   LIG    1        5.670  -3.412   2.029  0.00  0.00    +0.010 A 
ENDBRANCH  10  14
BRANCH   8  20
ATOM     20  N   LIG    1        8.507   2.013   0.422  0.00  0.00    +0.080 N 
ATOM     21  O   LIG    1        8.857   3.197   0.317  0.00  0.00    -0.576 OA
ATOM     22  O   LIG    1        9.282   1.049   0.459  0.00  0.00    +0.041 OA
ENDBRANCH   8  20
TORSDOF 2
