REMARK  Name = *****
REMARK                            x       y       z     vdW  Elec       q    Type
REMARK                         _______ _______ _______ _____ _____    ______ ____
ROOT
ATOM      1  C   LIG    1        4.504  -0.388   1.110  0.00  0.00    +0.065 C 
ATOM      2  C   LIG    1        4.986   0.603   2.196  0.00  0.00    +0.102 C 
ATOM      3  C   LIG    1        6.528   0.703   2.256  0.00  0.00    +0.065 C 
ATOM      4  C   LIG    1        7.290  -0.269   1.690  0.00  0.00    +0.016 C 
ATOM      5  C   LIG    1        8.801  -0.325   1.696  0.00  0.00    +0.061 C 
ATOM      6  N   LIG    1        6.679  -1.319   1.027  0.00  0.00    -0.321 N 
ATOM      7  H   LIG    1        7.305  -1.932   0.507  0.00  0.00    +0.152 HD
ATOM      8  C   LIG    1        5.362  -1.311   0.606  0.00  0.00    +0.016 C 
ATOM      9  C   LIG    1        5.043  -2.345  -0.449  0.00  0.00    +0.061 C 
ENDROOT
BRANCH   2  10
ATOM     10  C   LIG    1        4.331   0.421   3.592  0.00  0.00    +0.042 A 
ATOM     11  C   LIG    1        4.506  -0.663   4.478  0.00  0.00    +0.277 A 
ATOM     12  C   LIG    1        3.879  -0.729   5.743  0.00  0.00    +0.084 A 
ATOM     13  C   LIG    1        3.027   0.285   6.155  0.00  0.00    +0.007 A 
ATOM     14  C   LIG    1        2.822   1.371   5.314  0.00  0.00    +0.001 A 
ATOM     15  C   LIG    1        3.471   1.445   4.066  0.00  0.00    +0.011 A 
BRANCH  11  16
ATOM     16  N   LIG    1        5.328  -1.815   4.172  0.00  0.00    +0.080 N 
ATOM     17  O   LIG    1        4.728  -2.873   3.935  0.00  0.00    -0.576 OA
ATOM     18  O   LIG    1        6.549  -1.691   4.319  0.00  0.00    +0.042 OA
ENDBRANCH  11  16
ENDBRANCH   2  10
BRANCH   1  19
ATOM     19  C   LIG    1        3.158  -0.124   0.514  0.00  0.00    +0.337 C 
ATOM     20  O   LIG    1        2.245   0.422   1.117  0.00  0.00    -0.245 OA
BRANCH  19  22
ATOM     21  C   LIG    1        1.948  -0.130  -1.536  0.00  0.00    +0.280 C 
ATOM     22  O   LIG    1        3.143  -0.430  -0.807  0.00  0.00    -0.465 OA
ENDBRANCH  19  22
ENDBRANCH   1  19
BRANCH   3  23
ATOM     23  C   LIG    1        7.164   1.937   2.797  0.00  0.00    +0.337 C 
ATOM     24  O   LIG    1        8.376   2.155   2.831  0.00  0.00    -0.245 OA
BRANCH  23  25
ATOM     25  O   LIG    1        6.214   2.840   3.127  0.00  0.00    -0.465 OA
ATOM     26  C   LIG    1        6.651   4.185   3.349  0.00  0.00    +0.280 C 
ENDBRANCH  23  25
ENDBRANCH   3  23
TORSDOF 6
