REMARK  Name = *****
REMARK                            x       y       z     vdW  Elec       q    Type
REMARK                         _______ _______ _______ _____ _____    ______ ____
ROOT
ATOM      1  N   LIG    1       -0.914  -8.691  -0.975  0.00  0.00    -0.311 NA
ATOM      2  H   LIG    1       -0.043  -9.088  -1.328  0.00  0.00    +0.122 HD
ENDROOT
BRANCH   1   3
ATOM      3  C   LIG    1       -0.856  -8.639   0.500  0.00  0.00    +0.115 C 
BRANCH   3   4
ATOM      4  C   LIG    1        0.273  -7.704   0.987  0.00  0.00    +0.169 C 
BRANCH   4   5
ATOM      5  C   LIG    1        0.301  -7.622   2.534  0.00  0.00    +0.203 C 
ATOM      6  O   LIG    1       -0.984  -7.241   3.058  0.00  0.00    -0.486 OA
ATOM      7  C   LIG    1       -1.263  -5.900   3.003  0.00  0.00    +0.124 A 
ATOM      8  C   LIG    1       -0.283  -4.914   2.841  0.00  0.00    -0.003 A 
ATOM      9  C   LIG    1       -0.683  -3.571   2.747  0.00  0.00    +0.045 A 
ATOM     10  C   LIG    1       -2.030  -3.244   2.845  0.00  0.00    +0.124 A 
ATOM     11  C   LIG    1       -2.997  -4.216   3.045  0.00  0.00    +0.042 A 
ATOM     12  F   LIG    1       -2.402  -1.956   2.744  0.00  0.00    -0.205 F 
ATOM     13  C   LIG    1        1.171  -5.271   2.739  0.00  0.00    +0.042 C 
ATOM     14  C   LIG    1       -2.610  -5.557   3.129  0.00  0.00    +0.049 A 
ATOM     15  C   LIG    1        1.402  -6.729   3.112  0.00  0.00    +0.052 C 
ENDBRANCH   4   5
BRANCH   4  16
ATOM     16  O   LIG    1        1.535  -8.182   0.502  0.00  0.00    -0.387 OA
ATOM     17  H   LIG    1        1.520  -8.035  -0.461  0.00  0.00    +0.210 HD
ENDBRANCH   4  16
ENDBRANCH   3   4
ENDBRANCH   1   3
BRANCH   1  18
ATOM     18  C   LIG    1       -2.015  -9.574  -1.402  0.00  0.00    +0.115 C 
BRANCH  18  19
ATOM     19  C   LIG    1       -2.117  -9.651  -2.946  0.00  0.00    +0.169 C 
BRANCH  19  20
ATOM     20  C   LIG    1       -3.259 -10.577  -3.414  0.00  0.00    +0.203 C 
ATOM     21  O   LIG    1       -3.014 -11.893  -2.893  0.00  0.00    -0.486 OA
ATOM     22  C   LIG    1       -4.053 -12.775  -3.018  0.00  0.00    +0.124 A 
ATOM     23  C   LIG    1       -5.364 -12.390  -3.330  0.00  0.00    -0.003 A 
ATOM     24  C   LIG    1       -6.356 -13.372  -3.433  0.00  0.00    +0.045 A 
ATOM     25  C   LIG    1       -6.038 -14.706  -3.199  0.00  0.00    +0.124 A 
ATOM     26  C   LIG    1       -4.744 -15.086  -2.865  0.00  0.00    +0.042 A 
ATOM     27  F   LIG    1       -6.996 -15.636  -3.292  0.00  0.00    -0.205 F 
ATOM     28  C   LIG    1       -5.708 -10.952  -3.577  0.00  0.00    +0.042 C 
ATOM     29  C   LIG    1       -3.747 -14.116  -2.773  0.00  0.00    +0.049 A 
ATOM     30  C   LIG    1       -4.635 -10.051  -2.992  0.00  0.00    +0.052 C 
ENDBRANCH  19  20
BRANCH  19  31
ATOM     31  O   LIG    1       -2.302  -8.351  -3.525  0.00  0.00    -0.387 OA
ATOM     32  H   LIG    1       -2.636  -7.767  -2.821  0.00  0.00    +0.210 HD
ENDBRANCH  19  31
ENDBRANCH  18  19
ENDBRANCH   1  18
TORSDOF 8
