REMARK  Name = *****
REMARK                            x       y       z     vdW  Elec       q    Type
REMARK                         _______ _______ _______ _____ _____    ______ ____
ROOT
ATOM      1  N   LIG    1        5.216  -0.944   1.014  0.00  0.00    -0.299 N 
ATOM      2  C   LIG    1        5.827  -2.220   1.030  0.00  0.00    +0.037 A 
ATOM      3  C   LIG    1        6.811  -2.603   0.081  0.00  0.00    -0.026 A 
ATOM      4  C   LIG    1        7.282  -3.936   0.073  0.00  0.00    +0.005 A 
ATOM      5  C   LIG    1        6.845  -4.878   0.997  0.00  0.00    +0.000 A 
ATOM      6  C   LIG    1        5.971  -4.479   2.003  0.00  0.00    +0.002 A 
ATOM      7  C   LIG    1        7.463  -1.677  -0.927  0.00  0.00    +0.041 C 
ATOM      8  C   LIG    1        6.775  -0.364  -1.291  0.00  0.00    +0.041 C 
ATOM      9  C   LIG    1        6.722   0.590  -0.129  0.00  0.00    -0.026 A 
ATOM     10  C   LIG    1        7.410   1.812  -0.170  0.00  0.00    +0.005 A 
ATOM     11  C   LIG    1        7.399   2.672   0.927  0.00  0.00    +0.000 A 
ATOM     12  C   LIG    1        6.712   2.310   2.082  0.00  0.00    +0.002 A 
ATOM     13  C   LIG    1        6.004   1.109   2.118  0.00  0.00    +0.024 A 
ATOM     14  C   LIG    1        5.491  -3.169   2.019  0.00  0.00    +0.024 A 
ATOM     15  C   LIG    1        5.970   0.250   1.009  0.00  0.00    +0.037 A 
ENDROOT
BRANCH   1  16
ATOM     16  C   LIG    1        3.814  -0.826   1.513  0.00  0.00    +0.115 C 
BRANCH  16  18
ATOM     17  C   LIG    1        1.574   0.336   1.388  0.00  0.00    +0.010 C 
ATOM     18  C   LIG    1        2.916   0.131   0.667  0.00  0.00    +0.018 C 
BRANCH  18  19
ATOM     19  C   LIG    1        2.677  -0.411  -0.766  0.00  0.00    +0.088 C 
BRANCH  19  20
ATOM     20  N   LIG    1        1.791   0.398  -1.642  0.00  0.00    -0.308 NA
ATOM     21  C   LIG    1        1.652  -0.276  -2.940  0.00  0.00    +0.104 C 
ATOM     22  C   LIG    1        2.313   1.751  -1.851  0.00  0.00    +0.104 C 
ENDBRANCH  19  20
ENDBRANCH  18  19
ENDBRANCH  16  18
ENDBRANCH   1  16
TORSDOF 4
