REMARK  Name = *****
REMARK                            x       y       z     vdW  Elec       q    Type
REMARK                         _______ _______ _______ _____ _____    ______ ____
ROOT
ATOM      1  C   LIG    1        0.653   0.975  -1.167  0.00  0.00    +0.051 C 
ATOM      2  C   LIG    1        2.042   0.773  -0.660  0.00  0.00    +0.030 C 
ATOM      3  C   LIG    1        2.357  -0.516  -0.006  0.00  0.00    +0.257 C 
ATOM      4  O   LIG    1        1.517  -1.405   0.120  0.00  0.00    -0.267 OA
ATOM      5  N   LIG    1        3.638  -0.662   0.441  0.00  0.00    -0.275 N 
ATOM      6  H   LIG    1        3.872  -1.537   0.880  0.00  0.00    +0.173 HD
ATOM      7  C   LIG    1        4.651   0.256   0.318  0.00  0.00    +0.332 C 
ATOM      8  O   LIG    1        5.774  -0.019   0.732  0.00  0.00    -0.246 OA
ATOM      9  N   LIG    1        4.304   1.451  -0.292  0.00  0.00    -0.270 N 
ATOM     10  C   LIG    1        3.021   1.679  -0.763  0.00  0.00    +0.102 C 
ENDROOT
BRANCH   9  11
ATOM     11  C   LIG    1        5.343   2.457  -0.437  0.00  0.00    +0.248 C 
ATOM     12  O   LIG    1        4.897   3.706   0.139  0.00  0.00    -0.343 OA
ATOM     13  C   LIG    1        5.353   4.766  -0.736  0.00  0.00    +0.169 C 
ATOM     14  C   LIG    1        5.576   4.095  -2.049  0.00  0.00    +0.007 C 
ATOM     15  C   LIG    1        5.593   2.773  -1.872  0.00  0.00    +0.025 C 
BRANCH  13  16
ATOM     16  C   LIG    1        4.324   5.902  -0.742  0.00  0.00    +0.191 C 
BRANCH  16  17
ATOM     17  O   LIG    1        3.014   5.435  -1.066  0.00  0.00    -0.392 OA
ATOM     18  H   LIG    1        2.792   4.793  -0.366  0.00  0.00    +0.209 HD
ENDBRANCH  16  17
ENDBRANCH  13  16
ENDBRANCH   9  11
TORSDOF 3
