REMARK  Name = *****
REMARK                            x       y       z     vdW  Elec       q    Type
REMARK                         _______ _______ _______ _____ _____    ______ ____
ROOT
ATOM      1  C   LIG    1        0.462   0.587   0.354  0.00  0.00    +0.014 C 
ATOM      2  C   LIG    1        1.899   0.291  -0.076  0.00  0.00    -0.000 C 
ATOM      3  C   LIG    1        2.553   1.641  -0.682  0.00  0.00    +0.069 C 
ATOM      4  C   LIG    1        1.630   2.686  -1.286  0.00  0.00    +0.042 C 
ATOM      5  C   LIG    1        3.781   1.059  -1.338  0.00  0.00    +0.035 C 
ATOM      6  C   LIG    1        4.262   0.108  -0.162  0.00  0.00    +0.007 C 
ATOM      7  C   LIG    1        3.024   0.021   0.905  0.00  0.00    +0.001 C 
ATOM      8  C   LIG    1        2.837  -1.194   1.821  0.00  0.00    -0.004 C 
ATOM      9  C   LIG    1        1.452  -1.408   2.518  0.00  0.00    +0.004 C 
ATOM     10  C   LIG    1        0.689  -2.704   2.114  0.00  0.00    +0.005 C 
ATOM     11  C   LIG    1        1.535  -3.992   2.331  0.00  0.00    +0.001 C 
ATOM     12  C   LIG    1        3.066  -3.693   2.046  0.00  0.00    -0.022 C 
ATOM     13  C   LIG    1        3.712  -3.469   3.460  0.00  0.00    +0.012 C 
ATOM     14  C   LIG    1        3.880  -4.865   1.442  0.00  0.00    +0.045 C 
ATOM     15  C   LIG    1        3.096  -5.511   0.383  0.00  0.00    -0.006 A 
ATOM     16  C   LIG    1        1.778  -5.762   0.552  0.00  0.00    +0.040 A 
ATOM     17  N   LIG    1        1.391  -6.509  -0.539  0.00  0.00    -0.281 N 
ATOM     18  H   LIG    1        0.556  -7.019  -0.698  0.00  0.00    +0.189 HD
ATOM     19  N   LIG    1        2.333  -6.461  -1.515  0.00  0.00    -0.182 NA
ATOM     20  C   LIG    1        3.365  -5.824  -0.959  0.00  0.00    +0.138 A 
ATOM     21  C   LIG    1        0.936  -5.298   1.685  0.00  0.00    +0.059 C 
ATOM     22  C   LIG    1        3.231  -2.436   1.082  0.00  0.00    -0.001 C 
ATOM     23  C   LIG    1        2.519  -2.422  -0.328  0.00  0.00    +0.005 C 
ATOM     24  C   LIG    1        1.846  -1.084  -0.921  0.00  0.00    +0.010 C 
ENDROOT
BRANCH   3  25
ATOM     25  O   LIG    1        3.145   2.502   0.360  0.00  0.00    -0.388 OA
ATOM     26  H   LIG    1        3.868   3.010  -0.053  0.00  0.00    +0.210 HD
ENDBRANCH   3  25
TORSDOF 1
