REMARK  Name = *****
REMARK                            x       y       z     vdW  Elec       q    Type
REMARK                         _______ _______ _______ _____ _____    ______ ____
ROOT
ATOM      1  C   LIG    1       -0.606   0.474  -1.772  0.00  0.00    +0.338 C 
ATOM      2  O   LIG    1       -1.657   1.103  -1.740  0.00  0.00    -0.245 OA
ENDROOT
BRANCH   1   5
ATOM      3  C   LIG    1        0.607   1.491  -5.276  0.00  0.00    +0.065 C 
ATOM      4  C   LIG    1        0.109   1.715  -3.846  0.00  0.00    +0.096 C 
ATOM      5  C   LIG    1        0.295   0.482  -2.950  0.00  0.00    +0.065 C 
ATOM      6  C   LIG    1        1.216  -0.459  -3.280  0.00  0.00    +0.016 C 
ATOM      7  C   LIG    1        1.609  -1.644  -2.437  0.00  0.00    +0.061 C 
ATOM      8  N   LIG    1        1.889  -0.351  -4.491  0.00  0.00    -0.321 N 
ATOM      9  H   LIG    1        2.468  -1.145  -4.760  0.00  0.00    +0.152 HD
ATOM     10  C   LIG    1        1.514   0.489  -5.522  0.00  0.00    +0.016 C 
ATOM     11  C   LIG    1        2.133   0.179  -6.856  0.00  0.00    +0.061 C 
BRANCH   4  12
ATOM     12  C   LIG    1        0.810   2.923  -3.196  0.00  0.00    -0.029 A 
ATOM     13  C   LIG    1        2.198   2.899  -2.949  0.00  0.00    +0.088 A 
ATOM     14  C   LIG    1        2.837   4.000  -2.365  0.00  0.00    +0.273 A 
ATOM     15  C   LIG    1        2.108   5.146  -2.034  0.00  0.00    +0.084 A 
ATOM     16  C   LIG    1        0.730   5.169  -2.254  0.00  0.00    +0.007 A 
ATOM     17  C   LIG    1        0.083   4.062  -2.817  0.00  0.00    +0.005 A 
BRANCH  14  18
ATOM     18  N   LIG    1        4.278   3.939  -2.092  0.00  0.00    +0.080 N 
ATOM     19  O   LIG    1        4.881   2.896  -2.384  0.00  0.00    -0.576 OA
ATOM     20  O   LIG    1        4.811   4.933  -1.575  0.00  0.00    +0.041 OA
ENDBRANCH  14  18
ENDBRANCH   4  12
BRANCH   3  21
ATOM     21  C   LIG    1       -0.096   2.308  -6.317  0.00  0.00    +0.337 C 
ATOM     22  O   LIG    1       -0.669   3.377  -6.111  0.00  0.00    -0.245 OA
BRANCH  21  24
ATOM     23  C   LIG    1       -1.022   1.999  -8.471  0.00  0.00    +0.280 C 
ATOM     24  O   LIG    1       -0.086   1.603  -7.469  0.00  0.00    -0.465 OA
ENDBRANCH  21  24
ENDBRANCH   3  21
ENDBRANCH   1   5
BRANCH   1  25
ATOM     25  O   LIG    1       -0.111  -0.258  -0.754  0.00  0.00    -0.460 OA
BRANCH  25  26
ATOM     26  C   LIG    1       -0.862  -0.210   0.471  0.00  0.00    +0.247 C 
BRANCH  26  27
ATOM     27  C   LIG    1       -2.033  -1.209   0.442  0.00  0.00    +0.125 C 
BRANCH  27  28
ATOM     28  N   LIG    1       -2.873  -1.199   1.657  0.00  0.00    -0.297 NA
ATOM     29  C   LIG    1       -4.034  -2.105   1.518  0.00  0.00    +0.100 C 
ATOM     30  C   LIG    1       -3.679  -3.614   1.580  0.00  0.00    +0.100 C 
ATOM     31  N   LIG    1       -2.910  -4.050   2.770  0.00  0.00    -0.289 NA
ATOM     32  C   LIG    1       -1.797  -3.087   2.985  0.00  0.00    +0.100 C 
ATOM     33  C   LIG    1       -2.144  -1.581   2.878  0.00  0.00    +0.100 C 
BRANCH  31  34
ATOM     34  C   LIG    1       -3.752  -4.244   3.987  0.00  0.00    +0.117 C 
BRANCH  34  35
ATOM     35  C   LIG    1       -2.905  -4.645   5.218  0.00  0.00    -0.026 A 
ATOM     36  C   LIG    1       -2.042  -5.758   5.201  0.00  0.00    +0.005 A 
ATOM     37  C   LIG    1       -1.249  -6.078   6.307  0.00  0.00    +0.000 A 
ATOM     38  C   LIG    1       -1.292  -5.282   7.446  0.00  0.00    +0.000 A 
ATOM     39  C   LIG    1       -2.130  -4.169   7.481  0.00  0.00    +0.000 A 
ATOM     40  C   LIG    1       -2.934  -3.855   6.380  0.00  0.00    +0.005 A 
ENDBRANCH  34  35
BRANCH  34  41
ATOM     41  C   LIG    1       -4.919  -5.242   3.803  0.00  0.00    -0.026 A 
ATOM     42  C   LIG    1       -6.237  -4.845   4.097  0.00  0.00    +0.005 A 
ATOM     43  C   LIG    1       -7.297  -5.760   4.048  0.00  0.00    +0.000 A 
ATOM     44  C   LIG    1       -7.060  -7.091   3.719  0.00  0.00    +0.000 A 
ATOM     45  C   LIG    1       -5.771  -7.497   3.385  0.00  0.00    +0.000 A 
ATOM     46  C   LIG    1       -4.717  -6.576   3.402  0.00  0.00    +0.005 A 
ENDBRANCH  34  41
ENDBRANCH  31  34
ENDBRANCH  27  28
ENDBRANCH  26  27
ENDBRANCH  25  26
ENDBRANCH   1  25
TORSDOF 12
