REMARK  Name = *****
REMARK                            x       y       z     vdW  Elec       q    Type
REMARK                         _______ _______ _______ _____ _____    ______ ____
ROOT
ATOM      1  C   LIG    1       -2.715  -1.611  -0.465  0.00  0.00    +0.242 C 
ATOM      2  C   LIG    1       -1.825  -2.898  -0.234  0.00  0.00    +0.199 C 
ATOM      3  N   LIG    1       -2.072  -3.282  -1.614  0.00  0.00    -0.244 N 
ATOM      4  C   LIG    1       -1.718  -4.492  -2.170  0.00  0.00    +0.123 C 
ATOM      5  C   LIG    1       -1.310  -5.520  -1.368  0.00  0.00    -0.021 C 
ATOM      6  C   LIG    1       -1.334  -5.428   0.154  0.00  0.00    +0.104 C 
ATOM      7  S   LIG    1       -2.506  -4.213   0.809  0.00  0.00    -0.129 S 
ATOM      8  C   LIG    1       -2.823  -2.208  -1.956  0.00  0.00    +0.275 C 
ATOM      9  O   LIG    1       -3.454  -1.915  -2.945  0.00  0.00    -0.270 OA
ENDROOT
BRANCH   1  10
ATOM     10  N   LIG    1       -4.055  -1.581   0.230  0.00  0.00    -0.277 N 
ATOM     11  H   LIG    1       -4.815  -2.096  -0.197  0.00  0.00    +0.152 HD
ATOM     12  C   LIG    1       -4.231  -1.139   1.528  0.00  0.00    +0.225 C 
ATOM     13  O   LIG    1       -3.292  -0.797   2.238  0.00  0.00    -0.275 OA
BRANCH  12  14
ATOM     14  C   LIG    1       -5.704  -1.074   1.953  0.00  0.00    +0.165 C 
BRANCH  14  15
ATOM     15  S   LIG    1       -5.971  -0.480   3.658  0.00  0.00    -0.137 S 
BRANCH  15  16
ATOM     16  C   LIG    1       -5.173   1.163   3.559  0.00  0.00    +0.187 C 
BRANCH  16  17
ATOM     17  C   LIG    1       -5.771   2.079   2.570  0.00  0.00    +0.073 C 
ATOM     18  N   LIG    1       -6.206   2.795   1.778  0.00  0.00    -0.196 NA
ENDBRANCH  16  17
ENDBRANCH  15  16
ENDBRANCH  14  15
ENDBRANCH  12  14
ENDBRANCH   1  10
BRANCH   1  20
ATOM     19  C   LIG    1       -2.485   0.727  -1.170  0.00  0.00    +0.197 C 
ATOM     20  O   LIG    1       -1.977  -0.355  -0.402  0.00  0.00    -0.349 OA
ENDBRANCH   1  20
BRANCH   4  21
ATOM     21  C   LIG    1       -1.778  -4.582  -3.674  0.00  0.00    +0.351 C 
ATOM     22  O   LIG    1       -1.704  -3.648  -4.452  0.00  0.00    -0.244 OA
BRANCH  21  23
ATOM     23  O   LIG    1       -1.911  -5.832  -4.144  0.00  0.00    -0.476 OA
ATOM     24  H   LIG    1       -1.927  -5.743  -5.119  0.00  0.00    +0.295 HD
ENDBRANCH  21  23
ENDBRANCH   4  21
BRANCH   5  25
ATOM     25  C   LIG    1       -0.882  -6.920  -1.819  0.00  0.00    +0.111 C 
BRANCH  25  26
ATOM     26  S   LIG    1        0.900  -7.018  -2.163  0.00  0.00    -0.080 S 
BRANCH  26  27
ATOM     27  C   LIG    1        1.040  -8.678  -2.657  0.00  0.00    +0.209 A 
ATOM     28  N   LIG    1        2.221  -9.289  -2.970  0.00  0.00    -0.223 N 
ATOM     29  C   LIG    1        3.527  -8.722  -3.152  0.00  0.00    +0.177 C 
ATOM     30  N   LIG    1        2.001 -10.590  -3.231  0.00  0.00    -0.043 NA
ATOM     31  N   LIG    1        0.688 -10.745  -3.127  0.00  0.00    -0.022 NA
ATOM     32  N   LIG    1        0.075  -9.561  -2.780  0.00  0.00    -0.102 NA
ENDBRANCH  26  27
ENDBRANCH  25  26
ENDBRANCH   5  25
TORSDOF 11
