REMARK  Name = *****
REMARK                            x       y       z     vdW  Elec       q    Type
REMARK                         _______ _______ _______ _____ _____    ______ ____
ROOT
ATOM      1  C   LIG    1       -2.504  -3.724   6.929  0.00  0.00    +0.014 C 
ATOM      2  C   LIG    1       -1.051  -4.158   7.251  0.00  0.00    -0.005 C 
ATOM      3  C   LIG    1       -0.436  -5.064   6.099  0.00  0.00    +0.127 C 
ATOM      4  C   LIG    1        0.989  -5.453   6.516  0.00  0.00    +0.033 C 
ATOM      5  C   LIG    1        1.903  -4.237   6.699  0.00  0.00    +0.010 C 
ATOM      6  C   LIG    1        1.388  -3.205   7.748  0.00  0.00    -0.018 C 
ATOM      7  C   LIG    1        1.600  -3.807   9.155  0.00  0.00    +0.012 C 
ATOM      8  C   LIG    1        2.173  -1.861   7.572  0.00  0.00    +0.073 C 
ATOM      9  C   LIG    1        3.682  -1.947   7.544  0.00  0.00    +0.160 C 
ATOM     10  C   LIG    1        4.297  -0.866   6.748  0.00  0.00    +0.046 C 
ATOM     11  C   LIG    1        3.739   0.362   6.808  0.00  0.00    -0.056 C 
ATOM     12  C   LIG    1        2.741   0.680   7.980  0.00  0.00    -0.004 C 
ATOM     13  C   LIG    1        3.711   1.054   9.159  0.00  0.00    +0.016 C 
ATOM     14  C   LIG    1        1.911   1.962   7.704  0.00  0.00    +0.012 C 
ATOM     15  C   LIG    1        2.733   3.119   7.130  0.00  0.00    +0.008 C 
ATOM     16  C   LIG    1        3.373   2.733   5.783  0.00  0.00    -0.025 C 
ATOM     17  C   LIG    1        2.230   2.466   4.763  0.00  0.00    +0.012 C 
ATOM     18  C   LIG    1        4.263   3.904   5.306  0.00  0.00    +0.008 C 
ATOM     19  C   LIG    1        4.907   3.635   3.950  0.00  0.00    +0.018 C 
ATOM     20  C   LIG    1        5.577   2.251   3.765  0.00  0.00    +0.065 C 
ATOM     21  C   LIG    1        7.031   2.324   4.287  0.00  0.00    +0.023 C 
ATOM     22  C   LIG    1        4.849   1.104   4.545  0.00  0.00    +0.026 C 
ATOM     23  C   LIG    1        4.317   1.510   5.957  0.00  0.00    +0.022 C 
ATOM     24  O   LIG    1        4.367  -2.822   8.053  0.00  0.00    -0.292 OA
ATOM     25  C   LIG    1        1.750  -0.607   8.403  0.00  0.00    -0.013 C 
ATOM     26  C   LIG    1        1.810  -0.821   9.938  0.00  0.00    +0.013 C 
ATOM     27  C   LIG    1        0.232  -0.419   8.062  0.00  0.00    +0.008 C 
ATOM     28  C   LIG    1       -0.645  -1.696   8.252  0.00  0.00    +0.005 C 
ATOM     29  C   LIG    1       -0.118  -2.884   7.409  0.00  0.00    +0.004 C 
ATOM     30  C   LIG    1       -1.197  -5.034   8.520  0.00  0.00    +0.014 C 
ENDROOT
BRANCH  20  31
ATOM     31  C   LIG    1        5.687   1.849   2.279  0.00  0.00    +0.311 C 
ATOM     32  O   LIG    1        6.243   0.800   1.922  0.00  0.00    -0.250 OA
BRANCH  31  33
ATOM     33  O   LIG    1        5.179   2.666   1.345  0.00  0.00    -0.480 OA
ATOM     34  H   LIG    1        4.785   3.520   1.612  0.00  0.00    +0.295 HD
ENDBRANCH  31  33
ENDBRANCH  20  31
BRANCH   3  35
ATOM     35  O   LIG    1       -0.432  -4.369   4.848  0.00  0.00    -0.345 OA
BRANCH  35  36
ATOM     36  C   LIG    1        0.014  -5.072   3.673  0.00  0.00    +0.283 C 
ATOM     37  C   LIG    1       -1.067  -5.951   2.915  0.00  0.00    +0.208 C 
ATOM     38  C   LIG    1       -0.267  -6.627   1.784  0.00  0.00    +0.180 C 
ATOM     39  C   LIG    1        0.769  -7.566   2.415  0.00  0.00    +0.185 C 
ATOM     40  C   LIG    1        1.759  -6.824   3.312  0.00  0.00    +0.260 C 
ATOM     41  O   LIG    1        1.398  -5.487   3.670  0.00  0.00    -0.332 OA
BRANCH  38  42
ATOM     42  O   LIG    1        0.351  -5.655   0.941  0.00  0.00    -0.386 OA
ATOM     43  H   LIG    1        0.207  -5.937   0.017  0.00  0.00    +0.210 HD
ENDBRANCH  38  42
BRANCH  39  44
ATOM     44  O   LIG    1        0.110  -8.580   3.195  0.00  0.00    -0.386 OA
ATOM     45  H   LIG    1       -0.349  -8.139   3.941  0.00  0.00    +0.210 HD
ENDBRANCH  39  44
BRANCH  40  46
ATOM     46  C   LIG    1        3.143  -6.895   2.627  0.00  0.00    +0.337 C 
ATOM     47  O   LIG    1        3.819  -7.882   2.578  0.00  0.00    -0.248 OA
BRANCH  46  48
ATOM     48  O   LIG    1        3.495  -5.744   2.003  0.00  0.00    -0.479 OA
ATOM     49  H   LIG    1        2.829  -5.043   2.150  0.00  0.00    +0.295 HD
ENDBRANCH  46  48
ENDBRANCH  40  46
BRANCH  37  50
ATOM     50  O   LIG    1       -1.848  -6.929   3.693  0.00  0.00    -0.338 OA
BRANCH  50  51
ATOM     51  C   LIG    1       -2.801  -7.696   2.880  0.00  0.00    +0.283 C 
ATOM     52  C   LIG    1       -3.412  -8.953   3.566  0.00  0.00    +0.201 C 
ATOM     53  C   LIG    1       -4.461  -8.588   4.616  0.00  0.00    +0.179 C 
ATOM     54  C   LIG    1       -5.032  -7.174   4.395  0.00  0.00    +0.185 C 
ATOM     55  C   LIG    1       -5.114  -6.923   2.887  0.00  0.00    +0.260 C 
ATOM     56  O   LIG    1       -3.789  -6.833   2.298  0.00  0.00    -0.332 OA
BRANCH  52  57
ATOM     57  O   LIG    1       -4.061  -9.749   2.546  0.00  0.00    -0.384 OA
ATOM     58  H   LIG    1       -4.378 -10.569   2.970  0.00  0.00    +0.210 HD
ENDBRANCH  52  57
BRANCH  53  59
ATOM     59  O   LIG    1       -3.863  -8.715   5.911  0.00  0.00    -0.386 OA
ATOM     60  H   LIG    1       -4.265  -8.046   6.494  0.00  0.00    +0.210 HD
ENDBRANCH  53  59
BRANCH  54  61
ATOM     61  O   LIG    1       -6.277  -7.115   5.093  0.00  0.00    -0.386 OA
ATOM     62  H   LIG    1       -6.519  -6.174   5.210  0.00  0.00    +0.210 HD
ENDBRANCH  54  61
BRANCH  55  63
ATOM     63  C   LIG    1       -5.766  -5.575   2.573  0.00  0.00    +0.337 C 
ATOM     64  O   LIG    1       -6.839  -5.201   3.001  0.00  0.00    -0.248 OA
BRANCH  63  65
ATOM     65  O   LIG    1       -5.007  -4.819   1.728  0.00  0.00    -0.479 OA
ATOM     66  H   LIG    1       -4.195  -5.326   1.528  0.00  0.00    +0.295 HD
ENDBRANCH  63  65
ENDBRANCH  55  63
ENDBRANCH  50  51
ENDBRANCH  37  50
ENDBRANCH  35  36
ENDBRANCH   3  35
TORSDOF 15
