REMARK  Name = *****
REMARK                            x       y       z     vdW  Elec       q    Type
REMARK                         _______ _______ _______ _____ _____    ______ ____
ROOT
ATOM      1  O   LIG    1        7.127  -6.565   0.302  0.00  0.00    -0.340 OA
ENDROOT
BRANCH   1   5
ATOM      2  C   LIG    1        6.638  -3.379  -1.483  0.00  0.00    +0.283 C 
ATOM      3  C   LIG    1        5.981  -3.740  -0.123  0.00  0.00    +0.201 C 
ATOM      4  C   LIG    1        5.262  -5.097  -0.210  0.00  0.00    +0.180 C 
ATOM      5  C   LIG    1        6.203  -6.199  -0.753  0.00  0.00    +0.192 C 
ATOM      6  C   LIG    1        6.942  -5.713  -2.014  0.00  0.00    +0.261 C 
ATOM      7  O   LIG    1        7.536  -4.413  -1.903  0.00  0.00    -0.332 OA
BRANCH   6   8
ATOM      8  C   LIG    1        6.215  -6.019  -3.307  0.00  0.00    +0.337 C 
ATOM      9  O   LIG    1        5.154  -6.633  -3.418  0.00  0.00    -0.248 OA
BRANCH   8  10
ATOM     10  O   LIG    1        6.936  -5.651  -4.388  0.00  0.00    -0.479 OA
ATOM     11  H   LIG    1        7.747  -5.176  -4.106  0.00  0.00    +0.295 HD
ENDBRANCH   8  10
ENDBRANCH   6   8
BRANCH   4  12
ATOM     12  O   LIG    1        4.108  -4.995  -1.045  0.00  0.00    -0.386 OA
ATOM     13  H   LIG    1        3.443  -4.458  -0.574  0.00  0.00    +0.210 HD
ENDBRANCH   4  12
BRANCH   3  14
ATOM     14  O   LIG    1        6.976  -3.780   0.921  0.00  0.00    -0.384 OA
ATOM     15  H   LIG    1        7.653  -4.418   0.622  0.00  0.00    +0.210 HD
ENDBRANCH   3  14
BRANCH   2  16
ATOM     16  O   LIG    1        5.666  -3.091  -2.477  0.00  0.00    -0.341 OA
BRANCH  16  18
ATOM     17  C   LIG    1        7.093  -1.427  -3.747  0.00  0.00    +0.160 C 
ATOM     18  C   LIG    1        6.133  -2.640  -3.768  0.00  0.00    +0.177 C 
ATOM     19  C   LIG    1        4.862  -2.441  -4.611  0.00  0.00    +0.176 C 
ATOM     20  C   LIG    1        5.203  -1.795  -5.955  0.00  0.00    +0.178 C 
ATOM     21  O   LIG    1        5.842  -0.542  -5.709  0.00  0.00    -0.341 OA
ATOM     22  C   LIG    1        7.121  -0.699  -5.118  0.00  0.00    +0.270 C 
BRANCH  17  25
ATOM     23  C   LIG    1       10.630  -1.830  -2.307  0.00  0.00    +0.109 C 
ATOM     24  C   LIG    1        9.335  -1.129  -2.639  0.00  0.00    +0.210 C 
ATOM     25  N   LIG    1        8.463  -1.893  -3.384  0.00  0.00    -0.305 N 
ATOM     26  H   LIG    1        8.849  -2.697  -3.861  0.00  0.00    +0.149 HD
ATOM     27  O   LIG    1        9.054  -0.029  -2.184  0.00  0.00    -0.276 OA
ENDBRANCH  17  25
BRANCH  22  28
ATOM     28  O   LIG    1        7.639   0.607  -4.970  0.00  0.00    -0.365 OA
ATOM     29  H   LIG    1        6.922   1.177  -5.299  0.00  0.00    +0.212 HD
ENDBRANCH  22  28
BRANCH  19  30
ATOM     30  O   LIG    1        4.218  -3.704  -4.840  0.00  0.00    -0.387 OA
ATOM     31  H   LIG    1        4.156  -4.176  -3.983  0.00  0.00    +0.210 HD
ENDBRANCH  19  30
BRANCH  20  32
ATOM     32  C   LIG    1        3.943  -1.559  -6.802  0.00  0.00    +0.190 C 
BRANCH  32  33
ATOM     33  O   LIG    1        3.272  -2.765  -7.148  0.00  0.00    -0.392 OA
ATOM     34  H   LIG    1        3.293  -3.348  -6.358  0.00  0.00    +0.209 HD
ENDBRANCH  32  33
ENDBRANCH  20  32
ENDBRANCH  16  18
ENDBRANCH   2  16
ENDBRANCH   1   5
BRANCH   1  35
ATOM     35  C   LIG    1        8.036  -7.636   0.006  0.00  0.00    +0.274 C 
ATOM     36  C   LIG    1        9.066  -7.773   1.139  0.00  0.00    +0.160 C 
ATOM     37  C   LIG    1        8.473  -8.509   2.351  0.00  0.00    +0.177 C 
ATOM     38  C   LIG    1        7.776  -9.809   1.895  0.00  0.00    +0.176 C 
ATOM     39  C   LIG    1        6.835  -9.636   0.682  0.00  0.00    +0.178 C 
ATOM     40  O   LIG    1        7.428  -8.865  -0.370  0.00  0.00    -0.341 OA
BRANCH  36  41
ATOM     41  N   LIG    1       10.336  -8.343   0.678  0.00  0.00    -0.305 N 
ATOM     42  H   LIG    1       10.334  -9.239   0.205  0.00  0.00    +0.149 HD
ATOM     43  C   LIG    1       11.529  -7.886   1.197  0.00  0.00    +0.210 C 
ATOM     44  O   LIG    1       11.599  -7.001   2.042  0.00  0.00    -0.276 OA
ATOM     45  C   LIG    1       12.740  -8.543   0.601  0.00  0.00    +0.109 C 
ENDBRANCH  36  41
BRANCH  38  46
ATOM     46  O   LIG    1        8.816 -10.752   1.540  0.00  0.00    -0.387 OA
ATOM     47  H   LIG    1        8.833 -10.846   0.572  0.00  0.00    +0.210 HD
ENDBRANCH  38  46
BRANCH  39  48
ATOM     48  C   LIG    1        5.404  -9.194   1.006  0.00  0.00    +0.190 C 
BRANCH  48  49
ATOM     49  O   LIG    1        4.823 -10.000   2.024  0.00  0.00    -0.392 OA
ATOM     50  H   LIG    1        4.790 -10.921   1.713  0.00  0.00    +0.209 HD
ENDBRANCH  48  49
ENDBRANCH  39  48
BRANCH  37  51
ATOM     51  O   LIG    1        7.553  -7.703   3.108  0.00  0.00    -0.341 OA
BRANCH  51  52
ATOM     52  C   LIG    1        8.115  -6.509   3.678  0.00  0.00    +0.283 C 
ATOM     53  C   LIG    1        6.993  -5.684   4.338  0.00  0.00    +0.201 C 
ATOM     54  C   LIG    1        7.567  -4.631   5.285  0.00  0.00    +0.179 C 
ATOM     55  C   LIG    1        8.667  -5.174   6.213  0.00  0.00    +0.185 C 
ATOM     56  C   LIG    1        9.055  -6.626   5.910  0.00  0.00    +0.260 C 
ATOM     57  O   LIG    1        9.221  -6.843   4.511  0.00  0.00    -0.332 OA
BRANCH  56  58
ATOM     58  C   LIG    1        8.166  -7.646   6.619  0.00  0.00    +0.337 C 
ATOM     59  O   LIG    1        7.493  -7.418   7.618  0.00  0.00    -0.248 OA
BRANCH  58  60
ATOM     60  O   LIG    1        8.228  -8.877   6.066  0.00  0.00    -0.479 OA
ATOM     61  H   LIG    1        8.801  -8.887   5.269  0.00  0.00    +0.295 HD
ENDBRANCH  58  60
ENDBRANCH  56  58
BRANCH  55  62
ATOM     62  O   LIG    1        9.841  -4.343   6.049  0.00  0.00    -0.386 OA
ATOM     63  H   LIG    1       10.324  -4.636   5.255  0.00  0.00    +0.210 HD
ENDBRANCH  55  62
BRANCH  54  64
ATOM     64  O   LIG    1        6.489  -4.095   6.069  0.00  0.00    -0.386 OA
ATOM     65  H   LIG    1        5.738  -3.959   5.459  0.00  0.00    +0.210 HD
ENDBRANCH  54  64
BRANCH  53  66
ATOM     66  O   LIG    1        6.163  -5.017   3.362  0.00  0.00    -0.384 OA
ATOM     67  H   LIG    1        6.713  -4.436   2.793  0.00  0.00    +0.210 HD
ENDBRANCH  53  66
ENDBRANCH  51  52
ENDBRANCH  37  51
ENDBRANCH   1  35
TORSDOF 24
