REMARK  Name = *****
REMARK                            x       y       z     vdW  Elec       q    Type
REMARK                         _______ _______ _______ _____ _____    ______ ____
ROOT
ATOM      1  C   LIG    1        1.859  -1.906   1.007  0.00  0.00    +0.025 C 
ATOM      2  C   LIG    1        3.346  -1.540   0.843  0.00  0.00    +0.042 C 
ATOM      3  CA  LIG    1        3.848  -1.845  -0.591  0.00  0.00    +0.201 C 
ATOM      4  N   LIG    1        3.635  -0.636  -1.403  0.00  0.00    -0.271 N 
ATOM      5  C   LIG    1        3.676   0.670  -0.707  0.00  0.00    +0.165 C 
ATOM      6  CA  LIG    1        2.415   1.073  -1.509  0.00  0.00    +0.190 C 
ATOM      7  C   LIG    1        2.388  -0.405  -1.923  0.00  0.00    +0.240 C 
ATOM      8  O   LIG    1        1.569  -1.186  -2.373  0.00  0.00    -0.273 OA
ATOM      9  S   LIG    1        3.489   0.292   1.073  0.00  0.00    -0.127 S 
ATOM     10  C   LIG    1        4.128  -2.222   1.971  0.00  0.00    +0.025 C 
ENDROOT
BRANCH   6  11
ATOM     11  N   LIG    1        1.267   1.587  -0.736  0.00  0.00    -0.300 N 
ATOM     12  H   LIG    1        0.472   1.012  -0.465  0.00  0.00    +0.150 HD
ATOM     13  C   LIG    1        1.141   2.930  -0.457  0.00  0.00    +0.234 C 
ATOM     14  O   LIG    1        1.994   3.740  -0.807  0.00  0.00    -0.274 OA
BRANCH  13  15
ATOM     15  C   LIG    1       -0.118   3.277   0.397  0.00  0.00    +0.094 C 
ATOM     16  C   LIG    1        0.218   3.116   1.891  0.00  0.00    +0.031 C 
ATOM     17  C   LIG    1        1.151   4.216   2.400  0.00  0.00    +0.002 C 
ATOM     18  C   LIG    1        0.598   5.609   2.112  0.00  0.00    +0.000 C 
ATOM     19  C   LIG    1        0.262   5.808   0.638  0.00  0.00    +0.002 C 
ATOM     20  C   LIG    1       -0.634   4.694   0.091  0.00  0.00    +0.031 C 
BRANCH  15  21
ATOM     21  N   LIG    1       -1.179   2.283   0.054  0.00  0.00    -0.317 NA
ATOM     22  H   LIG    1       -1.994   2.456   0.644  0.00  0.00    +0.119 HD
ATOM     23  H   LIG    1       -1.499   2.469  -0.901  0.00  0.00    +0.119 HD
ENDBRANCH  15  21
ENDBRANCH  13  15
ENDBRANCH   6  11
BRANCH   3  24
ATOM     24  C   LIG    1        5.317  -2.282  -0.697  0.00  0.00    +0.327 C 
ATOM     25  O   LIG    1        5.783  -3.273  -0.153  0.00  0.00    -0.249 OA
BRANCH  24  26
ATOM     26  OXT LIG    1        6.074  -1.491  -1.497  0.00  0.00    -0.479 OA
ATOM     27  HXT LIG    1        5.521  -0.805  -1.921  0.00  0.00    +0.295 HD
ENDBRANCH  24  26
ENDBRANCH   3  24
TORSDOF 5
