REMARK  Name = *****
REMARK                            x       y       z     vdW  Elec       q    Type
REMARK                         _______ _______ _______ _____ _____    ______ ____
ROOT
ATOM      1  C   LIG    1        5.013   2.451  -3.045  0.00  0.00    +0.131 C 
ENDROOT
BRANCH   1   2
ATOM      2  C   LIG    1        3.996   3.662  -2.787  0.00  0.00    +0.094 C 
ATOM      3  N   LIG    1        2.634   3.155  -2.422  0.00  0.00    -0.310 NA
ATOM      4  H   LIG    1        2.273   2.627  -3.221  0.00  0.00    +0.122 HD
ATOM      5  C   LIG    1        1.700   4.253  -2.150  0.00  0.00    +0.081 C 
ATOM      6  C   LIG    1        1.564   5.183  -3.351  0.00  0.00    +0.015 C 
ATOM      7  C   LIG    1        2.915   5.787  -3.699  0.00  0.00    +0.003 C 
ATOM      8  C   LIG    1        3.933   4.679  -3.949  0.00  0.00    +0.022 C 
ENDBRANCH   1   2
BRANCH   1   9
ATOM      9  C   LIG    1        4.616   1.640  -4.310  0.00  0.00    -0.010 A 
ATOM     10  C   LIG    1        3.670   0.592  -4.241  0.00  0.00    +0.007 A 
ATOM     11  C   LIG    1        3.300  -0.137  -5.375  0.00  0.00    +0.000 A 
ATOM     12  C   LIG    1        3.869   0.157  -6.608  0.00  0.00    +0.000 A 
ATOM     13  C   LIG    1        4.794   1.195  -6.709  0.00  0.00    +0.000 A 
ATOM     14  C   LIG    1        5.156   1.932  -5.575  0.00  0.00    +0.007 A 
ENDBRANCH   1   9
BRANCH   1  15
ATOM     15  C   LIG    1        6.509   2.823  -2.984  0.00  0.00    -0.010 A 
ATOM     16  C   LIG    1        7.490   1.832  -3.140  0.00  0.00    +0.007 A 
ATOM     17  C   LIG    1        8.854   2.129  -3.062  0.00  0.00    +0.000 A 
ATOM     18  C   LIG    1        9.274   3.440  -2.822  0.00  0.00    +0.000 A 
ATOM     19  C   LIG    1        8.332   4.436  -2.648  0.00  0.00    +0.000 A 
ATOM     20  C   LIG    1        6.967   4.133  -2.710  0.00  0.00    +0.007 A 
ENDBRANCH   1  15
BRANCH   1  21
ATOM     21  O   LIG    1        4.850   1.556  -1.914  0.00  0.00    -0.378 OA
ATOM     22  H   LIG    1        3.944   1.736  -1.592  0.00  0.00    +0.211 HD
ENDBRANCH   1  21
TORSDOF 4
