REMARK  Name = *****
REMARK                            x       y       z     vdW  Elec       q    Type
REMARK                         _______ _______ _______ _____ _____    ______ ____
ROOT
ATOM      1  C   LIG    1        5.853   3.266  -0.965  0.00  0.00    +0.226 C 
ATOM      2  O   LIG    1        5.617   4.684  -0.847  0.00  0.00    -0.349 OA
ATOM      3  C   LIG    1        6.024   5.128   0.464  0.00  0.00    +0.177 C 
ATOM      4  C   LIG    1        6.251   3.882   1.311  0.00  0.00    +0.226 C 
ATOM      5  C   LIG    1        6.621   2.838   0.283  0.00  0.00    +0.091 C 
ENDROOT
BRANCH   1  14
ATOM      6  C   LIG    1        7.897   4.789  -5.245  0.00  0.00    +0.051 C 
ATOM      7  C   LIG    1        7.514   3.723  -4.272  0.00  0.00    +0.030 C 
ATOM      8  C   LIG    1        7.811   2.317  -4.624  0.00  0.00    +0.257 C 
ATOM      9  O   LIG    1        8.376   2.014  -5.669  0.00  0.00    -0.267 OA
ATOM     10  N   LIG    1        7.413   1.382  -3.713  0.00  0.00    -0.275 N 
ATOM     11  H   LIG    1        7.595   0.418  -3.942  0.00  0.00    +0.173 HD
ATOM     12  C   LIG    1        6.781   1.624  -2.521  0.00  0.00    +0.331 C 
ATOM     13  O   LIG    1        6.462   0.688  -1.791  0.00  0.00    -0.246 OA
ATOM     14  N   LIG    1        6.554   2.962  -2.218  0.00  0.00    -0.274 N 
ATOM     15  C   LIG    1        6.909   3.962  -3.104  0.00  0.00    +0.102 C 
ENDBRANCH   1  14
BRANCH   4  16
ATOM     16  N   LIG    1        4.997   3.480   1.974  0.00  0.00    +0.083 NA
ATOM     17  N   LIG    1        4.857   3.880   3.148  0.00  0.00    -0.014 NA
ATOM     18  N   LIG    1        4.750   4.255   4.215  0.00  0.00    -0.328 NA
ENDBRANCH   4  16
BRANCH   3  19
ATOM     19  C   LIG    1        7.302   5.962   0.314  0.00  0.00    +0.190 C 
BRANCH  19  20
ATOM     20  O   LIG    1        7.049   7.115  -0.486  0.00  0.00    -0.392 OA
ATOM     21  H   LIG    1        6.529   6.811  -1.253  0.00  0.00    +0.209 HD
ENDBRANCH  19  20
ENDBRANCH   3  19
TORSDOF 4
