REMARK  Name = *****
REMARK                            x       y       z     vdW  Elec       q    Type
REMARK                         _______ _______ _______ _____ _____    ______ ____
ROOT
ATOM      1  C   LIG    1       -6.126  -5.144   4.199  0.00  0.00    +0.013 C 
ATOM      2  C   LIG    1       -5.104  -3.998   4.368  0.00  0.00    +0.027 C 
ATOM      3  C   LIG    1       -3.735  -4.448   3.785  0.00  0.00    +0.062 C 
ATOM      4  C   LIG    1       -2.542  -4.275   4.677  0.00  0.00    +0.046 C 
ATOM      5  C   LIG    1       -1.290  -4.156   4.189  0.00  0.00    +0.141 C 
ATOM      6  C   LIG    1       -0.979  -4.123   2.713  0.00  0.00    +0.192 C 
ATOM      7  C   LIG    1       -2.179  -4.399   1.782  0.00  0.00    +0.090 C 
ATOM      8  C   LIG    1       -1.784  -3.948   0.337  0.00  0.00    +0.132 C 
ATOM      9  C   LIG    1       -0.396  -4.522  -0.047  0.00  0.00    +0.127 C 
ATOM     10  C   LIG    1        0.445  -5.116   0.834  0.00  0.00    +0.120 C 
ATOM     11  C   LIG    1        0.039  -5.195   2.269  0.00  0.00    +0.211 C 
ATOM     12  O   LIG    1        0.415  -6.128   2.974  0.00  0.00    -0.288 OA
ATOM     13  C   LIG    1       -2.722  -4.223   6.153  0.00  0.00    +0.197 C 
ATOM     14  O   LIG    1       -1.806  -4.591   6.875  0.00  0.00    -0.287 OA
ATOM     15  C   LIG    1       -3.998  -3.664   6.667  0.00  0.00    +0.067 A 
ATOM     16  C   LIG    1       -4.098  -3.224   8.002  0.00  0.00    +0.128 A 
ATOM     17  C   LIG    1       -5.284  -2.676   8.494  0.00  0.00    +0.046 A 
ATOM     18  C   LIG    1       -6.380  -2.542   7.653  0.00  0.00    +0.004 A 
ATOM     19  C   LIG    1       -6.288  -2.958   6.326  0.00  0.00    +0.005 A 
ATOM     20  C   LIG    1       -3.473  -3.812   2.377  0.00  0.00    +0.131 C 
ATOM     21  C   LIG    1       -5.106  -3.536   5.815  0.00  0.00    -0.030 A 
ENDROOT
BRANCH   8  22
ATOM     22  N   LIG    1       -2.894  -4.188  -0.629  0.00  0.00    -0.298 NA
ATOM     23  C   LIG    1       -3.141  -5.601  -0.932  0.00  0.00    +0.105 C 
ATOM     24  C   LIG    1       -2.712  -3.444  -1.885  0.00  0.00    +0.105 C 
ENDBRANCH   8  22
BRANCH  10  25
ATOM     25  C   LIG    1        1.733  -5.644   0.367  0.00  0.00    +0.219 C 
ATOM     26  N   LIG    1        1.993  -6.033  -0.832  0.00  0.00    -0.267 NA
ATOM     27  H   LIG    1        2.956  -6.369  -0.908  0.00  0.00    +0.190 HD
BRANCH  25  28
ATOM     28  O   LIG    1        2.688  -5.637   1.299  0.00  0.00    -0.492 OA
ATOM     29  H   LIG    1        3.525  -6.005   0.987  0.00  0.00    +0.294 HD
ENDBRANCH  25  28
ENDBRANCH  10  25
BRANCH   5  30
ATOM     30  O   LIG    1       -0.183  -3.909   4.994  0.00  0.00    -0.507 OA
ATOM     31  H   LIG    1       -0.423  -4.161   5.919  0.00  0.00    +0.292 HD
ENDBRANCH   5  30
BRANCH   6  32
ATOM     32  O   LIG    1       -0.449  -2.811   2.487  0.00  0.00    -0.373 OA
ATOM     33  H   LIG    1        0.167  -2.653   3.235  0.00  0.00    +0.211 HD
ENDBRANCH   6  32
BRANCH   9  34
ATOM     34  O   LIG    1       -0.050  -4.365  -1.389  0.00  0.00    -0.509 OA
ATOM     35  H   LIG    1        0.743  -4.919  -1.575  0.00  0.00    +0.292 HD
ENDBRANCH   9  34
BRANCH  16  36
ATOM     36  O   LIG    1       -3.024  -3.288   8.847  0.00  0.00    -0.506 OA
ATOM     37  H   LIG    1       -3.284  -3.022   9.742  0.00  0.00    +0.292 HD
ENDBRANCH  16  36
BRANCH  20  38
ATOM     38  O   LIG    1       -4.596  -4.107   1.544  0.00  0.00    -0.391 OA
ATOM     39  H   LIG    1       -4.318  -3.927   0.618  0.00  0.00    +0.210 HD
ENDBRANCH  20  38
TORSDOF 8
