REMARK  Name = *****
REMARK                            x       y       z     vdW  Elec       q    Type
REMARK                         _______ _______ _______ _____ _____    ______ ____
ROOT
ATOM      1  C   LIG    1        2.897  -2.933  -2.005  0.00  0.00    +0.150 A 
ATOM      2  C   LIG    1        3.484  -2.382  -3.229  0.00  0.00    +0.176 A 
ATOM      3  C   LIG    1        4.881  -2.785  -3.549  0.00  0.00    +0.075 A 
ATOM      4  C   LIG    1        5.480  -3.759  -2.685  0.00  0.00    +0.042 A 
ATOM      5  C   LIG    1        4.853  -4.354  -1.603  0.00  0.00    +0.063 A 
ATOM      6  C   LIG    1        3.600  -3.910  -1.254  0.00  0.00    +0.047 A 
ENDROOT
BRANCH   3   7
ATOM      7  N   LIG    1        5.750  -2.330  -4.564  0.00  0.00    -0.327 N 
ATOM      8  C   LIG    1        7.243  -2.472  -4.442  0.00  0.00    +0.105 C 
ATOM      9  C   LIG    1        7.840  -1.819  -5.688  0.00  0.00    +0.020 C 
ATOM     10  C   LIG    1        6.765  -2.128  -6.708  0.00  0.00    +0.020 C 
ATOM     11  C   LIG    1        5.466  -1.818  -5.914  0.00  0.00    +0.105 C 
ENDBRANCH   3   7
BRANCH   1  12
ATOM     12  S   LIG    1        1.424  -2.562  -0.980  0.00  0.00    +0.059 S 
ATOM     13  O   LIG    1        0.241  -2.250  -1.796  0.00  0.00    -0.153 OA
ATOM     14  O   LIG    1        1.263  -3.544   0.019  0.00  0.00    -0.153 OA
BRANCH  12  15
ATOM     15  N   LIG    1        2.001  -1.220  -0.092  0.00  0.00    -0.203 NA
ATOM     16  H   LIG    1        1.535  -0.326  -0.211  0.00  0.00    +0.144 HD
ATOM     17  H   LIG    1        2.247  -1.428   0.886  0.00  0.00    +0.144 HD
ENDBRANCH  12  15
ENDBRANCH   1  12
BRANCH   5  18
ATOM     18  C   LIG    1        5.550  -5.385  -0.799  0.00  0.00    +0.337 C 
ATOM     19  O   LIG    1        6.773  -5.448  -0.739  0.00  0.00    -0.245 OA
BRANCH  18  20
ATOM     20  O   LIG    1        4.744  -6.272  -0.181  0.00  0.00    -0.477 OA
ATOM     21  H   LIG    1        3.780  -6.186  -0.312  0.00  0.00    +0.295 HD
ENDBRANCH  18  20
ENDBRANCH   5  18
BRANCH   2  22
ATOM     22  O   LIG    1        2.890  -1.547  -4.215  0.00  0.00    -0.452 OA
BRANCH  22  23
ATOM     23  C   LIG    1        1.757  -0.769  -4.052  0.00  0.00    +0.129 A 
ATOM     24  C   LIG    1        0.937  -0.408  -5.125  0.00  0.00    +0.046 A 
ATOM     25  C   LIG    1       -0.374   0.086  -4.907  0.00  0.00    +0.004 A 
ATOM     26  C   LIG    1       -0.837   0.298  -3.616  0.00  0.00    +0.000 A 
ATOM     27  C   LIG    1        0.096   0.252  -2.598  0.00  0.00    +0.004 A 
ATOM     28  C   LIG    1        1.414  -0.177  -2.863  0.00  0.00    +0.046 A 
ENDBRANCH  22  23
ENDBRANCH   2  22
TORSDOF 7
