REMARK  Name = *****
REMARK                            x       y       z     vdW  Elec       q    Type
REMARK                         _______ _______ _______ _____ _____    ______ ____
ROOT
ATOM      1  C   LIG    1        2.008   0.797  -2.282  0.00  0.00    +0.000 C 
ATOM      2  C   LIG    1        2.614   1.729  -3.032  0.00  0.00    +0.000 C 
ENDROOT
BRANCH   1   5
ATOM      3  C   LIG    1        1.028  -1.736  -0.881  0.00  0.00    +0.044 C 
ATOM      4  C   LIG    1        2.195  -0.880  -0.472  0.00  0.00    -0.050 C 
ATOM      5  C   LIG    1        2.628   0.220  -1.114  0.00  0.00    +0.003 C 
BRANCH   4   6
ATOM      6  C   LIG    1        2.932  -1.376   0.676  0.00  0.00    +0.003 C 
ATOM      7  C   LIG    1        4.027  -2.139   0.544  0.00  0.00    +0.001 C 
BRANCH   7   8
ATOM      8  C   LIG    1        4.742  -2.666   1.683  0.00  0.00    +0.003 C 
ATOM      9  C   LIG    1        5.977  -3.207   1.681  0.00  0.00    -0.050 C 
ATOM     10  C   LIG    1        6.877  -3.346   0.479  0.00  0.00    +0.044 C 
BRANCH   9  11
ATOM     11  C   LIG    1        6.489  -3.712   2.945  0.00  0.00    +0.003 C 
ATOM     12  C   LIG    1        7.732  -3.530   3.408  0.00  0.00    +0.004 C 
BRANCH  12  13
ATOM     13  C   LIG    1        8.180  -4.006   4.717  0.00  0.00    -0.043 C 
ATOM     14  C   LIG    1        9.379  -4.985   4.682  0.00  0.00    -0.008 C 
ATOM     15  C   LIG    1        8.983  -6.304   3.974  0.00  0.00    +0.016 C 
ATOM     16  C   LIG    1       10.575  -4.381   3.906  0.00  0.00    +0.016 C 
ATOM     17  C   LIG    1        9.904  -5.304   6.114  0.00  0.00    +0.042 C 
ATOM     18  C   LIG    1        8.812  -5.410   7.168  0.00  0.00    +0.119 C 
ATOM     19  C   LIG    1        7.999  -4.119   7.226  0.00  0.00    +0.062 C 
ATOM     20  C   LIG    1        7.588  -3.593   5.861  0.00  0.00    -0.067 C 
ATOM     21  C   LIG    1        6.482  -2.566   5.964  0.00  0.00    +0.039 C 
BRANCH  18  22
ATOM     22  O   LIG    1        7.966  -6.532   6.928  0.00  0.00    -0.391 OA
ATOM     23  H   LIG    1        7.285  -6.256   6.289  0.00  0.00    +0.210 HD
ENDBRANCH  18  22
ENDBRANCH  12  13
ENDBRANCH   9  11
ENDBRANCH   7   8
ENDBRANCH   4   6
ENDBRANCH   1   5
BRANCH   2  24
ATOM     24  C   LIG    1        2.040   2.216  -4.266  0.00  0.00    +0.003 C 
ATOM     25  C   LIG    1        2.740   2.687  -5.317  0.00  0.00    -0.050 C 
ATOM     26  C   LIG    1        4.247   2.707  -5.396  0.00  0.00    +0.044 C 
BRANCH  25  27
ATOM     27  C   LIG    1        2.001   3.087  -6.513  0.00  0.00    +0.003 C 
ATOM     28  C   LIG    1        1.969   4.304  -7.081  0.00  0.00    +0.001 C 
BRANCH  28  29
ATOM     29  C   LIG    1        2.749   5.436  -6.651  0.00  0.00    +0.003 C 
ATOM     30  C   LIG    1        2.421   6.741  -6.662  0.00  0.00    -0.050 C 
ATOM     31  C   LIG    1        1.115   7.304  -7.130  0.00  0.00    +0.044 C 
BRANCH  30  32
ATOM     32  C   LIG    1        3.467   7.655  -6.216  0.00  0.00    +0.003 C 
ATOM     33  C   LIG    1        3.345   8.703  -5.383  0.00  0.00    +0.004 C 
BRANCH  33  34
ATOM     34  C   LIG    1        4.481   9.543  -4.986  0.00  0.00    -0.043 C 
ATOM     35  C   LIG    1        5.144  10.399  -6.099  0.00  0.00    -0.008 C 
ATOM     36  C   LIG    1        5.896   9.529  -7.137  0.00  0.00    +0.016 C 
ATOM     37  C   LIG    1        4.078  11.218  -6.868  0.00  0.00    +0.016 C 
ATOM     38  C   LIG    1        6.142  11.438  -5.510  0.00  0.00    +0.042 C 
ATOM     39  C   LIG    1        6.977  10.912  -4.352  0.00  0.00    +0.119 C 
ATOM     40  C   LIG    1        6.071  10.424  -3.225  0.00  0.00    +0.062 C 
ATOM     41  C   LIG    1        4.892   9.583  -3.691  0.00  0.00    -0.067 C 
ATOM     42  C   LIG    1        4.264   8.825  -2.543  0.00  0.00    +0.039 C 
BRANCH  39  43
ATOM     43  O   LIG    1        7.866   9.880  -4.774  0.00  0.00    -0.391 OA
ATOM     44  H   LIG    1        7.382   9.037  -4.726  0.00  0.00    +0.210 HD
ENDBRANCH  39  43
ENDBRANCH  33  34
ENDBRANCH  30  32
ENDBRANCH  28  29
ENDBRANCH  25  27
ENDBRANCH   2  24
TORSDOF 12
