REMARK  Name = *****
REMARK                            x       y       z     vdW  Elec       q    Type
REMARK                         _______ _______ _______ _____ _____    ______ ____
ROOT
ATOM      1  C   LIG    1        4.528   0.038  -1.017  0.00  0.00    -0.037 A 
ATOM      2  C   LIG    1        5.251  -1.150  -0.841  0.00  0.00    +0.004 A 
ATOM      3  C   LIG    1        6.640  -1.117  -0.717  0.00  0.00    +0.000 A 
ATOM      4  C   LIG    1        7.318   0.099  -0.771  0.00  0.00    +0.000 A 
ATOM      5  C   LIG    1        6.608   1.285  -0.948  0.00  0.00    +0.000 A 
ATOM      6  C   LIG    1        5.219   1.257  -1.071  0.00  0.00    +0.004 A 
ENDROOT
BRANCH   1   7
ATOM      7  C   LIG    1        3.030   0.000  -1.207  0.00  0.00    +0.155 C 
BRANCH   7   9
ATOM      8  O   LIG    1        1.341  -0.131  -2.907  0.00  0.00    -0.251 OA
ATOM      9  C   LIG    1        2.536  -0.099  -2.636  0.00  0.00    +0.309 C 
BRANCH   9  10
ATOM     10  O   LIG    1        3.471  -0.152  -3.608  0.00  0.00    -0.480 OA
ATOM     11  H   LIG    1        4.396  -0.123  -3.294  0.00  0.00    +0.295 HD
ENDBRANCH   9  10
ENDBRANCH   7   9
ENDBRANCH   1   7
TORSDOF 3
