REMARK  Name = *****
REMARK                            x       y       z     vdW  Elec       q    Type
REMARK                         _______ _______ _______ _____ _____    ______ ____
ROOT
ATOM      1  C   LIG    1        0.983  -0.360   0.515  0.00  0.00    +0.105 C 
ATOM      2  N   LIG    1        2.312  -0.072  -0.034  0.00  0.00    -0.302 NA
ENDROOT
BRANCH   2   3
ATOM      3  C   LIG    1        2.686   1.337   0.190  0.00  0.00    +0.089 C 
BRANCH   3   4
ATOM      4  C   LIG    1        2.812   1.729   1.677  0.00  0.00    +0.050 C 
BRANCH   4   5
ATOM      5  C   LIG    1        3.202   3.170   1.916  0.00  0.00    -0.046 A 
ATOM      6  C   LIG    1        3.884   3.508   3.095  0.00  0.00    +0.005 A 
ATOM      7  C   LIG    1        4.216   4.836   3.366  0.00  0.00    +0.025 A 
ATOM      8  C   LIG    1        3.874   5.833   2.455  0.00  0.00    +0.048 A 
ATOM      9  C   LIG    1        3.164   5.519   1.303  0.00  0.00    +0.025 A 
ATOM     10  C   LIG    1        2.823   4.196   1.040  0.00  0.00    +0.005 A 
BRANCH   8  11
ATOM     11  N   LIG    1        4.198   7.193   2.726  0.00  0.00    -0.221 N 
ATOM     12  H   LIG    1        5.096   7.335   3.188  0.00  0.00    +0.173 HD
BRANCH  11  13
ATOM     13  S   LIG    1        3.023   8.127   3.503  0.00  0.00    +0.040 S 
ATOM     14  O   LIG    1        3.757   9.218   4.119  0.00  0.00    -0.155 OA
ATOM     15  O   LIG    1        2.148   7.286   4.279  0.00  0.00    -0.155 OA
ATOM     16  C   LIG    1        2.125   8.802   2.121  0.00  0.00    +0.218 C 
ENDBRANCH  11  13
ENDBRANCH   8  11
ENDBRANCH   4   5
ENDBRANCH   3   4
ENDBRANCH   2   3
BRANCH   2  17
ATOM     17  C   LIG    1        2.360  -0.359  -1.488  0.00  0.00    +0.125 C 
BRANCH  17  18
ATOM     18  C   LIG    1        2.094  -1.834  -1.814  0.00  0.00    +0.244 C 
BRANCH  18  19
ATOM     19  O   LIG    1        2.270  -2.052  -3.217  0.00  0.00    -0.491 OA
BRANCH  19  20
ATOM     20  C   LIG    1        3.174  -3.012  -3.569  0.00  0.00    +0.121 A 
ATOM     21  C   LIG    1        3.751  -2.847  -4.827  0.00  0.00    +0.047 A 
ATOM     22  C   LIG    1        4.742  -3.724  -5.263  0.00  0.00    +0.028 A 
ATOM     23  C   LIG    1        5.134  -4.789  -4.452  0.00  0.00    +0.048 A 
ATOM     24  C   LIG    1        4.514  -5.000  -3.224  0.00  0.00    +0.028 A 
ATOM     25  C   LIG    1        3.530  -4.114  -2.787  0.00  0.00    +0.047 A 
BRANCH  23  26
ATOM     26  N   LIG    1        6.057  -5.748  -4.947  0.00  0.00    -0.221 N 
ATOM     27  H   LIG    1        6.838  -5.375  -5.496  0.00  0.00    +0.173 HD
BRANCH  26  28
ATOM     28  S   LIG    1        5.411  -7.117  -5.705  0.00  0.00    +0.040 S 
ATOM     29  O   LIG    1        4.407  -7.727  -4.834  0.00  0.00    -0.155 OA
ATOM     30  O   LIG    1        6.547  -7.865  -6.194  0.00  0.00    -0.155 OA
ATOM     31  C   LIG    1        4.581  -6.390  -7.099  0.00  0.00    +0.218 C 
ENDBRANCH  26  28
ENDBRANCH  23  26
ENDBRANCH  19  20
ENDBRANCH  18  19
ENDBRANCH  17  18
ENDBRANCH   2  17
TORSDOF 11
