REMARK  Name = *****
REMARK                            x       y       z     vdW  Elec       q    Type
REMARK                         _______ _______ _______ _____ _____    ______ ____
ROOT
ATOM      1  C   LIG    1        7.136  -3.578  -1.928  0.00  0.00    +0.133 C 
ATOM      2  C   LIG    1        5.677  -3.325  -2.381  0.00  0.00    +0.054 C 
ENDROOT
BRANCH   1   3
ATOM      3  C   LIG    1        7.989  -3.765  -3.229  0.00  0.00    +0.077 A 
ATOM      4  N   LIG    1        7.693  -4.825  -4.042  0.00  0.00    -0.257 NA
ATOM      5  C   LIG    1        8.455  -5.011  -5.149  0.00  0.00    +0.111 A 
ATOM      6  C   LIG    1        9.497  -4.188  -5.521  0.00  0.00    +0.020 A 
ATOM      7  C   LIG    1        9.780  -3.097  -4.710  0.00  0.00    +0.003 A 
ATOM      8  C   LIG    1        9.020  -2.885  -3.556  0.00  0.00    +0.026 A 
ENDBRANCH   1   3
BRANCH   1   9
ATOM      9  C   LIG    1        7.271  -4.833  -1.039  0.00  0.00    -0.010 A 
ATOM     10  C   LIG    1        6.411  -5.941  -1.167  0.00  0.00    +0.007 A 
ATOM     11  C   LIG    1        6.511  -7.045  -0.314  0.00  0.00    +0.000 A 
ATOM     12  C   LIG    1        7.470  -7.064   0.693  0.00  0.00    +0.000 A 
ATOM     13  C   LIG    1        8.366  -6.006   0.808  0.00  0.00    +0.000 A 
ATOM     14  C   LIG    1        8.293  -4.921  -0.071  0.00  0.00    +0.007 A 
ENDBRANCH   1   9
BRANCH   1  15
ATOM     15  O   LIG    1        7.620  -2.388  -1.221  0.00  0.00    -0.362 OA
BRANCH  15  16
ATOM     16  C   LIG    1        6.874  -1.935  -0.075  0.00  0.00    +0.177 C 
BRANCH  16  17
ATOM     17  C   LIG    1        7.604  -0.724   0.562  0.00  0.00    +0.112 C 
BRANCH  17  19
ATOM     18  C   LIG    1        6.900  -1.027   2.890  0.00  0.00    +0.104 C 
ATOM     19  N   LIG    1        6.951  -0.116   1.744  0.00  0.00    -0.306 NA
ATOM     20  C   LIG    1        7.649   1.117   2.132  0.00  0.00    +0.104 C 
ENDBRANCH  17  19
ENDBRANCH  16  17
ENDBRANCH  15  16
ENDBRANCH   1  15
TORSDOF 6
