REMARK  Name = *****
REMARK                            x       y       z     vdW  Elec       q    Type
REMARK                         _______ _______ _______ _____ _____    ______ ____
ROOT
ATOM      1  S   LIG    1        4.322  -1.237  -0.586  0.00  0.00    -0.027 S 
ENDROOT
BRANCH   1   2
ATOM      2  C   LIG    1        2.660  -1.935   0.098  0.00  0.00    +0.120 C 
ATOM      3  S   LIG    1        2.790  -2.795   1.568  0.00  0.00    -0.027 S 
BRANCH   2   4
ATOM      4  N   LIG    1        1.393  -1.583  -0.545  0.00  0.00    -0.319 N 
BRANCH   4   6
ATOM      5  C   LIG    1        0.518  -2.066  -2.784  0.00  0.00    +0.024 C 
ATOM      6  C   LIG    1        1.442  -1.210  -1.946  0.00  0.00    +0.103 C 
ENDBRANCH   4   6
BRANCH   4   7
ATOM      7  C   LIG    1       -0.018  -1.419   0.173  0.00  0.00    +0.103 C 
ATOM      8  C   LIG    1       -0.597   0.050   0.415  0.00  0.00    +0.024 C 
ENDBRANCH   4   7
ENDBRANCH   2   4
ENDBRANCH   1   2
BRANCH   1   9
ATOM      9  S   LIG    1        4.484   0.988  -0.279  0.00  0.00    -0.027 S 
BRANCH   9  10
ATOM     10  C   LIG    1        4.639   1.327   1.564  0.00  0.00    +0.120 C 
ATOM     11  S   LIG    1        6.222   1.395   2.162  0.00  0.00    -0.027 S 
BRANCH  10  12
ATOM     12  N   LIG    1        3.485   1.691   2.348  0.00  0.00    -0.319 N 
BRANCH  12  13
ATOM     13  C   LIG    1        3.484   2.485   3.568  0.00  0.00    +0.103 C 
ATOM     14  C   LIG    1        2.807   3.809   3.227  0.00  0.00    +0.024 C 
ENDBRANCH  12  13
BRANCH  12  15
ATOM     15  C   LIG    1        2.164   1.110   2.198  0.00  0.00    +0.103 C 
ATOM     16  C   LIG    1        2.059   0.446   1.011  0.00  0.00    +0.024 C 
ENDBRANCH  12  15
ENDBRANCH  10  12
ENDBRANCH   9  10
ENDBRANCH   1   9
TORSDOF 9
