REMARK  Name = *****
REMARK                            x       y       z     vdW  Elec       q    Type
REMARK                         _______ _______ _______ _____ _____    ______ ____
ROOT
ATOM      1  O   LIG    1        1.733   0.585  -2.590  0.00  0.00    -0.340 OA
ENDROOT
BRANCH   1   2
ATOM      2  C   LIG    1        2.040   1.843  -1.952  0.00  0.00    +0.282 C 
ATOM      3  C   LIG    1        2.587   2.905  -2.941  0.00  0.00    +0.201 C 
ATOM      4  C   LIG    1        1.505   3.681  -3.715  0.00  0.00    +0.179 C 
ATOM      5  C   LIG    1        0.098   3.474  -3.155  0.00  0.00    +0.177 C 
ATOM      6  C   LIG    1        0.176   3.411  -1.627  0.00  0.00    +0.178 C 
ATOM      7  O   LIG    1        0.982   2.335  -1.124  0.00  0.00    -0.341 OA
BRANCH   3   8
ATOM      8  O   LIG    1        3.360   3.884  -2.201  0.00  0.00    -0.384 OA
ATOM      9  H   LIG    1        2.993   3.940  -1.298  0.00  0.00    +0.210 HD
ENDBRANCH   3   8
BRANCH   4  10
ATOM     10  O   LIG    1        1.501   3.353  -5.114  0.00  0.00    -0.386 OA
ATOM     11  H   LIG    1        2.381   3.602  -5.460  0.00  0.00    +0.210 HD
ENDBRANCH   4  10
BRANCH   5  12
ATOM     12  O   LIG    1       -0.484   2.284  -3.705  0.00  0.00    -0.387 OA
ATOM     13  H   LIG    1       -0.307   2.354  -4.663  0.00  0.00    +0.210 HD
ENDBRANCH   5  12
BRANCH   6  14
ATOM     14  C   LIG    1       -1.224   3.330  -0.984  0.00  0.00    +0.190 C 
BRANCH  14  15
ATOM     15  O   LIG    1       -2.040   4.427  -1.388  0.00  0.00    -0.392 OA
ATOM     16  H   LIG    1       -2.928   4.248  -1.052  0.00  0.00    +0.209 HD
ENDBRANCH  14  15
ENDBRANCH   6  14
ENDBRANCH   1   2
BRANCH   1  18
ATOM     17  C   LIG    1        1.716  -1.865  -2.219  0.00  0.00    +0.178 C 
ATOM     18  C   LIG    1        1.494  -0.465  -1.612  0.00  0.00    +0.186 C 
ATOM     19  C   LIG    1        0.018  -0.477  -1.246  0.00  0.00    +0.207 C 
ATOM     20  C   LIG    1       -0.587  -1.558  -2.163  0.00  0.00    +0.221 C 
ATOM     21  O   LIG    1        0.475  -2.252  -2.838  0.00  0.00    -0.336 OA
BRANCH  19  22
ATOM     22  O   LIG    1       -0.157  -0.762   0.147  0.00  0.00    -0.384 OA
ATOM     23  H   LIG    1       -0.592  -1.629   0.191  0.00  0.00    +0.210 HD
ENDBRANCH  19  22
BRANCH  20  24
ATOM     24  O   LIG    1       -1.283  -2.528  -1.374  0.00  0.00    -0.361 OA
ATOM     25  H   LIG    1       -1.978  -2.865  -1.983  0.00  0.00    +0.213 HD
ENDBRANCH  20  24
BRANCH  17  26
ATOM     26  C   LIG    1        2.119  -2.951  -1.200  0.00  0.00    +0.190 C 
BRANCH  26  27
ATOM     27  O   LIG    1        1.152  -3.173  -0.168  0.00  0.00    -0.392 OA
ATOM     28  H   LIG    1        0.339  -3.477  -0.596  0.00  0.00    +0.209 HD
ENDBRANCH  26  27
ENDBRANCH  17  26
BRANCH  20  29
ATOM     29  C   LIG    1       -1.526  -0.966  -3.225  0.00  0.00    +0.223 C 
BRANCH  29  30
ATOM     30  O   LIG    1       -2.106  -2.045  -3.979  0.00  0.00    -0.390 OA
ATOM     31  H   LIG    1       -1.351  -2.489  -4.410  0.00  0.00    +0.210 HD
ENDBRANCH  29  30
ENDBRANCH  20  29
ENDBRANCH   1  18
TORSDOF 13
