REMARK  Name = *****
REMARK                            x       y       z     vdW  Elec       q    Type
REMARK                         _______ _______ _______ _____ _____    ______ ____
ROOT
ATOM      1  C   LIG    1        7.283   2.280   1.476  0.00  0.00    +0.040 C 
ATOM      2  C   LIG    1        7.777   3.043   2.493  0.00  0.00    -0.016 C 
ATOM      3  C   LIG    1        9.235   3.092   2.920  0.00  0.00    +0.204 C 
ATOM      4  C   LIG    1        9.106   3.188   4.441  0.00  0.00    +0.057 C 
ATOM      5  C   LIG    1        7.924   4.152   4.717  0.00  0.00    -0.016 C 
ATOM      6  C   LIG    1        8.509   5.585   4.807  0.00  0.00    +0.012 C 
ATOM      7  C   LIG    1        7.090   3.772   6.027  0.00  0.00    -0.020 C 
ATOM      8  C   LIG    1        6.669   2.250   5.968  0.00  0.00    +0.012 C 
ATOM      9  C   LIG    1        5.755   4.640   6.153  0.00  0.00    +0.030 C 
ATOM     10  C   LIG    1        5.728   5.818   7.254  0.00  0.00    -0.023 C 
ATOM     11  C   LIG    1        6.427   7.112   6.757  0.00  0.00    +0.012 C 
ATOM     12  C   LIG    1        6.436   5.387   8.600  0.00  0.00    +0.001 C 
ATOM     13  C   LIG    1        7.042   3.981   8.560  0.00  0.00    +0.005 C 
ATOM     14  C   LIG    1        5.638   5.639   9.910  0.00  0.00    +0.018 C 
ATOM     15  C   LIG    1        4.665   4.525  10.306  0.00  0.00    +0.010 C 
ATOM     16  C   LIG    1        4.948   7.006   9.878  0.00  0.00    +0.118 C 
ATOM     17  C   LIG    1        4.012   7.191   8.685  0.00  0.00    +0.032 C 
ATOM     18  C   LIG    1        4.247   6.220   7.522  0.00  0.00    +0.010 C 
ATOM     19  C   LIG    1        5.181   5.047   4.763  0.00  0.00    +0.119 C 
ATOM     20  C   LIG    1        5.566   4.073   3.654  0.00  0.00    +0.040 C 
ATOM     21  C   LIG    1        7.933   3.848   7.331  0.00  0.00    +0.008 C 
ATOM     22  C   LIG    1        7.072   4.080   3.389  0.00  0.00    +0.028 C 
ENDROOT
BRANCH  16  23
ATOM     23  O   LIG    1        5.963   8.016   9.857  0.00  0.00    -0.392 OA
ATOM     24  H   LIG    1        5.519   8.881   9.854  0.00  0.00    +0.210 HD
ENDBRANCH  16  23
BRANCH  19  25
ATOM     25  O   LIG    1        3.753   5.081   4.827  0.00  0.00    -0.392 OA
ATOM     26  H   LIG    1        3.432   5.463   3.991  0.00  0.00    +0.210 HD
ENDBRANCH  19  25
BRANCH   1  27
ATOM     27  C   LIG    1        8.118   1.339   0.665  0.00  0.00    +0.333 C 
ATOM     28  O   LIG    1        7.707   0.349   0.067  0.00  0.00    -0.245 OA
BRANCH  27  29
ATOM     29  O   LIG    1        9.408   1.697   0.553  0.00  0.00    -0.477 OA
ATOM     30  H   LIG    1        9.814   0.992   0.006  0.00  0.00    +0.295 HD
ENDBRANCH  27  29
ENDBRANCH   1  27
BRANCH   1  31
ATOM     31  C   LIG    1        5.839   2.289   1.003  0.00  0.00    +0.046 C 
BRANCH  31  32
ATOM     32  C   LIG    1        5.543   3.295  -0.133  0.00  0.00    +0.032 C 
BRANCH  32  35
ATOM     33  C   LIG    1        5.196   7.130   0.716  0.00  0.00    +0.038 C 
ATOM     34  C   LIG    1        4.814   5.740   0.269  0.00  0.00    -0.080 C 
ATOM     35  C   LIG    1        5.731   4.751   0.228  0.00  0.00    -0.028 C 
ATOM     36  C   LIG    1        3.369   5.596  -0.117  0.00  0.00    +0.038 C 
ENDBRANCH  32  35
ENDBRANCH  31  32
ENDBRANCH   1  31
BRANCH   3  37
ATOM     37  O   LIG    1        9.742   4.294   2.317  0.00  0.00    -0.457 OA
BRANCH  37  38
ATOM     38  C   LIG    1       11.060   4.561   2.435  0.00  0.00    +0.304 C 
ATOM     39  O   LIG    1       11.880   3.834   2.963  0.00  0.00    -0.251 OA
ATOM     40  C   LIG    1       11.350   5.914   1.858  0.00  0.00    +0.136 C 
ENDBRANCH  37  38
ENDBRANCH   3  37
TORSDOF 9
