REMARK  Name = *****
REMARK                            x       y       z     vdW  Elec       q    Type
REMARK                         _______ _______ _______ _____ _____    ______ ____
ROOT
ATOM      1  N   LIG    1        9.750  -0.287  -0.270  0.00  0.00    -0.168 N 
ATOM      2  H   LIG    1       10.178   0.628  -0.183  0.00  0.00    +0.178 HD
ATOM      3  C   LIG    1       10.310  -1.109  -1.244  0.00  0.00    +0.333 C 
ATOM      4  N   LIG    1        9.879  -2.419  -1.275  0.00  0.00    -0.231 N 
ATOM      5  H   LIG    1        9.358  -2.758  -0.466  0.00  0.00    +0.171 HD
ATOM      6  O   LIG    1       11.139  -0.618  -1.996  0.00  0.00    -0.250 OA
ENDROOT
BRANCH   4   7
ATOM      7  N   LIG    1       10.464  -3.345  -2.149  0.00  0.00    -0.225 NA
ATOM      8  C   LIG    1       10.472  -4.708  -1.609  0.00  0.00    +0.109 C 
ATOM      9  C   LIG    1       10.826  -5.513  -2.852  0.00  0.00    +0.009 C 
ATOM     10  C   LIG    1       10.019  -4.822  -3.953  0.00  0.00    +0.009 C 
ATOM     11  C   LIG    1        8.769  -5.688  -4.086  0.00  0.00    +0.005 C 
ATOM     12  C   LIG    1        9.299  -7.100  -3.891  0.00  0.00    +0.001 C 
ATOM     13  C   LIG    1       10.378  -6.972  -2.818  0.00  0.00    +0.005 C 
ATOM     14  C   LIG    1        9.756  -3.409  -3.438  0.00  0.00    +0.109 C 
ENDBRANCH   4   7
BRANCH   1  15
ATOM     15  S   LIG    1        8.604  -0.650   0.859  0.00  0.00    +0.076 S 
ATOM     16  O   LIG    1        8.638  -2.079   1.089  0.00  0.00    -0.150 OA
ATOM     17  O   LIG    1        8.747   0.302   1.937  0.00  0.00    -0.150 OA
BRANCH  15  22
ATOM     18  C   LIG    1        3.320   0.758  -1.770  0.00  0.00    +0.044 C 
ATOM     19  C   LIG    1        4.657   0.387  -1.195  0.00  0.00    -0.050 A 
ATOM     20  C   LIG    1        5.624   1.375  -0.971  0.00  0.00    +0.005 A 
ATOM     21  C   LIG    1        6.841   1.052  -0.369  0.00  0.00    +0.029 A 
ATOM     22  C   LIG    1        7.092  -0.269   0.011  0.00  0.00    +0.109 A 
ATOM     23  C   LIG    1        6.138  -1.266  -0.206  0.00  0.00    +0.029 A 
ATOM     24  C   LIG    1        4.920  -0.933  -0.804  0.00  0.00    +0.005 A 
ENDBRANCH  15  22
ENDBRANCH   1  15
TORSDOF 3
