REMARK  Name = *****
REMARK                            x       y       z     vdW  Elec       q    Type
REMARK                         _______ _______ _______ _____ _____    ______ ____
ROOT
ATOM      1  C   LIG    1        8.882  -0.929   3.798  0.00  0.00    +0.044 C 
ATOM      2  C   LIG    1        7.985  -1.825   2.984  0.00  0.00    -0.047 A 
ATOM      3  C   LIG    1        7.058  -1.315   2.039  0.00  0.00    -0.044 A 
ATOM      4  C   LIG    1        6.939   0.174   1.808  0.00  0.00    +0.044 C 
ATOM      5  C   LIG    1        6.231  -2.217   1.311  0.00  0.00    -0.036 A 
ATOM      6  C   LIG    1        6.393  -3.602   1.519  0.00  0.00    +0.004 A 
ATOM      7  C   LIG    1        7.296  -4.092   2.457  0.00  0.00    +0.001 A 
ATOM      8  C   LIG    1        8.079  -3.209   3.189  0.00  0.00    +0.003 A 
ENDROOT
BRANCH   5   9
ATOM      9  C   LIG    1        5.191  -1.723   0.293  0.00  0.00    +0.064 C 
ATOM     10  C   LIG    1        3.896  -2.554   0.316  0.00  0.00    +0.019 C 
BRANCH   9  11
ATOM     11  C   LIG    1        5.729  -1.599  -1.106  0.00  0.00    +0.043 A 
ATOM     12  N   LIG    1        6.989  -1.988  -1.496  0.00  0.00    -0.348 N 
ATOM     13  H   LIG    1        7.694  -2.411  -0.903  0.00  0.00    +0.167 HD
ATOM     14  C   LIG    1        7.143  -1.661  -2.811  0.00  0.00    +0.196 A 
ATOM     15  N   LIG    1        6.053  -1.117  -3.302  0.00  0.00    -0.244 NA
ATOM     16  C   LIG    1        5.171  -1.074  -2.256  0.00  0.00    +0.134 A 
ENDBRANCH   9  11
ENDBRANCH   5   9
TORSDOF 2
