REMARK  Name = *****
REMARK                            x       y       z     vdW  Elec       q    Type
REMARK                         _______ _______ _______ _____ _____    ______ ____
ROOT
ATOM      1  C   LIG    1        3.042  -0.791   1.286  0.00  0.00    +0.121 A 
ATOM      2  C   LIG    1        2.588  -2.108   1.229  0.00  0.00    +0.055 A 
ATOM      3  C   LIG    1        3.454  -3.196   1.461  0.00  0.00    +0.027 A 
ATOM      4  C   LIG    1        4.795  -2.926   1.802  0.00  0.00    +0.126 A 
ATOM      5  C   LIG    1        5.250  -1.607   1.855  0.00  0.00    +0.049 A 
ATOM      6  C   LIG    1        4.381  -0.547   1.592  0.00  0.00    +0.049 A 
ENDROOT
BRANCH   1   8
ATOM      7  C   LIG    1        0.917   0.119   0.754  0.00  0.00    +0.277 C 
ATOM      8  O   LIG    1        2.291   0.330   1.056  0.00  0.00    -0.495 OA
ENDBRANCH   1   8
BRANCH   4   9
ATOM      9  O   LIG    1        5.609  -4.012   2.002  0.00  0.00    -0.495 OA
ATOM     10  C   LIG    1        6.638  -3.838   2.971  0.00  0.00    +0.277 C 
ENDBRANCH   4   9
BRANCH   3  11
ATOM     11  C   LIG    1        2.950  -4.622   1.348  0.00  0.00    +0.165 C 
BRANCH  11  12
ATOM     12  C   LIG    1        3.067  -5.253  -0.075  0.00  0.00    +0.081 C 
ATOM     13  C   LIG    1        4.496  -5.438  -0.578  0.00  0.00    +0.027 C 
BRANCH  12  14
ATOM     14  N   LIG    1        2.383  -6.574  -0.065  0.00  0.00    -0.325 NA
ATOM     15  H   LIG    1        2.401  -6.957  -1.012  0.00  0.00    +0.118 HD
ATOM     16  H   LIG    1        2.943  -7.224   0.492  0.00  0.00    +0.118 HD
ENDBRANCH  12  14
ENDBRANCH  11  12
BRANCH  11  17
ATOM     17  O   LIG    1        1.555  -4.668   1.714  0.00  0.00    -0.386 OA
ATOM     18  H   LIG    1        1.237  -5.495   1.294  0.00  0.00    +0.210 HD
ENDBRANCH  11  17
ENDBRANCH   3  11
TORSDOF 6
