REMARK  Name = *****
REMARK                            x       y       z     vdW  Elec       q    Type
REMARK                         _______ _______ _______ _____ _____    ______ ____
ROOT
ATOM      1  C   LIG    1        0.226   6.686  -3.094  0.00  0.00    +0.059 C 
ENDROOT
BRANCH   1   2
ATOM      2  C   LIG    1       -1.101   6.115  -3.829  0.00  0.00    -0.033 A 
ATOM      3  C   LIG    1       -1.126   4.875  -4.510  0.00  0.00    +0.005 A 
ATOM      4  C   LIG    1       -2.223   4.445  -5.277  0.00  0.00    +0.000 A 
ATOM      5  C   LIG    1       -3.402   5.171  -5.306  0.00  0.00    +0.000 A 
ATOM      6  C   LIG    1       -3.482   6.314  -4.551  0.00  0.00    +0.000 A 
ATOM      7  C   LIG    1       -2.355   6.755  -3.852  0.00  0.00    +0.005 A 
ENDBRANCH   1   2
BRANCH   1   8
ATOM      8  C   LIG    1        0.360   8.263  -2.969  0.00  0.00    -0.033 A 
ATOM      9  C   LIG    1        1.603   8.908  -2.817  0.00  0.00    +0.005 A 
ATOM     10  C   LIG    1        1.739  10.315  -2.758  0.00  0.00    +0.000 A 
ATOM     11  C   LIG    1        0.635  11.146  -2.862  0.00  0.00    +0.000 A 
ATOM     12  C   LIG    1       -0.598  10.563  -3.004  0.00  0.00    +0.000 A 
ATOM     13  C   LIG    1       -0.711   9.170  -3.010  0.00  0.00    +0.005 A 
ENDBRANCH   1   8
BRANCH   1  14
ATOM     14  C   LIG    1        1.433   6.127  -4.117  0.00  0.00    +0.191 C 
BRANCH  14  16
ATOM     15  C   LIG    1        3.310   5.044  -2.663  0.00  0.00    +0.007 C 
ATOM     16  C   LIG    1        2.940   5.982  -3.806  0.00  0.00    +0.042 C 
ENDBRANCH  14  16
BRANCH  14  17
ATOM     17  O   LIG    1        1.301   6.490  -5.540  0.00  0.00    -0.460 OA
BRANCH  17  18
ATOM     18  C   LIG    1        1.742   7.688  -6.045  0.00  0.00    +0.304 C 
ATOM     19  O   LIG    1        1.510   8.776  -5.640  0.00  0.00    -0.251 OA
ATOM     20  C   LIG    1        2.600   7.430  -7.271  0.00  0.00    +0.136 C 
ENDBRANCH  17  18
ENDBRANCH  14  17
ENDBRANCH   1  14
BRANCH   1  21
ATOM     21  C   LIG    1        0.459   6.036  -1.597  0.00  0.00    +0.038 C 
BRANCH  21  22
ATOM     22  C   LIG    1       -0.355   6.372  -0.247  0.00  0.00    +0.054 C 
ATOM     23  C   LIG    1        0.449   5.899   1.021  0.00  0.00    +0.024 C 
BRANCH  22  24
ATOM     24  N   LIG    1       -1.712   5.809   0.007  0.00  0.00    -0.306 NA
ATOM     25  C   LIG    1       -2.721   6.189  -0.942  0.00  0.00    +0.105 C 
ATOM     26  C   LIG    1       -1.724   4.352   0.134  0.00  0.00    +0.105 C 
ENDBRANCH  22  24
ENDBRANCH  21  22
ENDBRANCH   1  21
TORSDOF 9
