REMARK  Name = *****
REMARK                            x       y       z     vdW  Elec       q    Type
REMARK                         _______ _______ _______ _____ _____    ______ ____
ROOT
ATOM      1  C   LIG    1        2.454  -1.462   0.568  0.00  0.00    +0.114 C 
ENDROOT
BRANCH   1   2
ATOM      2  C   LIG    1        2.555  -1.488   2.090  0.00  0.00    +0.217 C 
ATOM      3  N   LIG    1        2.108  -2.629   2.740  0.00  0.00    -0.292 N 
ATOM      4  C   LIG    1        1.911  -3.928   2.085  0.00  0.00    +0.184 C 
ATOM      5  C   LIG    1        2.922  -4.886   2.613  0.00  0.00    +0.151 A 
ATOM      6  N   LIG    1        3.267  -6.052   2.118  0.00  0.00    -0.132 NA
ATOM      7  N   LIG    1        4.270  -6.561   2.904  0.00  0.00    -0.125 NA
ATOM      8  C   LIG    1        4.533  -5.697   3.871  0.00  0.00    +0.238 A 
ATOM      9  N   LIG    1        3.656  -4.653   3.752  0.00  0.00    -0.305 N 
ATOM     10  C   LIG    1        3.510  -3.461   4.572  0.00  0.00    +0.144 C 
ATOM     11  C   LIG    1        2.231  -2.709   4.198  0.00  0.00    +0.130 C 
ATOM     12  O   LIG    1        3.067  -0.564   2.736  0.00  0.00    -0.276 OA
BRANCH   8  13
ATOM     13  C   LIG    1        5.603  -5.804   4.895  0.00  0.00    +0.452 C 
ATOM     14  F   LIG    1        6.838  -5.891   4.338  0.00  0.00    -0.163 F 
ATOM     15  F   LIG    1        5.445  -6.891   5.693  0.00  0.00    -0.163 F 
ATOM     16  F   LIG    1        5.638  -4.726   5.725  0.00  0.00    -0.163 F 
ENDBRANCH   8  13
ENDBRANCH   1   2
BRANCH   1  17
ATOM     17  C   LIG    1        2.304  -0.073  -0.073  0.00  0.00    +0.064 C 
BRANCH  17  18
ATOM     18  N   LIG    1        2.096  -0.251  -1.528  0.00  0.00    -0.327 NA
ATOM     19  H   LIG    1        2.983  -0.478  -1.981  0.00  0.00    +0.118 HD
ATOM     20  H   LIG    1        1.818   0.640  -1.944  0.00  0.00    +0.118 HD
ENDBRANCH  17  18
BRANCH  17  21
ATOM     21  C   LIG    1        3.439   0.935   0.223  0.00  0.00    +0.057 C 
BRANCH  21  22
ATOM     22  C   LIG    1        4.819   0.576  -0.279  0.00  0.00    -0.008 A 
ATOM     23  C   LIG    1        5.266   1.047  -1.522  0.00  0.00    +0.130 A 
ATOM     24  F   LIG    1        4.458   1.808  -2.272  0.00  0.00    -0.205 F 
ATOM     25  C   LIG    1        6.537   0.748  -2.004  0.00  0.00    +0.079 A 
ATOM     26  C   LIG    1        7.377  -0.049  -1.239  0.00  0.00    +0.161 A 
ATOM     27  F   LIG    1        8.598  -0.349  -1.701  0.00  0.00    -0.202 F 
ATOM     28  C   LIG    1        6.960  -0.525  -0.002  0.00  0.00    +0.159 A 
ATOM     29  F   LIG    1        7.775  -1.293   0.734  0.00  0.00    -0.203 F 
ATOM     30  C   LIG    1        5.694  -0.207   0.489  0.00  0.00    +0.048 A 
ENDBRANCH  21  22
ENDBRANCH  17  21
ENDBRANCH   1  17
TORSDOF 6
