REMARK  Name = *****
REMARK                            x       y       z     vdW  Elec       q    Type
REMARK                         _______ _______ _______ _____ _____    ______ ____
ROOT
ATOM      1  C   LIG    1        0.969   0.044  -0.001  0.00  0.00    +0.088 C 
ATOM      2  C   LIG    1        2.448  -0.014   0.062  0.00  0.00    +0.135 A 
ATOM      3  N   LIG    1        3.223  -1.159   0.158  0.00  0.00    -0.281 N 
ATOM      4  C   LIG    1        2.846  -2.495   0.455  0.00  0.00    +0.059 A 
ATOM      5  C   LIG    1        3.583  -3.590  -0.039  0.00  0.00    +0.026 A 
ATOM      6  C   LIG    1        4.666  -3.460  -1.068  0.00  0.00    +0.075 C 
ATOM      7  N   LIG    1        5.624  -2.597  -1.024  0.00  0.00    -0.275 NA
ATOM      8  C   LIG    1        5.686  -1.621   0.055  0.00  0.00    +0.218 C 
ATOM      9  C   LIG    1        3.256  -4.891   0.384  0.00  0.00    +0.032 A 
ATOM     10  C   LIG    1        2.188  -5.101   1.250  0.00  0.00    +0.042 A 
ATOM     11 CL   LIG    1        1.790  -6.699   1.746  0.00  0.00    -0.084 Cl
ATOM     12  C   LIG    1        1.438  -4.027   1.716  0.00  0.00    +0.022 A 
ATOM     13  C   LIG    1        1.768  -2.726   1.327  0.00  0.00    +0.028 A 
ATOM     14  C   LIG    1        4.517  -0.715  -0.006  0.00  0.00    +0.160 A 
ATOM     15  N   LIG    1        4.530   0.595  -0.122  0.00  0.00    -0.132 NA
ATOM     16  N   LIG    1        3.236   1.033  -0.080  0.00  0.00    -0.134 NA
ENDROOT
BRANCH   6  17
ATOM     17  C   LIG    1        4.649  -4.391  -2.245  0.00  0.00    +0.001 A 
ATOM     18  C   LIG    1        3.446  -4.795  -2.837  0.00  0.00    +0.010 A 
ATOM     19  C   LIG    1        3.463  -5.659  -3.935  0.00  0.00    +0.001 A 
ATOM     20  C   LIG    1        4.678  -6.109  -4.452  0.00  0.00    +0.000 A 
ATOM     21  C   LIG    1        5.879  -5.692  -3.879  0.00  0.00    +0.001 A 
ATOM     22  C   LIG    1        5.866  -4.830  -2.781  0.00  0.00    +0.010 A 
ENDBRANCH   6  17
TORSDOF 1
