REMARK  Name = *****
REMARK                            x       y       z     vdW  Elec       q    Type
REMARK                         _______ _______ _______ _____ _____    ______ ____
ROOT
ATOM      1  S   LIG    1        6.141  -3.583  -0.472  0.00  0.00    +0.076 S 
ATOM      2  O   LIG    1        5.658  -3.598  -1.841  0.00  0.00    -0.150 OA
ATOM      3  O   LIG    1        5.269  -3.919   0.631  0.00  0.00    -0.150 OA
ENDROOT
BRANCH   1   4
ATOM      4  C   LIG    1        7.541  -4.667  -0.395  0.00  0.00    +0.109 A 
ATOM      5  C   LIG    1        7.869  -5.282   0.814  0.00  0.00    +0.030 A 
ATOM      6  C   LIG    1        8.976  -6.130   0.871  0.00  0.00    +0.024 A 
ATOM      7  C   LIG    1        9.720  -6.416  -0.279  0.00  0.00    +0.025 A 
ATOM      8  C   LIG    1        9.397  -5.763  -1.474  0.00  0.00    +0.024 A 
ATOM      9  C   LIG    1        8.296  -4.907  -1.544  0.00  0.00    +0.030 A 
BRANCH   7  10
ATOM     10  N   LIG    1       10.904  -7.155  -0.180  0.00  0.00    -0.358 N 
ATOM     11  H   LIG    1       10.911  -7.817   0.590  0.00  0.00    +0.142 HD
ATOM     12  H   LIG    1       11.194  -7.583  -1.054  0.00  0.00    +0.142 HD
ENDBRANCH   7  10
ENDBRANCH   1   4
BRANCH   1  13
ATOM     13  N   LIG    1        6.859  -2.108  -0.062  0.00  0.00    -0.169 N 
ATOM     14  H   LIG    1        6.437  -1.830   0.823  0.00  0.00    +0.178 HD
BRANCH  13  20
ATOM     15  C   LIG    1        4.385   1.310  -2.364  0.00  0.00    +0.069 C 
ATOM     16  C   LIG    1        5.477   0.360  -2.067  0.00  0.00    +0.081 A 
ATOM     17  C   LIG    1        6.528  -0.035  -2.868  0.00  0.00    +0.127 A 
ATOM     18  C   LIG    1        7.007   0.318  -4.213  0.00  0.00    +0.088 C 
ATOM     19  O   LIG    1        7.210  -1.015  -2.208  0.00  0.00    -0.429 OA
ATOM     20  C   LIG    1        6.534  -1.153  -1.034  0.00  0.00    +0.308 A 
ATOM     21  N   LIG    1        5.545  -0.307  -0.863  0.00  0.00    -0.199 NA
ENDBRANCH  13  20
ENDBRANCH   1  13
TORSDOF 4
