REMARK  Name = *****
REMARK                            x       y       z     vdW  Elec       q    Type
REMARK                         _______ _______ _______ _____ _____    ______ ____
ROOT
ATOM      1  C   LIG    1        3.114  -1.369   0.050  0.00  0.00    +0.064 A 
ATOM      2  C   LIG    1        4.501  -1.399   0.316  0.00  0.00    +0.105 A 
ATOM      3  C   LIG    1        5.118  -2.635   0.717  0.00  0.00    +0.021 A 
ATOM      4  C   LIG    1        6.445  -2.384   0.903  0.00  0.00    +0.123 A 
ATOM      5  N   LIG    1        6.621  -1.049   0.612  0.00  0.00    -0.239 N 
ATOM      6  C   LIG    1        4.518  -3.876   0.888  0.00  0.00    +0.012 A 
ATOM      7  C   LIG    1        3.140  -3.816   0.612  0.00  0.00    +0.002 A 
ATOM      8  N   LIG    1        5.448  -0.438   0.269  0.00  0.00    -0.166 NA
ATOM      9  C   LIG    1        2.465  -2.621   0.213  0.00  0.00    +0.015 A 
ENDROOT
BRANCH   5  10
ATOM     10  C   LIG    1        7.847  -0.324   0.630  0.00  0.00    +0.065 A 
ATOM     11  C   LIG    1        9.046  -0.963   0.960  0.00  0.00    +0.028 A 
ATOM     12  C   LIG    1       10.248  -0.251   0.961  0.00  0.00    +0.006 A 
ATOM     13  C   LIG    1       10.289   1.112   0.647  0.00  0.00    -0.043 A 
ATOM     14  C   LIG    1        9.081   1.744   0.308  0.00  0.00    +0.006 A 
ATOM     15  C   LIG    1        7.870   1.038   0.304  0.00  0.00    +0.028 A 
BRANCH  13  16
ATOM     16  C   LIG    1       11.584   1.920   0.668  0.00  0.00    +0.033 C 
ATOM     17  C   LIG    1       12.584   1.526   1.782  0.00  0.00    +0.089 C 
ATOM     18  N   LIG    1       13.349   0.303   1.503  0.00  0.00    -0.315 NA
ATOM     19  H   LIG    1       14.008   0.135   2.262  0.00  0.00    +0.122 HD
ATOM     20  C   LIG    1       14.068   0.389   0.235  0.00  0.00    +0.081 C 
ATOM     21  C   LIG    1       13.136   0.688  -0.939  0.00  0.00    +0.016 C 
ATOM     22  C   LIG    1       12.291   1.938  -0.698  0.00  0.00    +0.010 C 
ENDBRANCH  13  16
ENDBRANCH   5  10
BRANCH   1  26
ATOM     23  N   LIG    1        3.065   0.993  -0.486  0.00  0.00    -0.325 N 
ATOM     24  H   LIG    1        4.066   1.026  -0.305  0.00  0.00    +0.145 HD
ATOM     25  H   LIG    1        2.582   1.827  -0.785  0.00  0.00    +0.145 HD
ATOM     26  C   LIG    1        2.368  -0.172  -0.367  0.00  0.00    +0.244 C 
ATOM     27  O   LIG    1        1.164  -0.222  -0.599  0.00  0.00    -0.270 OA
ENDBRANCH   1  26
TORSDOF 3
