REMARK  Name = *****
REMARK                            x       y       z     vdW  Elec       q    Type
REMARK                         _______ _______ _______ _____ _____    ______ ____
ROOT
ATOM      1  N   LIG    1       -1.418  -0.004  -5.468  0.00  0.00    -0.311 NA
ATOM      2  H   LIG    1       -1.546   1.004  -5.600  0.00  0.00    +0.122 HD
ENDROOT
BRANCH   1   3
ATOM      3  C   LIG    1       -0.482  -0.542  -6.484  0.00  0.00    +0.115 C 
BRANCH   3   4
ATOM      4  C   LIG    1        0.898   0.163  -6.411  0.00  0.00    +0.169 C 
BRANCH   4   5
ATOM      5  C   LIG    1        1.932  -0.414  -7.411  0.00  0.00    +0.203 C 
ATOM      6  O   LIG    1        1.407  -0.300  -8.746  0.00  0.00    -0.486 OA
ATOM      7  C   LIG    1        2.298  -0.608  -9.743  0.00  0.00    +0.124 A 
ATOM      8  C   LIG    1        3.686  -0.617  -9.562  0.00  0.00    -0.003 A 
ATOM      9  C   LIG    1        4.516  -0.957 -10.643  0.00  0.00    +0.045 A 
ATOM     10  C   LIG    1        3.953  -1.247 -11.882  0.00  0.00    +0.124 A 
ATOM     11  C   LIG    1        2.580  -1.212 -12.070  0.00  0.00    +0.042 A 
ATOM     12  F   LIG    1        4.755  -1.565 -12.909  0.00  0.00    -0.205 F 
ATOM     13  C   LIG    1        4.296  -0.290  -8.232  0.00  0.00    +0.042 C 
ATOM     14  C   LIG    1        1.747  -0.887 -10.996  0.00  0.00    +0.049 A 
ATOM     15  C   LIG    1        3.269   0.330  -7.295  0.00  0.00    +0.052 C 
ENDBRANCH   4   5
BRANCH   4  16
ATOM     16  O   LIG    1        1.408   0.051  -5.074  0.00  0.00    -0.387 OA
ATOM     17  H   LIG    1        0.639   0.220  -4.494  0.00  0.00    +0.210 HD
ENDBRANCH   4  16
ENDBRANCH   3   4
ENDBRANCH   1   3
BRANCH   1  18
ATOM     18  C   LIG    1       -2.751  -0.642  -5.582  0.00  0.00    +0.115 C 
BRANCH  18  19
ATOM     19  C   LIG    1       -3.763  -0.057  -4.559  0.00  0.00    +0.169 C 
BRANCH  19  20
ATOM     20  C   LIG    1       -5.118  -0.823  -4.575  0.00  0.00    +0.203 C 
ATOM     21  O   LIG    1       -5.640  -0.911  -5.912  0.00  0.00    -0.486 OA
ATOM     22  C   LIG    1       -6.622  -0.035  -6.282  0.00  0.00    +0.124 A 
ATOM     23  C   LIG    1       -7.225   0.881  -5.418  0.00  0.00    -0.003 A 
ATOM     24  C   LIG    1       -8.206   1.752  -5.921  0.00  0.00    +0.045 A 
ATOM     25  C   LIG    1       -8.581   1.672  -7.257  0.00  0.00    +0.124 A 
ATOM     26  C   LIG    1       -8.000   0.750  -8.113  0.00  0.00    +0.042 A 
ATOM     27  F   LIG    1       -9.525   2.503  -7.726  0.00  0.00    -0.205 F 
ATOM     28  C   LIG    1       -6.819   0.965  -3.978  0.00  0.00    +0.042 C 
ATOM     29  C   LIG    1       -7.012  -0.108  -7.622  0.00  0.00    +0.049 A 
ATOM     30  C   LIG    1       -6.151  -0.332  -3.553  0.00  0.00    +0.052 C 
ENDBRANCH  19  20
BRANCH  19  31
ATOM     31  O   LIG    1       -3.938   1.339  -4.838  0.00  0.00    -0.387 OA
ATOM     32  H   LIG    1       -4.375   1.401  -5.706  0.00  0.00    +0.210 HD
ENDBRANCH  19  31
ENDBRANCH  18  19
ENDBRANCH   1  18
TORSDOF 8
