REMARK  Name = *****
REMARK                            x       y       z     vdW  Elec       q    Type
REMARK                         _______ _______ _______ _____ _____    ______ ____
ROOT
ATOM      1  N   LIG    1        4.174   2.127   0.650  0.00  0.00    -0.296 NA
ENDROOT
BRANCH   1   2
ATOM      2  C   LIG    1        2.782   1.854   1.099  0.00  0.00    +0.112 C 
BRANCH   2   3
ATOM      3  C   LIG    1        2.238   0.477   0.690  0.00  0.00    +0.171 C 
BRANCH   3   4
ATOM      4  O   LIG    1        0.924   0.317   1.221  0.00  0.00    -0.394 OA
ATOM      5  H   LIG    1        0.635  -0.582   0.995  0.00  0.00    +0.209 HD
ENDBRANCH   3   4
ENDBRANCH   2   3
ENDBRANCH   1   2
BRANCH   1   6
ATOM      6  C   LIG    1        4.732   3.297   1.374  0.00  0.00    +0.112 C 
BRANCH   6   7
ATOM      7  C   LIG    1        4.821   3.167   2.909  0.00  0.00    +0.171 C 
BRANCH   7   8
ATOM      8  O   LIG    1        5.410   4.339   3.470  0.00  0.00    -0.394 OA
ATOM      9  H   LIG    1        6.367   4.262   3.371  0.00  0.00    +0.209 HD
ENDBRANCH   7   8
ENDBRANCH   6   7
ENDBRANCH   1   6
BRANCH   1  10
ATOM     10  C   LIG    1        4.153   2.377  -0.822  0.00  0.00    +0.112 C 
BRANCH  10  11
ATOM     11  C   LIG    1        5.518   2.658  -1.474  0.00  0.00    +0.171 C 
BRANCH  11  12
ATOM     12  O   LIG    1        6.426   1.594  -1.210  0.00  0.00    -0.394 OA
ATOM     13  H   LIG    1        6.255   1.323  -0.289  0.00  0.00    +0.209 HD
ENDBRANCH  11  12
ENDBRANCH  10  11
ENDBRANCH   1  10
TORSDOF 9
