REMARK  Name = *****
REMARK                            x       y       z     vdW  Elec       q    Type
REMARK                         _______ _______ _______ _____ _____    ______ ____
ROOT
ATOM      1  C   LIG    1        3.661   0.019   0.981  0.00  0.00    +0.170 C 
ENDROOT
BRANCH   1   2
ATOM      2  O   LIG    1        2.380  -0.404   1.464  0.00  0.00    -0.386 OA
ATOM      3  H   LIG    1        2.360  -0.288   2.434  0.00  0.00    +0.210 HD
ENDBRANCH   1   2
BRANCH   1   4
ATOM      4  C   LIG    1        3.840  -0.441  -0.498  0.00  0.00    +0.164 C 
BRANCH   4   6
ATOM      5  C   LIG    1        4.017  -2.251  -2.206  0.00  0.00    +0.192 C 
ATOM      6  N   LIG    1        3.798  -1.983  -0.715  0.00  0.00    +0.239 N 
ATOM      7  C   LIG    1        4.908  -2.672   0.064  0.00  0.00    +0.192 C 
ATOM      8  C   LIG    1        2.447  -2.569  -0.324  0.00  0.00    +0.192 C 
ENDBRANCH   4   6
ENDBRANCH   1   4
BRANCH   1   9
ATOM      9  C   LIG    1        3.730   1.546   1.140  0.00  0.00    +0.157 C 
BRANCH   9  10
ATOM     10  C   LIG    1        5.061   2.099   0.718  0.00  0.00    +0.307 C 
ATOM     11  O   LIG    1        5.972   1.407   0.275  0.00  0.00    -0.251 OA
BRANCH  10  12
ATOM     12  O   LIG    1        5.164   3.427   0.847  0.00  0.00    -0.480 OA
ATOM     13  H   LIG    1        4.388   3.893   1.230  0.00  0.00    +0.295 HD
ENDBRANCH  10  12
ENDBRANCH   9  10
ENDBRANCH   1   9
TORSDOF 6
