REMARK  Name = *****
REMARK                            x       y       z     vdW  Elec       q    Type
REMARK                         _______ _______ _______ _____ _____    ______ ____
ROOT
ATOM      1  C   LIG    1        2.997   0.708  -0.582  0.00  0.00    +0.148 C 
ATOM      2  C   LIG    1        1.546   0.902  -1.057  0.00  0.00    +0.242 C 
ATOM      3  O   LIG    1        0.761  -0.050  -1.134  0.00  0.00    -0.274 OA
ATOM      4  N   LIG    1        1.188   2.180  -1.470  0.00  0.00    -0.228 N 
ATOM      5  C   LIG    1       -0.119   2.381  -2.075  0.00  0.00    +0.143 C 
ATOM      6  C   LIG    1        1.950   3.313  -1.263  0.00  0.00    +0.315 C 
ATOM      7  O   LIG    1        1.590   4.445  -1.573  0.00  0.00    -0.252 OA
ATOM      8  N   LIG    1        3.126   3.151  -0.598  0.00  0.00    -0.239 N 
ATOM      9  H   LIG    1        3.541   4.010  -0.265  0.00  0.00    +0.159 HD
ATOM     10  C   LIG    1        3.508   2.008   0.039  0.00  0.00    +0.240 C 
ATOM     11  O   LIG    1        4.280   2.069   0.996  0.00  0.00    -0.274 OA
ENDROOT
BRANCH   1  12
ATOM     12  C   LIG    1        3.917   0.294  -1.767  0.00  0.00    -0.024 A 
ATOM     13  C   LIG    1        3.418  -0.405  -2.882  0.00  0.00    +0.005 A 
ATOM     14  C   LIG    1        4.260  -0.795  -3.928  0.00  0.00    +0.000 A 
ATOM     15  C   LIG    1        5.620  -0.510  -3.877  0.00  0.00    +0.000 A 
ATOM     16  C   LIG    1        6.143   0.154  -2.773  0.00  0.00    +0.000 A 
ATOM     17  C   LIG    1        5.304   0.543  -1.726  0.00  0.00    +0.005 A 
ENDBRANCH   1  12
BRANCH   1  19
ATOM     18  C   LIG    1        2.202  -0.246   1.706  0.00  0.00    +0.005 C 
ATOM     19  C   LIG    1        3.063  -0.449   0.459  0.00  0.00    +0.027 C 
ENDBRANCH   1  19
TORSDOF 2
