REMARK  Name = *****
REMARK                            x       y       z     vdW  Elec       q    Type
REMARK                         _______ _______ _______ _____ _____    ______ ____
ROOT
ATOM      1  C   LIG    1        1.913  -1.349  -2.862  0.00  0.00    +0.019 C 
ENDROOT
BRANCH   1   2
ATOM      2  C   LIG    1        0.379  -1.521  -3.124  0.00  0.00    +0.085 C 
BRANCH   2   3
ATOM      3  N   LIG    1       -0.426  -0.432  -3.759  0.00  0.00    -0.300 NA
BRANCH   3   5
ATOM      4  C   LIG    1       -2.852   0.013  -4.709  0.00  0.00    +0.020 C 
ATOM      5  C   LIG    1       -1.753  -0.932  -4.207  0.00  0.00    +0.081 C 
ENDBRANCH   3   5
BRANCH   3   6
ATOM      6  C   LIG    1       -0.468   0.854  -3.021  0.00  0.00    +0.058 C 
ATOM      7  C   LIG    1       -0.917   2.001  -3.935  0.00  0.00    +0.024 C 
BRANCH   6   8
ATOM      8  C   LIG    1       -1.065   0.923  -1.572  0.00  0.00    +0.053 C 
BRANCH   8   9
ATOM      9  C   LIG    1       -2.517   0.573  -1.345  0.00  0.00    -0.046 A 
ATOM     10  C   LIG    1       -3.477   1.510  -0.973  0.00  0.00    +0.007 A 
ATOM     11  C   LIG    1       -4.796   1.094  -0.722  0.00  0.00    +0.046 A 
ATOM     12  C   LIG    1       -5.211  -0.199  -1.053  0.00  0.00    +0.120 A 
ATOM     13  C   LIG    1       -4.276  -1.088  -1.536  0.00  0.00    +0.046 A 
ATOM     14  C   LIG    1       -2.938  -0.748  -1.463  0.00  0.00    +0.007 A 
BRANCH  12  15
ATOM     15  O   LIG    1       -6.498  -0.573  -0.781  0.00  0.00    -0.495 OA
ATOM     16  C   LIG    1       -7.007  -1.584  -1.653  0.00  0.00    +0.277 C 
ENDBRANCH  12  15
ENDBRANCH   8   9
ENDBRANCH   6   8
ENDBRANCH   3   6
ENDBRANCH   2   3
ENDBRANCH   1   2
BRANCH   1  17
ATOM     17  C   LIG    1        2.344  -0.288  -1.834  0.00  0.00    +0.042 C 
BRANCH  17  18
ATOM     18  C   LIG    1        3.849  -0.196  -1.586  0.00  0.00    +0.232 C 
BRANCH  18  19
ATOM     19  O   LIG    1        4.492   0.090  -2.833  0.00  0.00    -0.461 OA
BRANCH  19  20
ATOM     20  C   LIG    1        4.475   1.351  -3.246  0.00  0.00    +0.339 C 
ATOM     21  O   LIG    1        4.290   2.384  -2.543  0.00  0.00    -0.245 OA
BRANCH  20  22
ATOM     22  C   LIG    1        4.528   1.356  -4.704  0.00  0.00    +0.063 A 
ATOM     23  C   LIG    1        4.096   2.494  -5.380  0.00  0.00    +0.064 A 
ATOM     24  C   LIG    1        4.133   2.569  -6.770  0.00  0.00    +0.162 A 
ATOM     25  C   LIG    1        4.555   1.423  -7.494  0.00  0.00    +0.162 A 
ATOM     26  C   LIG    1        4.994   0.291  -6.787  0.00  0.00    +0.050 A 
ATOM     27  C   LIG    1        4.969   0.249  -5.406  0.00  0.00    +0.019 A 
BRANCH  24  28
ATOM     28  O   LIG    1        3.759   3.723  -7.427  0.00  0.00    -0.491 OA
ATOM     29  C   LIG    1        3.361   4.839  -6.608  0.00  0.00    +0.277 C 
ENDBRANCH  24  28
BRANCH  25  30
ATOM     30  O   LIG    1        4.580   1.425  -8.869  0.00  0.00    -0.491 OA
ATOM     31  C   LIG    1        4.303   0.157  -9.485  0.00  0.00    +0.277 C 
ENDBRANCH  25  30
ENDBRANCH  20  22
ENDBRANCH  19  20
ENDBRANCH  18  19
ENDBRANCH  17  18
ENDBRANCH   1  17
TORSDOF 14
