REMARK  Name = *****
REMARK                            x       y       z     vdW  Elec       q    Type
REMARK                         _______ _______ _______ _____ _____    ______ ____
ROOT
ATOM      1  C   LIG    1        3.102  -1.421  -0.063  0.00  0.00    -0.032 C 
ATOM      2  C   LIG    1        4.384  -1.665  -0.588  0.00  0.00    +0.030 C 
ATOM      3  C   LIG    1        4.781  -2.994  -0.765  0.00  0.00    +0.048 C 
ATOM      4  N   LIG    1        5.963  -3.505  -1.248  0.00  0.00    -0.354 NA
ATOM      5  H   LIG    1        6.745  -2.945  -1.555  0.00  0.00    +0.166 HD
ATOM      6  C   LIG    1        5.944  -4.879  -1.240  0.00  0.00    +0.048 C 
ATOM      7  C   LIG    1        4.697  -5.269  -0.752  0.00  0.00    +0.009 C 
ATOM      8  C   LIG    1        4.413  -6.646  -0.646  0.00  0.00    +0.030 C 
ATOM      9  C   LIG    1        5.391  -7.570  -1.026  0.00  0.00    +0.042 C 
ATOM     10 CL   LIG    1        5.054  -9.255  -0.897  0.00  0.00    -0.084 Cl
ATOM     11  C   LIG    1        6.631  -7.154  -1.504  0.00  0.00    +0.022 C 
ATOM     12  C   LIG    1        6.932  -5.794  -1.622  0.00  0.00    +0.027 C 
ATOM     13  C   LIG    1        3.964  -4.077  -0.450  0.00  0.00    +0.007 C 
ATOM     14  C   LIG    1        2.681  -3.821   0.071  0.00  0.00    +0.011 C 
ATOM     15  C   LIG    1        2.264  -2.497   0.262  0.00  0.00    +0.005 C 
ENDROOT
BRANCH   1  17
ATOM     16  C   LIG    1        3.491   0.783   1.080  0.00  0.00    +0.024 C 
ATOM     17  C   LIG    1        2.596   0.006   0.108  0.00  0.00    +0.124 C 
BRANCH  17  18
ATOM     18  C   LIG    1        2.450   0.772  -1.208  0.00  0.00    +0.312 C 
ATOM     19  O   LIG    1        2.480   1.994  -1.287  0.00  0.00    -0.250 OA
BRANCH  18  20
ATOM     20  O   LIG    1        2.209   0.013  -2.303  0.00  0.00    -0.480 OA
ATOM     21  H   LIG    1        2.206  -0.951  -2.141  0.00  0.00    +0.295 HD
ENDBRANCH  18  20
ENDBRANCH  17  18
ENDBRANCH   1  17
TORSDOF 3
