REMARK  Name = *****
REMARK                            x       y       z     vdW  Elec       q    Type
REMARK                         _______ _______ _______ _____ _____    ______ ____
ROOT
ATOM      1  O   LIG    1        7.463   0.488   0.825  0.00  0.00    -0.461 OA
ENDROOT
BRANCH   1   2
ATOM      2  C   LIG    1        6.311  -0.189   1.397  0.00  0.00    +0.187 C 
ATOM      3  C   LIG    1        5.592  -0.979   0.285  0.00  0.00    +0.099 C 
ATOM      4  C   LIG    1        4.463  -0.218  -0.444  0.00  0.00    +0.070 C 
ATOM      5  N   LIG    1        3.483   0.394   0.578  0.00  0.00    +0.243 N 
ATOM      6  C   LIG    1        2.907  -0.604   1.583  0.00  0.00    +0.192 C 
ATOM      7  C   LIG    1        2.243   1.023  -0.101  0.00  0.00    +0.192 C 
ATOM      8  C   LIG    1        4.386   1.496   1.166  0.00  0.00    +0.070 C 
ATOM      9  C   LIG    1        5.040   2.114  -0.087  0.00  0.00    +0.060 C 
ATOM     10  C   LIG    1        5.006   1.021  -1.160  0.00  0.00    +0.060 C 
ATOM     11  C   LIG    1        5.425   0.855   2.096  0.00  0.00    +0.099 C 
ENDBRANCH   1   2
BRANCH   1  12
ATOM     12  C   LIG    1        8.679   0.195   1.374  0.00  0.00    +0.310 C 
ATOM     13  O   LIG    1        8.867  -0.638   2.240  0.00  0.00    -0.251 OA
BRANCH  12  14
ATOM     14  C   LIG    1        9.808   1.037   0.761  0.00  0.00    +0.098 C 
BRANCH  14  15
ATOM     15  C   LIG    1       10.399   0.340  -0.486  0.00  0.00    +0.014 C 
BRANCH  15  17
ATOM     16  C   LIG    1       11.956  -1.332   0.702  0.00  0.00    +0.004 C 
ATOM     17  C   LIG    1       10.843  -1.123  -0.313  0.00  0.00    -0.003 C 
ENDBRANCH  15  17
ENDBRANCH  14  15
BRANCH  14  18
ATOM     18  C   LIG    1        9.408   2.504   0.437  0.00  0.00    +0.014 C 
BRANCH  18  19
ATOM     19  C   LIG    1        8.807   3.244   1.641  0.00  0.00    -0.003 C 
ATOM     20  C   LIG    1        8.447   4.696   1.357  0.00  0.00    +0.004 C 
ENDBRANCH  18  19
ENDBRANCH  14  18
ENDBRANCH  12  14
ENDBRANCH   1  12
TORSDOF 7
