REMARK  Name = *****
REMARK                            x       y       z     vdW  Elec       q    Type
REMARK                         _______ _______ _______ _____ _____    ______ ____
ROOT
ATOM      1  C   UNK    1        3.299   1.086  -1.332  0.00  0.00    +0.172 C 
ENDROOT
BRANCH   1   2
ATOM      2  C   UNK    1        4.747   1.300  -0.911  0.00  0.00    -0.013 A 
ATOM      3  C   UNK    1        5.072   1.750   0.380  0.00  0.00    +0.055 A 
ATOM      4  C   UNK    1        6.399   1.998   0.715  0.00  0.00    +0.159 A 
ATOM      5  C   UNK    1        7.425   1.768  -0.197  0.00  0.00    +0.158 A 
ATOM      6  C   UNK    1        7.133   1.284  -1.464  0.00  0.00    +0.049 A 
ATOM      7  C   UNK    1        5.796   1.057  -1.820  0.00  0.00    +0.010 A 
BRANCH   4   8
ATOM      8  O   UNK    1        6.692   2.490   1.955  0.00  0.00    -0.503 OA
ATOM      9  H   UNK    1        7.655   2.665   1.928  0.00  0.00    +0.292 HD
ENDBRANCH   4   8
BRANCH   5  10
ATOM     10  O   UNK    1        8.705   2.038   0.203  0.00  0.00    -0.503 OA
ATOM     11  H   UNK    1        9.309   1.805  -0.523  0.00  0.00    +0.292 HD
ENDBRANCH   5  10
ENDBRANCH   1   2
BRANCH   1  12
ATOM     12  O   UNK    1        2.714   0.097  -0.460  0.00  0.00    -0.385 OA
ATOM     13  H   UNK    1        3.438  -0.510  -0.207  0.00  0.00    +0.210 HD
ENDBRANCH   1  12
BRANCH   1  14
ATOM     14  C   UNK    1        2.418   2.368  -1.308  0.00  0.00    +0.194 C 
BRANCH  14  15
ATOM     15  N   UNK    1        2.950   3.451  -2.180  0.00  0.00    -0.316 NA
ATOM     16  H   UNK    1        2.913   3.127  -3.149  0.00  0.00    +0.119 HD
ATOM     17  H   UNK    1        2.254   4.206  -2.167  0.00  0.00    +0.119 HD
ENDBRANCH  14  15
BRANCH  14  18
ATOM     18  C   UNK    1        0.963   2.068  -1.742  0.00  0.00    +0.325 C 
ATOM     19  O   UNK    1        0.327   2.794  -2.499  0.00  0.00    -0.249 OA
BRANCH  18  20
ATOM     20  O   UNK    1        0.407   0.979  -1.175  0.00  0.00    -0.479 OA
ATOM     21  H   UNK    1        1.050   0.479  -0.622  0.00  0.00    +0.295 HD
ENDBRANCH  18  20
ENDBRANCH  14  18
ENDBRANCH   1  14
TORSDOF 8
