REMARK  Name = *****
REMARK                            x       y       z     vdW  Elec       q    Type
REMARK                         _______ _______ _______ _____ _____    ______ ____
ROOT
ATOM      1  CA  LIG    1        3.122   1.204   0.370  0.00  0.00    +0.182 C 
ATOM      2  N   LIG    1        2.688   2.505  -0.070  0.00  0.00    -0.302 N 
ATOM      3  H   LIG    1        2.337   2.711  -1.000  0.00  0.00    +0.149 HD
ATOM      4  C   LIG    1        2.758   3.462   0.914  0.00  0.00    +0.214 C 
ATOM      5  O   LIG    1        2.490   4.641   0.777  0.00  0.00    -0.276 OA
ATOM      6  C   LIG    1        3.279   2.803   2.162  0.00  0.00    +0.098 C 
ATOM      7  C   LIG    1        3.038   1.320   1.886  0.00  0.00    +0.043 C 
ENDROOT
BRANCH   1   9
ATOM      8  O   LIG    1        1.485   0.233  -1.153  0.00  0.00    -0.249 OA
ATOM      9  C   LIG    1        2.255   0.085  -0.214  0.00  0.00    +0.325 C 
BRANCH   9  10
ATOM     10  OXT LIG    1        2.471  -1.129   0.346  0.00  0.00    -0.479 OA
ATOM     11  HXT LIG    1        3.143  -1.155   1.051  0.00  0.00    +0.295 HD
ENDBRANCH   9  10
ENDBRANCH   1   9
TORSDOF 2
