REMARK  Name = *****
REMARK                            x       y       z     vdW  Elec       q    Type
REMARK                         _______ _______ _______ _____ _____    ______ ____
ROOT
ATOM      1  C   LIG    1        9.480   8.657   2.809  0.00  0.00    +0.253 C 
ATOM      2  C   LIG    1       10.836   9.024   2.205  0.00  0.00    +0.195 C 
ATOM      3  C   LIG    1       11.622   7.729   2.301  0.00  0.00    +0.178 C 
ATOM      4  C   LIG    1       11.042   7.027   3.529  0.00  0.00    +0.178 C 
ATOM      5  O   LIG    1        9.745   7.617   3.788  0.00  0.00    -0.346 OA
ENDROOT
BRANCH   1  10
ATOM      6  C   LIG    1        8.086  13.126   4.170  0.00  0.00    +0.151 A 
ATOM      7  C   LIG    1        8.101  11.714   4.167  0.00  0.00    +0.148 A 
ATOM      8  N   LIG    1        7.542  10.776   5.012  0.00  0.00    -0.231 NA
ATOM      9  C   LIG    1        7.970   9.617   4.569  0.00  0.00    +0.203 A 
ATOM     10  N   LIG    1        8.792   9.753   3.478  0.00  0.00    -0.285 N 
ATOM     11  C   LIG    1        8.846  11.094   3.180  0.00  0.00    +0.169 A 
ATOM     12  N   LIG    1        9.511  11.702   2.187  0.00  0.00    -0.202 NA
ATOM     13  C   LIG    1        9.422  13.042   2.250  0.00  0.00    +0.192 A 
ATOM     14  N   LIG    1        8.784  13.766   3.195  0.00  0.00    -0.205 NA
BRANCH   6  15
ATOM     15  N   LIG    1        7.428  13.925   5.106  0.00  0.00    -0.326 N 
ATOM     16  H   LIG    1        8.030  14.700   5.380  0.00  0.00    +0.147 HD
BRANCH  15  17
ATOM     17  C   LIG    1        6.726  13.251   6.192  0.00  0.00    +0.114 C 
BRANCH  17  18
ATOM     18  C   LIG    1        6.093  14.246   7.166  0.00  0.00    +0.087 C 
BRANCH  18  20
ATOM     19  C   LIG    1        8.319  14.131   8.833  0.00  0.00    +0.084 C 
ATOM     20  S   LIG    1        7.302  15.360   7.974  0.00  0.00    -0.163 S 
ENDBRANCH  18  20
ENDBRANCH  17  18
ENDBRANCH  15  17
ENDBRANCH   6  15
BRANCH  13  21
ATOM     21  S   LIG    1       10.247  13.952   0.953  0.00  0.00    -0.086 S 
BRANCH  21  22
ATOM     22  C   LIG    1        8.796  14.826   0.287  0.00  0.00    +0.086 C 
BRANCH  22  23
ATOM     23  C   LIG    1        9.159  15.714  -0.898  0.00  0.00    +0.124 C 
BRANCH  23  24
ATOM     24  C   LIG    1        7.924  16.412  -1.436  0.00  0.00    +0.391 C 
ATOM     25  F   LIG    1        7.715  16.089  -2.733  0.00  0.00    -0.171 F 
ATOM     26  F   LIG    1        8.062  17.755  -1.374  0.00  0.00    -0.171 F 
ATOM     27  F   LIG    1        6.802  16.090  -0.757  0.00  0.00    -0.171 F 
ENDBRANCH  23  24
ENDBRANCH  22  23
ENDBRANCH  21  22
ENDBRANCH  13  21
ENDBRANCH   1  10
BRANCH   3  28
ATOM     28  O   LIG    1       11.342   6.974   1.106  0.00  0.00    -0.386 OA
ATOM     29  H   LIG    1       12.170   6.519   0.860  0.00  0.00    +0.210 HD
ENDBRANCH   3  28
BRANCH   2  30
ATOM     30  O   LIG    1       10.761   9.462   0.847  0.00  0.00    -0.385 OA
ATOM     31  H   LIG    1       10.741   8.654   0.296  0.00  0.00    +0.210 HD
ENDBRANCH   2  30
BRANCH   4  32
ATOM     32  C   LIG    1       11.897   7.138   4.806  0.00  0.00    +0.206 C 
BRANCH  32  33
ATOM     33  O   LIG    1       13.204   6.598   4.639  0.00  0.00    -0.284 OA
BRANCH  33  34
ATOM     34  P   LIG    1       14.163   6.595   5.949  0.00  0.00    +0.482 P 
ATOM     35  O   LIG    1       13.892   7.682   6.906  0.00  0.00    -0.227 OA
BRANCH  34  36
ATOM     36  O   LIG    1       13.912   5.134   6.582  0.00  0.00    -0.302 OA
ATOM     37  H   LIG    1       13.997   5.157   7.554  0.00  0.00    +0.222 HD
ENDBRANCH  34  36
BRANCH  34  38
ATOM     38  O   LIG    1       15.653   6.527   5.375  0.00  0.00    -0.206 OA
BRANCH  38  39
ATOM     39  P   LIG    1       17.005   6.313   6.205  0.00  0.00    +0.386 P 
ATOM     40  O   LIG    1       16.813   6.416   7.695  0.00  0.00    -0.254 OA
BRANCH  39  41
ATOM     41  C   LIG    1       17.862   4.838   5.583  0.00  0.00    +0.318 C 
ATOM     42 CL   LIG    1       19.180   5.341   4.441  0.00  0.00    -0.075 Cl
ATOM     43 CL   LIG    1       16.686   3.870   4.598  0.00  0.00    -0.075 Cl
BRANCH  41  44
ATOM     44  P   LIG    1       18.605   3.662   6.757  0.00  0.00    +0.375 P 
ATOM     45  O   LIG    1       17.732   3.002   7.775  0.00  0.00    -0.255 OA
BRANCH  44  46
ATOM     46  O   LIG    1       19.345   2.534   5.871  0.00  0.00    -0.322 OA
ATOM     47  H   LIG    1       19.555   1.718   6.362  0.00  0.00    +0.220 HD
ENDBRANCH  44  46
BRANCH  44  48
ATOM     48  O   LIG    1       19.895   4.333   7.441  0.00  0.00    -0.322 OA
ATOM     49  H   LIG    1       20.300   3.786   8.143  0.00  0.00    +0.220 HD
ENDBRANCH  44  48
ENDBRANCH  41  44
ENDBRANCH  39  41
BRANCH  39  50
ATOM     50  O   LIG    1       17.858   7.598   5.708  0.00  0.00    -0.321 OA
ATOM     51  H   LIG    1       17.710   8.400   6.247  0.00  0.00    +0.220 HD
ENDBRANCH  39  50
ENDBRANCH  38  39
ENDBRANCH  34  38
ENDBRANCH  33  34
ENDBRANCH  32  33
ENDBRANCH   4  32
TORSDOF 22
