REMARK  Name = *****
REMARK                            x       y       z     vdW  Elec       q    Type
REMARK                         _______ _______ _______ _____ _____    ______ ____
ROOT
ATOM      1  C   LIG    1        7.181   3.922  -1.054  0.00  0.00    +0.044 C 
ATOM      2  C   LIG    1        6.469   3.299  -2.274  0.00  0.00    +0.122 C 
ATOM      3  C   LIG    1        5.441   4.349  -2.719  0.00  0.00    +0.036 C 
ATOM      4  C   LIG    1        5.105   5.173  -1.463  0.00  0.00    -0.001 C 
ATOM      5  C   LIG    1        5.434   6.676  -1.533  0.00  0.00    +0.034 C 
ATOM      6  C   LIG    1        6.124   7.002  -0.221  0.00  0.00    -0.073 C 
ATOM      7  C   LIG    1        6.586   8.226   0.106  0.00  0.00    -0.027 C 
ATOM      8  C   LIG    1        6.208   5.761   0.624  0.00  0.00    +0.035 C 
ATOM      9  C   LIG    1        5.985   4.605  -0.343  0.00  0.00    +0.006 C 
ENDROOT
BRANCH   1  11
ATOM     10  C   LIG    1        9.615   4.374  -1.593  0.00  0.00    +0.000 C 
ATOM     11  C   LIG    1        8.336   4.790  -1.516  0.00  0.00    -0.022 C 
BRANCH  10  12
ATOM     12  C   LIG    1       10.757   5.218  -2.111  0.00  0.00    +0.141 C 
BRANCH  12  13
ATOM     13  C   LIG    1       11.475   4.657  -3.369  0.00  0.00    +0.030 C 
ATOM     14  C   LIG    1       12.645   5.568  -3.793  0.00  0.00    +0.011 C 
BRANCH  13  15
ATOM     15  C   LIG    1       10.533   4.421  -4.567  0.00  0.00    +0.095 C 
BRANCH  15  18
ATOM     16  C   LIG    1        8.897   8.051  -5.639  0.00  0.00    +0.106 C 
ATOM     17  C   LIG    1        9.465   6.737  -5.368  0.00  0.00    -0.106 C 
ATOM     18  C   LIG    1        9.938   5.667  -5.058  0.00  0.00    -0.102 C 
ENDBRANCH  15  18
ENDBRANCH  13  15
ENDBRANCH  12  13
BRANCH  12  19
ATOM     19  O   LIG    1       11.712   5.305  -1.051  0.00  0.00    -0.388 OA
ATOM     20  H   LIG    1       11.221   5.535  -0.243  0.00  0.00    +0.210 HD
ENDBRANCH  12  19
ENDBRANCH  10  12
ENDBRANCH   1  11
BRANCH   2  21
ATOM     21  O   LIG    1        5.798   2.104  -1.871  0.00  0.00    -0.391 OA
ATOM     22  H   LIG    1        5.403   1.709  -2.668  0.00  0.00    +0.210 HD
ENDBRANCH   2  21
BRANCH   7  23
ATOM     23  C   LIG    1        7.342   8.633   1.353  0.00  0.00    +0.028 C 
BRANCH  23  24
ATOM     24  C   LIG    1        6.502   9.118   2.551  0.00  0.00    +0.015 C 
BRANCH  24  25
ATOM     25  C   LIG    1        5.650  10.349   2.241  0.00  0.00    +0.121 C 
BRANCH  25  26
ATOM     26  C   LIG    1        4.823  10.841   3.410  0.00  0.00    +0.307 C 
ATOM     27  O   LIG    1        4.368  10.147   4.308  0.00  0.00    -0.251 OA
BRANCH  26  28
ATOM     28  O   LIG    1        4.599  12.181   3.273  0.00  0.00    -0.457 OA
BRANCH  28  29
ATOM     29  C   LIG    1        3.684  12.741   4.217  0.00  0.00    +0.311 C 
BRANCH  29  30
ATOM     30  C   LIG    1        2.235  12.422   3.844  0.00  0.00    +0.200 C 
ATOM     31  O   LIG    1        1.788  12.737   2.739  0.00  0.00    -0.288 OA
BRANCH  30  32
ATOM     32  C   LIG    1        1.339  11.737   4.826  0.00  0.00    +0.021 A 
ATOM     33  C   LIG    1        0.005  11.481   4.469  0.00  0.00    +0.011 A 
ATOM     34  C   LIG    1       -0.872  10.894   5.387  0.00  0.00    +0.001 A 
ATOM     35  C   LIG    1       -0.429  10.573   6.669  0.00  0.00    +0.000 A 
ATOM     36  C   LIG    1        0.899  10.789   7.017  0.00  0.00    +0.001 A 
ATOM     37  C   LIG    1        1.780  11.354   6.097  0.00  0.00    +0.011 A 
ENDBRANCH  30  32
ENDBRANCH  29  30
ENDBRANCH  28  29
ENDBRANCH  26  28
ENDBRANCH  25  26
ENDBRANCH  24  25
ENDBRANCH  23  24
ENDBRANCH   7  23
TORSDOF 15
