REMARK  Name = *****
REMARK                            x       y       z     vdW  Elec       q    Type
REMARK                         _______ _______ _______ _____ _____    ______ ____
ROOT
ATOM      1  O   LIG    1       10.692   2.063  -0.428  0.00  0.00    -0.461 OA
ENDROOT
BRANCH   1   6
ATOM      2  N   LIG    1       13.685   0.702  -2.795  0.00  0.00    +0.247 N 
ATOM      3  C   LIG    1       12.964   0.346  -4.107  0.00  0.00    +0.193 C 
ATOM      4  C   LIG    1       13.097  -0.013  -1.541  0.00  0.00    +0.070 C 
ATOM      5  C   LIG    1       11.567   0.058  -1.572  0.00  0.00    +0.099 C 
ATOM      6  C   LIG    1       11.003   1.487  -1.708  0.00  0.00    +0.187 C 
ATOM      7  C   LIG    1       11.924   2.496  -2.421  0.00  0.00    +0.099 C 
ATOM      8  C   LIG    1       13.636   0.794  -0.349  0.00  0.00    +0.060 C 
ATOM      9  C   LIG    1       13.900   2.196  -0.882  0.00  0.00    +0.060 C 
ATOM     10  C   LIG    1       13.425   2.170  -2.337  0.00  0.00    +0.070 C 
BRANCH   2  12
ATOM     11  C   LIG    1       15.896   1.287  -4.023  0.00  0.00    +0.063 C 
ATOM     12  C   LIG    1       15.241   0.384  -2.970  0.00  0.00    +0.060 C 
ATOM     13  C   LIG    1       15.501  -1.085  -3.347  0.00  0.00    +0.063 C 
ENDBRANCH   2  12
ENDBRANCH   1   6
BRANCH   1  14
ATOM     14  C   LIG    1        9.587   1.565   0.204  0.00  0.00    +0.317 C 
ATOM     15  O   LIG    1        9.035   0.510  -0.124  0.00  0.00    -0.250 OA
BRANCH  14  16
ATOM     16  C   LIG    1        9.163   2.497   1.325  0.00  0.00    +0.153 C 
BRANCH  16  17
ATOM     17  C   LIG    1        7.663   2.447   1.582  0.00  0.00    -0.032 A 
ATOM     18  C   LIG    1        6.853   3.570   1.353  0.00  0.00    +0.004 A 
ATOM     19  C   LIG    1        5.474   3.507   1.583  0.00  0.00    +0.000 A 
ATOM     20  C   LIG    1        4.892   2.325   2.038  0.00  0.00    +0.000 A 
ATOM     21  C   LIG    1        5.683   1.204   2.263  0.00  0.00    +0.000 A 
ATOM     22  C   LIG    1        7.056   1.265   2.038  0.00  0.00    +0.004 A 
ENDBRANCH  16  17
BRANCH  16  23
ATOM     23  C   LIG    1        9.974   2.168   2.582  0.00  0.00    +0.175 C 
BRANCH  23  24
ATOM     24  O   LIG    1       11.376   2.285   2.328  0.00  0.00    -0.394 OA
ATOM     25  H   LIG    1       11.817   2.308   3.196  0.00  0.00    +0.209 HD
ENDBRANCH  23  24
ENDBRANCH  16  23
ENDBRANCH  14  16
ENDBRANCH   1  14
TORSDOF 7
