REMARK  Name = *****
REMARK                            x       y       z     vdW  Elec       q    Type
REMARK                         _______ _______ _______ _____ _____    ______ ____
ROOT
ATOM      1  C   LIG    1        2.912   1.303   0.712  0.00  0.00    +0.253 C 
ATOM      2  N   LIG    1        2.916   2.283  -0.369  0.00  0.00    -0.245 N 
ATOM      3  C   LIG    1        2.635   3.616   0.199  0.00  0.00    +0.274 C 
ATOM      4  C   LIG    1        1.567   3.803  -0.889  0.00  0.00    +0.161 C 
ATOM      5  O   LIG    1        2.205   3.487   1.572  0.00  0.00    -0.472 OA
ATOM      6  C   LIG    1        1.818   2.321  -1.189  0.00  0.00    +0.224 C 
ATOM      7  O   LIG    1        1.251   1.432  -1.775  0.00  0.00    -0.275 OA
ATOM      8  C   LIG    1        2.373   2.127   1.866  0.00  0.00    +0.130 C 
ATOM      9  C   LIG    1        1.986   1.628   3.050  0.00  0.00    +0.044 C 
ENDROOT
BRANCH   1  11
ATOM     10  O   LIG    1        4.669   0.095   1.917  0.00  0.00    -0.248 OA
ATOM     11  C   LIG    1        4.336   0.786   0.966  0.00  0.00    +0.333 C 
BRANCH  11  12
ATOM     12  O   LIG    1        5.212   1.119  -0.020  0.00  0.00    -0.479 OA
ATOM     13  H   LIG    1        4.753   1.632  -0.720  0.00  0.00    +0.295 HD
ENDBRANCH  11  12
ENDBRANCH   1  11
BRANCH   9  14
ATOM     14  C   LIG    1        1.426   2.418   4.184  0.00  0.00    +0.186 C 
BRANCH  14  15
ATOM     15  O   LIG    1        0.078   2.020   4.376  0.00  0.00    -0.391 OA
ATOM     16  H   LIG    1       -0.405   2.276   3.572  0.00  0.00    +0.210 HD
ENDBRANCH  14  15
ENDBRANCH   9  14
TORSDOF 4
