REMARK  Name = *****
REMARK                            x       y       z     vdW  Elec       q    Type
REMARK                         _______ _______ _______ _____ _____    ______ ____
ROOT
ATOM      1  N   LIG    1        3.728  -5.411  -0.778  0.00  0.00    -0.302 NA
ATOM      2  C   LIG    1        3.987  -5.737   0.627  0.00  0.00    +0.085 C 
ATOM      3  C   LIG    1        2.862  -6.532   1.293  0.00  0.00    +0.025 C 
ATOM      4  C   LIG    1        2.582  -7.853   0.555  0.00  0.00    +0.044 C 
ATOM      5  C   LIG    1        2.328  -7.521  -0.928  0.00  0.00    +0.025 C 
ATOM      6  C   LIG    1        3.442  -6.649  -1.534  0.00  0.00    +0.085 C 
ENDROOT
BRANCH   4   7
ATOM      7  C   LIG    1        3.647  -8.907   0.792  0.00  0.00    +0.095 A 
ATOM      8  C   LIG    1        4.134  -9.413   2.034  0.00  0.00    +0.045 A 
ATOM      9  C   LIG    1        5.096 -10.340   1.665  0.00  0.00    +0.170 A 
ATOM     10  C   LIG    1        5.867 -11.081   2.555  0.00  0.00    +0.088 A 
ATOM     11  C   LIG    1        5.623 -10.843   3.905  0.00  0.00    +0.127 A 
ATOM     12  C   LIG    1        4.662  -9.929   4.334  0.00  0.00    +0.039 A 
ATOM     13  F   LIG    1        6.333 -11.514   4.822  0.00  0.00    -0.205 F 
ATOM     14  O   LIG    1        5.158 -10.405   0.312  0.00  0.00    -0.354 OA
ATOM     15  C   LIG    1        3.897  -9.207   3.407  0.00  0.00    +0.016 A 
ATOM     16  N   LIG    1        4.246  -9.526  -0.237  0.00  0.00    -0.082 NA
ENDBRANCH   4   7
BRANCH   1  17
ATOM     17  C   LIG    1        2.724  -4.357  -1.040  0.00  0.00    +0.088 C 
BRANCH  17  18
ATOM     18  C   LIG    1        2.976  -3.012  -0.339  0.00  0.00    +0.056 C 
BRANCH  18  19
ATOM     19  C   LIG    1        1.980  -1.909  -0.732  0.00  0.00    +0.230 C 
BRANCH  19  20
ATOM     20  O   LIG    1        0.626  -2.227  -0.380  0.00  0.00    -0.488 OA
BRANCH  20  22
ATOM     21  C   LIG    1       -1.288  -1.254   0.709  0.00  0.00    +0.162 A 
ATOM     22  C   LIG    1       -0.185  -1.134  -0.154  0.00  0.00    +0.162 A 
ATOM     23  C   LIG    1        0.054   0.113  -0.762  0.00  0.00    +0.050 A 
ATOM     24  C   LIG    1       -0.705   1.238  -0.430  0.00  0.00    +0.015 A 
ATOM     25  C   LIG    1       -1.790   1.124   0.436  0.00  0.00    +0.021 A 
ATOM     26  C   LIG    1       -2.093  -0.142   0.979  0.00  0.00    +0.060 A 
BRANCH  25  27
ATOM     27  C   LIG    1       -2.596   2.320   0.779  0.00  0.00    +0.160 C 
ATOM     28  O   LIG    1       -2.056   3.439   0.856  0.00  0.00    -0.292 OA
ATOM     29  C   LIG    1       -4.074   2.103   1.056  0.00  0.00    +0.091 C 
ENDBRANCH  25  27
BRANCH  21  31
ATOM     30  C   LIG    1       -0.740  -3.339   1.690  0.00  0.00    +0.277 C 
ATOM     31  O   LIG    1       -1.724  -2.367   1.379  0.00  0.00    -0.491 OA
ENDBRANCH  21  31
ENDBRANCH  20  22
ENDBRANCH  19  20
ENDBRANCH  18  19
ENDBRANCH  17  18
ENDBRANCH   1  17
TORSDOF 8
