REMARK  Name = *****
REMARK                            x       y       z     vdW  Elec       q    Type
REMARK                         _______ _______ _______ _____ _____    ______ ____
ROOT
ATOM      1  N   LIG    1        5.630  -2.484  -0.227  0.00  0.00    -0.296 NA
ATOM      2  C   LIG    1        4.571  -2.658   0.784  0.00  0.00    +0.100 C 
ATOM      3  C   LIG    1        3.169  -2.962   0.196  0.00  0.00    +0.100 C 
ATOM      4  N   LIG    1        3.107  -4.077  -0.784  0.00  0.00    -0.289 NA
ATOM      5  C   LIG    1        4.269  -4.027  -1.709  0.00  0.00    +0.100 C 
ATOM      6  C   LIG    1        5.629  -3.712  -1.040  0.00  0.00    +0.100 C 
ENDROOT
BRANCH   1   7
ATOM      7  C   LIG    1        5.407  -1.251  -1.015  0.00  0.00    +0.119 C 
BRANCH   7  11
ATOM      8  C   LIG    1        9.776   0.924  -2.353  0.00  0.00    +0.044 C 
ATOM      9  C   LIG    1        8.585   0.079  -2.690  0.00  0.00    -0.050 A 
ATOM     10  C   LIG    1        7.603  -0.201  -1.727  0.00  0.00    +0.008 A 
ATOM     11  C   LIG    1        6.473  -0.961  -2.054  0.00  0.00    -0.033 A 
ATOM     12  C   LIG    1        6.345  -1.447  -3.365  0.00  0.00    +0.005 A 
ATOM     13  C   LIG    1        7.336  -1.210  -4.317  0.00  0.00    +0.001 A 
ATOM     14  C   LIG    1        8.449  -0.448  -3.981  0.00  0.00    +0.003 A 
ENDBRANCH   7  11
ENDBRANCH   1   7
BRANCH   4  15
ATOM     15  C   LIG    1        1.827  -4.039  -1.570  0.00  0.00    +0.117 C 
BRANCH  15  16
ATOM     16  C   LIG    1        0.572  -3.844  -0.706  0.00  0.00    -0.026 A 
ATOM     17  C   LIG    1        0.232  -4.755   0.307  0.00  0.00    +0.007 A 
ATOM     18  C   LIG    1       -0.939  -4.587   1.050  0.00  0.00    +0.020 A 
ATOM     19  C   LIG    1       -1.780  -3.509   0.785  0.00  0.00    +0.041 A 
ATOM     20 CL   LIG    1       -3.235  -3.318   1.682  0.00  0.00    -0.084 Cl
ATOM     21  C   LIG    1       -1.454  -2.587  -0.207  0.00  0.00    +0.020 A 
ATOM     22  C   LIG    1       -0.283  -2.753  -0.949  0.00  0.00    +0.007 A 
ENDBRANCH  15  16
BRANCH  15  23
ATOM     23  C   LIG    1        1.606  -5.241  -2.504  0.00  0.00    -0.026 A 
ATOM     24  C   LIG    1        2.032  -6.537  -2.171  0.00  0.00    +0.005 A 
ATOM     25  C   LIG    1        1.744  -7.622  -3.003  0.00  0.00    +0.000 A 
ATOM     26  C   LIG    1        1.012  -7.434  -4.173  0.00  0.00    +0.000 A 
ATOM     27  C   LIG    1        0.572  -6.159  -4.517  0.00  0.00    +0.000 A 
ATOM     28  C   LIG    1        0.867  -5.071  -3.692  0.00  0.00    +0.005 A 
ENDBRANCH  15  23
ENDBRANCH   4  15
TORSDOF 5
