REMARK  Name = *****
REMARK                            x       y       z     vdW  Elec       q    Type
REMARK                         _______ _______ _______ _____ _____    ______ ____
ROOT
ATOM      1  C   LIG    1       -8.995   5.641  -1.827  0.00  0.00    +0.021 C 
ATOM      2  C   LIG    1       -9.685   5.643  -3.208  0.00  0.00    +0.002 C 
ATOM      3  C   LIG    1       -9.810   7.135  -3.533  0.00  0.00    -0.000 C 
ATOM      4  C   LIG    1      -10.940   7.841  -2.764  0.00  0.00    +0.043 C 
ATOM      5  C   LIG    1      -12.235   7.070  -2.685  0.00  0.00    -0.002 A 
ATOM      6  C   LIG    1      -13.433   7.736  -2.331  0.00  0.00    +0.125 A 
ATOM      7  C   LIG    1      -14.625   7.009  -2.235  0.00  0.00    +0.046 A 
ATOM      8  C   LIG    1      -14.636   5.636  -2.470  0.00  0.00    +0.004 A 
ATOM      9  C   LIG    1      -13.457   4.976  -2.800  0.00  0.00    +0.004 A 
ATOM     10  C   LIG    1      -12.246   5.678  -2.900  0.00  0.00    -0.040 A 
ATOM     11  C   LIG    1       -8.442   7.684  -3.118  0.00  0.00    +0.035 C 
ATOM     12  C   LIG    1      -11.019   4.911  -3.332  0.00  0.00    +0.039 C 
ATOM     13  C   LIG    1       -7.967   6.787  -1.967  0.00  0.00    +0.118 C 
ENDROOT
BRANCH  13  14
ATOM     14  O   LIG    1       -7.862   7.524  -0.757  0.00  0.00    -0.392 OA
ATOM     15  H   LIG    1       -8.745   7.854  -0.519  0.00  0.00    +0.210 HD
ENDBRANCH  13  14
BRANCH   1  16
ATOM     16  C   LIG    1       -8.326   4.301  -1.462  0.00  0.00    +0.009 C 
BRANCH  16  17
ATOM     17  C   LIG    1       -7.579   4.350  -0.114  0.00  0.00    +0.032 C 
BRANCH  17  18
ATOM     18  C   LIG    1       -6.920   3.010   0.246  0.00  0.00    +0.115 C 
BRANCH  18  19
ATOM     19  O   LIG    1       -5.962   2.675  -0.757  0.00  0.00    -0.392 OA
ATOM     20  H   LIG    1       -5.306   3.393  -0.794  0.00  0.00    +0.210 HD
ENDBRANCH  18  19
BRANCH  18  21
ATOM     21  C   LIG    1       -6.239   3.060   1.625  0.00  0.00    +0.031 C 
BRANCH  21  22
ATOM     22  C   LIG    1       -5.571   1.730   1.981  0.00  0.00    +0.002 C 
BRANCH  22  23
ATOM     23  C   LIG    1       -4.863   1.780   3.338  0.00  0.00    -0.000 C 
BRANCH  23  25
ATOM     24  C   LIG    1       -3.125   0.049   2.677  0.00  0.00    +0.004 C 
ATOM     25  C   LIG    1       -4.192   0.448   3.687  0.00  0.00    -0.003 C 
ENDBRANCH  23  25
ENDBRANCH  22  23
ENDBRANCH  21  22
ENDBRANCH  18  21
ENDBRANCH  17  18
ENDBRANCH  16  17
ENDBRANCH   1  16
BRANCH   6  26
ATOM     26  O   LIG    1      -13.331   9.090  -2.099  0.00  0.00    -0.480 OA
BRANCH  26  27
ATOM     27  C   LIG    1      -14.538   9.773  -1.746  0.00  0.00    +0.349 C 
BRANCH  27  28
ATOM     28  C   LIG    1      -14.270  11.253  -1.504  0.00  0.00    +0.343 C 
ATOM     29  O   LIG    1      -15.129  12.051  -1.180  0.00  0.00    -0.247 OA
BRANCH  28  30
ATOM     30  O   LIG    1      -12.972  11.605  -1.681  0.00  0.00    -0.478 OA
ATOM     31  H   LIG    1      -12.436  10.828  -1.937  0.00  0.00    +0.295 HD
ENDBRANCH  28  30
ENDBRANCH  27  28
ENDBRANCH  26  27
ENDBRANCH   6  26
TORSDOF 13
