REMARK  Name = *****
REMARK                            x       y       z     vdW  Elec       q    Type
REMARK                         _______ _______ _______ _____ _____    ______ ____
ROOT
ATOM      1  N   LIG    1        4.257   4.172  -3.113  0.00  0.00    -0.286 N 
ATOM      2  C   LIG    1        4.595   3.939  -4.473  0.00  0.00    +0.305 C 
ATOM      3  N   LIG    1        4.763   5.023  -5.367  0.00  0.00    -0.283 N 
ATOM      4  C   LIG    1        5.712   4.878  -6.488  0.00  0.00    +0.124 C 
ATOM      5  C   LIG    1        5.779   6.086  -7.467  0.00  0.00    +0.103 C 
ATOM      6  N   LIG    1        5.771   7.428  -6.849  0.00  0.00    -0.302 NA
ATOM      7  C   LIG    1        6.974   7.660  -6.042  0.00  0.00    +0.105 C 
ATOM      8  C   LIG    1        4.542   7.512  -6.065  0.00  0.00    +0.103 C 
ATOM      9  C   LIG    1        4.416   6.400  -5.044  0.00  0.00    +0.124 C 
ATOM     10  O   LIG    1        4.788   2.760  -4.894  0.00  0.00    -0.252 OA
ENDROOT
BRANCH   1  12
ATOM     11  C   LIG    1        5.069   2.027  -1.973  0.00  0.00    +0.024 C 
ATOM     12  C   LIG    1        3.971   3.044  -2.218  0.00  0.00    +0.106 C 
ENDBRANCH   1  12
BRANCH   1  13
ATOM     13  C   LIG    1        4.157   5.500  -2.504  0.00  0.00    +0.106 C 
ATOM     14  C   LIG    1        3.925   5.765  -1.030  0.00  0.00    +0.024 C 
ENDBRANCH   1  13
TORSDOF 2
