REMARK  Name = *****
REMARK                            x       y       z     vdW  Elec       q    Type
REMARK                         _______ _______ _______ _____ _____    ______ ____
ROOT
ATOM      1  C   LIG    1       11.836  -1.870  -5.547  0.00  0.00    +0.046 C 
ATOM      2  C   LIG    1       12.942  -0.924  -4.950  0.00  0.00    +0.124 C 
ATOM      3  C   LIG    1       14.196  -1.104  -5.804  0.00  0.00    +0.063 C 
ATOM      4  C   LIG    1       13.871  -2.282  -6.710  0.00  0.00    +0.121 C 
ATOM      5  C   LIG    1       12.353  -2.190  -6.972  0.00  0.00    +0.031 C 
ENDROOT
BRANCH   4   6
ATOM      6  O   LIG    1       14.651  -2.236  -7.888  0.00  0.00    -0.391 OA
ATOM      7  H   LIG    1       14.304  -2.919  -8.488  0.00  0.00    +0.210 HD
ENDBRANCH   4   6
BRANCH   2   8
ATOM      8  O   LIG    1       13.225  -1.169  -3.576  0.00  0.00    -0.391 OA
ATOM      9  H   LIG    1       14.069  -0.737  -3.355  0.00  0.00    +0.210 HD
ENDBRANCH   2   8
BRANCH   1  11
ATOM     10  C   LIG    1       11.568  -4.410  -5.050  0.00  0.00    +0.003 C 
ATOM     11  C   LIG    1       11.580  -3.112  -4.684  0.00  0.00    -0.022 C 
BRANCH  10  12
ATOM     12  C   LIG    1       11.387  -5.656  -4.195  0.00  0.00    +0.081 C 
ATOM     13  C   LIG    1       11.399  -6.887  -5.147  0.00  0.00    +0.046 C 
BRANCH  12  14
ATOM     14  O   LIG    1       12.546  -5.764  -3.362  0.00  0.00    -0.385 OA
ATOM     15  H   LIG    1       13.291  -6.052  -3.919  0.00  0.00    +0.211 HD
ENDBRANCH  12  14
BRANCH  12  16
ATOM     16  C   LIG    1       10.143  -5.732  -3.254  0.00  0.00    +0.039 C 
BRANCH  16  17
ATOM     17  C   LIG    1       10.009  -4.609  -2.195  0.00  0.00    +0.003 C 
BRANCH  17  18
ATOM     18  C   LIG    1        8.828  -4.788  -1.228  0.00  0.00    -0.000 C 
BRANCH  18  20
ATOM     19  C   LIG    1        8.538  -2.268  -0.577  0.00  0.00    +0.004 C 
ATOM     20  C   LIG    1        8.717  -3.714  -0.125  0.00  0.00    -0.003 C 
ENDBRANCH  18  20
ENDBRANCH  17  18
ENDBRANCH  16  17
ENDBRANCH  12  16
ENDBRANCH  10  12
ENDBRANCH   1  11
BRANCH   5  21
ATOM     21  C   LIG    1       11.977  -1.197  -8.092  0.00  0.00    +0.033 C 
BRANCH  21  22
ATOM     22  C   LIG    1       10.506  -0.953  -8.325  0.00  0.00    -0.031 C 
ATOM     23  C   LIG    1        9.620  -1.553  -9.144  0.00  0.00    -0.031 C 
BRANCH  23  24
ATOM     24  C   LIG    1        9.711  -2.812  -9.963  0.00  0.00    +0.027 C 
BRANCH  24  25
ATOM     25  C   LIG    1       10.165  -2.648 -11.419  0.00  0.00    +0.015 C 
BRANCH  25  26
ATOM     26  C   LIG    1       10.152  -4.005 -12.140  0.00  0.00    +0.121 C 
BRANCH  26  27
ATOM     27  C   LIG    1       10.617  -3.922 -13.552  0.00  0.00    +0.305 C 
ATOM     28  O   LIG    1        9.903  -3.716 -14.564  0.00  0.00    -0.251 OA
BRANCH  27  29
ATOM     29  O   LIG    1       11.939  -4.128 -13.674  0.00  0.00    -0.481 OA
ATOM     30  H   LIG    1       12.109  -4.099 -14.642  0.00  0.00    +0.295 HD
ENDBRANCH  27  29
ENDBRANCH  26  27
ENDBRANCH  25  26
ENDBRANCH  24  25
ENDBRANCH  23  24
ENDBRANCH  21  22
ENDBRANCH   5  21
TORSDOF 16
