REMARK  Name = *****
REMARK                            x       y       z     vdW  Elec       q    Type
REMARK                         _______ _______ _______ _____ _____    ______ ____
ROOT
ATOM      1  C   LIG    1       -5.259  -1.788   0.433  0.00  0.00    +0.176 C 
ATOM      2  C   LIG    1       -6.145  -3.016   0.881  0.00  0.00    +0.018 C 
ATOM      3  C   LIG    1       -7.496  -2.564   1.467  0.00  0.00    +0.016 C 
ATOM      4  C   LIG    1       -5.274  -3.714   1.952  0.00  0.00    +0.006 C 
ATOM      5  C   LIG    1       -5.737  -5.149   2.318  0.00  0.00    +0.019 C 
ATOM      6  C   LIG    1       -6.100  -6.085   1.142  0.00  0.00    +0.004 C 
ATOM      7  C   LIG    1       -6.978  -5.345   0.123  0.00  0.00    +0.005 C 
ATOM      8  C   LIG    1       -4.848  -6.802   0.565  0.00  0.00    +0.024 C 
ATOM      9  C   LIG    1       -4.072  -7.533   1.673  0.00  0.00    -0.038 C 
ATOM     10  C   LIG    1       -3.407  -8.678   1.423  0.00  0.00    +0.050 C 
ATOM     11  C   LIG    1       -3.337  -9.272   0.068  0.00  0.00    +0.156 C 
ATOM     12  O   LIG    1       -2.681 -10.297  -0.107  0.00  0.00    -0.293 OA
ATOM     13  C   LIG    1       -4.005  -8.548  -1.067  0.00  0.00    +0.079 C 
ATOM     14  C   LIG    1       -4.080  -6.928   3.015  0.00  0.00    -0.051 C 
ATOM     15  C   LIG    1       -3.269  -7.555   4.125  0.00  0.00    +0.044 C 
ATOM     16  C   LIG    1       -5.217  -7.771  -0.576  0.00  0.00    +0.016 C 
ATOM     17  C   LIG    1       -4.802  -5.824   3.280  0.00  0.00    -0.019 C 
ATOM     18  C   LIG    1       -3.827  -3.530   1.461  0.00  0.00    +0.009 C 
ATOM     19  C   LIG    1       -6.407  -3.995  -0.305  0.00  0.00    +0.011 C 
ATOM     20  C   LIG    1       -3.848  -2.423   0.399  0.00  0.00    +0.057 C 
ENDROOT
BRANCH   1  21
ATOM     21  C   LIG    1       -5.268  -0.611   1.469  0.00  0.00    +0.174 C 
ATOM     22  O   LIG    1       -4.582  -0.649   2.497  0.00  0.00    -0.293 OA
ATOM     23  C   LIG    1       -6.239   0.534   1.279  0.00  0.00    +0.090 C 
ENDBRANCH   1  21
BRANCH   1  24
ATOM     24  O   LIG    1       -5.657  -1.425  -0.902  0.00  0.00    -0.450 OA
BRANCH  24  26
ATOM     25  C   LIG    1       -5.312  -0.465  -3.009  0.00  0.00    +0.136 C 
ATOM     26  C   LIG    1       -4.974  -0.450  -1.552  0.00  0.00    +0.305 C 
ATOM     27  O   LIG    1       -4.153   0.301  -1.038  0.00  0.00    -0.251 OA
ENDBRANCH  24  26
ENDBRANCH   1  24
TORSDOF 3
