REMARK  Name = *****
REMARK                            x       y       z     vdW  Elec       q    Type
REMARK                         _______ _______ _______ _____ _____    ______ ____
ROOT
ATOM      1  C   LIG    1        6.631  -2.401  -3.630  0.00  0.00    +0.065 C 
ATOM      2  C   LIG    1        6.257  -3.904  -3.622  0.00  0.00    +0.096 C 
ATOM      3  C   LIG    1        6.483  -4.576  -4.981  0.00  0.00    +0.065 C 
ATOM      4  C   LIG    1        6.726  -3.832  -6.089  0.00  0.00    +0.016 C 
ATOM      5  C   LIG    1        7.005  -4.372  -7.469  0.00  0.00    +0.061 C 
ATOM      6  N   LIG    1        6.790  -2.456  -5.989  0.00  0.00    -0.321 N 
ATOM      7  H   LIG    1        7.087  -1.954  -6.823  0.00  0.00    +0.152 HD
ATOM      8  C   LIG    1        6.874  -1.754  -4.802  0.00  0.00    +0.016 C 
ATOM      9  C   LIG    1        7.281  -0.311  -5.010  0.00  0.00    +0.061 C 
ENDROOT
BRANCH   2  10
ATOM     10  C   LIG    1        4.823  -4.177  -3.097  0.00  0.00    -0.029 A 
ATOM     11  C   LIG    1        3.729  -3.361  -3.433  0.00  0.00    +0.088 A 
ATOM     12  C   LIG    1        2.445  -3.660  -2.938  0.00  0.00    +0.273 A 
ATOM     13  C   LIG    1        2.223  -4.775  -2.120  0.00  0.00    +0.084 A 
ATOM     14  C   LIG    1        3.293  -5.604  -1.804  0.00  0.00    +0.007 A 
ATOM     15  C   LIG    1        4.575  -5.303  -2.281  0.00  0.00    +0.005 A 
BRANCH  12  16
ATOM     16  N   LIG    1        1.311  -2.795  -3.285  0.00  0.00    +0.080 N 
ATOM     17  O   LIG    1        1.534  -1.810  -4.003  0.00  0.00    -0.576 OA
ATOM     18  O   LIG    1        0.194  -3.099  -2.839  0.00  0.00    +0.041 OA
ENDBRANCH  12  16
ENDBRANCH   2  10
BRANCH   1  19
ATOM     19  C   LIG    1        6.698  -1.803  -2.283  0.00  0.00    +0.338 C 
ATOM     20  O   LIG    1        6.745  -2.492  -1.262  0.00  0.00    -0.245 OA
BRANCH  19  21
ATOM     21  O   LIG    1        6.562  -0.468  -2.322  0.00  0.00    -0.459 OA
BRANCH  21  22
ATOM     22  C   LIG    1        6.282   0.237  -1.102  0.00  0.00    +0.260 C 
BRANCH  22  23
ATOM     23  C   LIG    1        7.302   0.023   0.013  0.00  0.00    +0.200 C 
BRANCH  23  25
ATOM     24  C   LIG    1        9.579   0.245   0.559  0.00  0.00    +0.194 C 
ATOM     25  O   LIG    1        8.578   0.499  -0.418  0.00  0.00    -0.380 OA
ENDBRANCH  23  25
ENDBRANCH  22  23
ENDBRANCH  21  22
ENDBRANCH  19  21
ENDBRANCH   1  19
BRANCH   3  26
ATOM     26  C   LIG    1        6.495  -6.065  -4.957  0.00  0.00    +0.338 C 
ATOM     27  O   LIG    1        6.694  -6.728  -3.949  0.00  0.00    -0.245 OA
BRANCH  26  28
ATOM     28  O   LIG    1        6.193  -6.565  -6.173  0.00  0.00    -0.459 OA
BRANCH  28  29
ATOM     29  C   LIG    1        6.022  -7.985  -6.276  0.00  0.00    +0.171 C 
ATOM     30  C   LIG    1        6.457  -8.388  -7.678  0.00  0.00    +0.051 C 
ATOM     31  C   LIG    1        4.551  -8.287  -6.026  0.00  0.00    +0.051 C 
ENDBRANCH  28  29
ENDBRANCH  26  28
ENDBRANCH   3  26
TORSDOF 10
