REMARK  Name = *****
REMARK                            x       y       z     vdW  Elec       q    Type
REMARK                         _______ _______ _______ _____ _____    ______ ____
ROOT
ATOM      1  C   LIG    1        6.647   1.228   4.238  0.00  0.00    +0.002 C 
ATOM      2  C   LIG    1        8.122   0.686   4.293  0.00  0.00    -0.022 C 
ATOM      3  C   LIG    1        8.757   1.597   5.370  0.00  0.00    +0.021 C 
ATOM      4  C   LIG    1       10.264   1.459   5.417  0.00  0.00    -0.066 C 
ATOM      5  C   LIG    1       10.941   1.756   4.114  0.00  0.00    +0.031 C 
ATOM      6  C   LIG    1       10.369   0.874   2.999  0.00  0.00    +0.005 C 
ATOM      7  C   LIG    1       10.822   0.924   6.533  0.00  0.00    -0.001 C 
ATOM      8  C   LIG    1        8.191   2.986   5.071  0.00  0.00    +0.009 C 
ATOM      9  C   LIG    1        8.281  -0.802   4.654  0.00  0.00    +0.012 C 
ATOM     10  C   LIG    1        8.835   0.927   2.920  0.00  0.00    +0.008 C 
ATOM     11  C   LIG    1        6.839   2.758   4.383  0.00  0.00    +0.005 C 
ENDROOT
BRANCH   7  12
ATOM     12  C   LIG    1       12.184   0.503   6.725  0.00  0.00    -0.001 C 
ATOM     13  C   LIG    1       12.571  -0.466   7.599  0.00  0.00    -0.064 C 
ATOM     14  C   LIG    1       14.009  -0.969   7.754  0.00  0.00    +0.012 C 
ATOM     15  C   LIG    1       15.077  -0.289   6.886  0.00  0.00    +0.012 C 
ATOM     16  C   LIG    1       14.439  -0.924   9.228  0.00  0.00    +0.010 C 
ATOM     17  C   LIG    1       13.478  -1.700  10.125  0.00  0.00    +0.032 C 
ATOM     18  C   LIG    1       12.044  -1.207   9.962  0.00  0.00    +0.118 C 
ATOM     19  C   LIG    1       11.610  -1.230   8.492  0.00  0.00    +0.062 C 
BRANCH  18  20
ATOM     20  O   LIG    1       11.187  -2.046  10.733  0.00  0.00    -0.392 OA
ATOM     21  H   LIG    1       10.275  -1.737  10.594  0.00  0.00    +0.210 HD
ENDBRANCH  18  20
ENDBRANCH   7  12
BRANCH   1  22
ATOM     22  C   LIG    1        5.591   0.680   5.266  0.00  0.00    +0.012 C 
ATOM     23  C   LIG    1        4.167   1.133   4.902  0.00  0.00    +0.012 C 
BRANCH  22  25
ATOM     24  C   LIG    1        5.670   1.816   7.663  0.00  0.00    -0.027 C 
ATOM     25  C   LIG    1        5.956   0.890   6.728  0.00  0.00    -0.027 C 
BRANCH  24  26
ATOM     26  C   LIG    1        4.787   3.051   7.635  0.00  0.00    +0.011 C 
ATOM     27  C   LIG    1        5.640   4.326   7.764  0.00  0.00    +0.012 C 
BRANCH  26  29
ATOM     28  C   LIG    1        2.793   4.259   8.688  0.00  0.00    +0.008 C 
ATOM     29  C   LIG    1        3.712   3.030   8.767  0.00  0.00    -0.011 C 
ATOM     30  C   LIG    1        2.858   1.759   8.765  0.00  0.00    +0.008 C 
ENDBRANCH  26  29
ENDBRANCH  24  26
ENDBRANCH  22  25
ENDBRANCH   1  22
TORSDOF 6
