REMARK  Name = *****
REMARK                            x       y       z     vdW  Elec       q    Type
REMARK                         _______ _______ _______ _____ _____    ______ ____
ROOT
ATOM      1  C   LIG    1       -4.297   3.709   6.037  0.00  0.00    +0.021 C 
ATOM      2  C   LIG    1       -5.445   4.776   6.125  0.00  0.00    +0.016 C 
ATOM      3  C   LIG    1       -5.116   5.960   7.049  0.00  0.00    +0.001 C 
ATOM      4  C   LIG    1       -3.829   6.671   6.656  0.00  0.00    +0.000 C 
ATOM      5  C   LIG    1       -2.659   5.723   6.429  0.00  0.00    +0.001 C 
ATOM      6  C   LIG    1       -3.022   4.499   5.586  0.00  0.00    +0.016 C 
ENDROOT
BRANCH   1  10
ATOM      7  C   LIG    1       -3.952   1.395   9.822  0.00  0.00    +0.122 A 
ATOM      8  C   LIG    1       -5.155   1.840   9.298  0.00  0.00    +0.046 A 
ATOM      9  C   LIG    1       -5.211   2.693   8.197  0.00  0.00    +0.008 A 
ATOM     10  C   LIG    1       -4.085   3.000   7.424  0.00  0.00    -0.037 A 
ATOM     11  C   LIG    1       -2.863   2.505   7.915  0.00  0.00    +0.008 A 
ATOM     12  C   LIG    1       -2.795   1.764   9.129  0.00  0.00    +0.046 A 
BRANCH   7  13
ATOM     13  O   LIG    1       -3.817   0.633  10.964  0.00  0.00    -0.475 OA
BRANCH  13  14
ATOM     14  C   LIG    1       -4.955  -0.113  11.474  0.00  0.00    +0.203 C 
ATOM     15  C   LIG    1       -4.572  -0.694  12.858  0.00  0.00    +0.068 C 
BRANCH  14  17
ATOM     16  C   LIG    1       -4.048  -2.263  10.276  0.00  0.00    +0.008 C 
ATOM     17  C   LIG    1       -5.231  -1.322  10.541  0.00  0.00    +0.056 C 
ENDBRANCH  14  17
BRANCH  14  18
ATOM     18  C   LIG    1       -6.206   0.793  11.833  0.00  0.00    +0.349 C 
ATOM     19  O   LIG    1       -6.163   1.972  12.076  0.00  0.00    -0.246 OA
BRANCH  18  20
ATOM     20  O   LIG    1       -7.401   0.122  11.871  0.00  0.00    -0.478 OA
ATOM     21  H   LIG    1       -7.377  -0.835  11.841  0.00  0.00    +0.295 HD
ENDBRANCH  18  20
ENDBRANCH  14  18
ENDBRANCH  13  14
ENDBRANCH   7  13
ENDBRANCH   1  10
BRANCH   1  22
ATOM     22  C   LIG    1       -4.681   2.635   4.935  0.00  0.00    -0.033 A 
ATOM     23  C   LIG    1       -4.382   2.791   3.560  0.00  0.00    +0.050 A 
ATOM     24  C   LIG    1       -4.566   1.757   2.611  0.00  0.00    +0.122 A 
ATOM     25  C   LIG    1       -5.083   0.544   3.029  0.00  0.00    +0.045 A 
ATOM     26  C   LIG    1       -5.518   0.406   4.342  0.00  0.00    +0.004 A 
ATOM     27  C   LIG    1       -5.341   1.439   5.269  0.00  0.00    +0.005 A 
BRANCH  24  28
ATOM     28  O   LIG    1       -4.242   2.089   1.329  0.00  0.00    -0.475 OA
BRANCH  28  29
ATOM     29  C   LIG    1       -4.135   1.160   0.240  0.00  0.00    +0.203 C 
ATOM     30  C   LIG    1       -3.110   0.037   0.495  0.00  0.00    +0.068 C 
BRANCH  29  31
ATOM     31  C   LIG    1       -5.449   0.521  -0.278  0.00  0.00    +0.349 C 
ATOM     32  O   LIG    1       -5.518  -0.538  -0.894  0.00  0.00    -0.246 OA
BRANCH  31  33
ATOM     33  O   LIG    1       -6.566   1.276  -0.072  0.00  0.00    -0.478 OA
ATOM     34  H   LIG    1       -6.384   2.110   0.413  0.00  0.00    +0.295 HD
ENDBRANCH  31  33
ENDBRANCH  29  31
BRANCH  29  35
ATOM     35  C   LIG    1       -3.618   2.033  -0.946  0.00  0.00    +0.056 C 
ATOM     36  C   LIG    1       -2.320   2.797  -0.674  0.00  0.00    +0.008 C 
ENDBRANCH  29  35
ENDBRANCH  28  29
ENDBRANCH  24  28
ENDBRANCH   1  22
TORSDOF 12
