REMARK  Name = *****
REMARK                            x       y       z     vdW  Elec       q    Type
REMARK                         _______ _______ _______ _____ _____    ______ ____
ROOT
ATOM      1  N   LIG    1       -0.306  -2.281  -1.968  0.00  0.00    -0.297 N 
ATOM      2  C   LIG    1       -1.660  -2.255  -2.397  0.00  0.00    +0.048 A 
ATOM      3  C   LIG    1       -2.002  -2.208  -3.761  0.00  0.00    +0.034 A 
ATOM      4  C   LIG    1       -3.350  -2.181  -4.160  0.00  0.00    +0.017 A 
ATOM      5  C   LIG    1       -4.373  -2.241  -3.216  0.00  0.00    +0.001 A 
ATOM      6  C   LIG    1       -4.056  -2.341  -1.871  0.00  0.00    +0.002 A 
ATOM      7  S   LIG    1       -0.777  -2.153  -5.054  0.00  0.00    -0.086 S 
ATOM      8  C   LIG    1        0.670  -2.735  -4.188  0.00  0.00    +0.034 A 
ATOM      9  C   LIG    1        1.740  -3.191  -4.977  0.00  0.00    +0.017 A 
ATOM     10  C   LIG    1        2.916  -3.644  -4.385  0.00  0.00    +0.001 A 
ATOM     11  C   LIG    1        3.031  -3.641  -3.002  0.00  0.00    +0.002 A 
ATOM     12  C   LIG    1        1.973  -3.178  -2.211  0.00  0.00    +0.024 A 
ATOM     13  C   LIG    1       -2.717  -2.355  -1.468  0.00  0.00    +0.024 A 
ATOM     14  C   LIG    1        0.774  -2.706  -2.783  0.00  0.00    +0.048 A 
ENDROOT
BRANCH   1  15
ATOM     15  C   LIG    1        0.022  -1.486  -0.755  0.00  0.00    +0.129 C 
BRANCH  15  17
ATOM     16  C   LIG    1        0.006   0.743  -2.041  0.00  0.00    +0.026 C 
ATOM     17  C   LIG    1        0.772  -0.143  -1.045  0.00  0.00    +0.071 C 
BRANCH  17  18
ATOM     18  N   LIG    1        1.116   0.668   0.158  0.00  0.00    -0.304 NA
ATOM     19  C   LIG    1        2.162   0.045   0.967  0.00  0.00    +0.105 C 
ATOM     20  C   LIG    1       -0.026   1.036   0.994  0.00  0.00    +0.105 C 
ENDBRANCH  17  18
ENDBRANCH  15  17
ENDBRANCH   1  15
TORSDOF 3
