REMARK  Name = *****
REMARK                            x       y       z     vdW  Elec       q    Type
REMARK                         _______ _______ _______ _____ _____    ______ ____
ROOT
ATOM      1  C   LIG    1       -2.734   1.168   0.393  0.00  0.00    +0.193 C 
ATOM      2  N   LIG    1       -3.679  -0.300   0.507  0.00  0.00    +0.246 N 
ATOM      3  C   LIG    1       -3.095  -1.014  -0.833  0.00  0.00    +0.104 C 
ATOM      4  C   LIG    1       -4.407  -1.580  -0.807  0.00  0.00    +0.123 C 
ATOM      5  C   LIG    1       -5.191   0.146  -0.880  0.00  0.00    +0.082 C 
ATOM      6  C   LIG    1       -5.279   1.402   0.513  0.00  0.00    +0.253 C 
ATOM      7  O   LIG    1       -6.047   2.383  -0.242  0.00  0.00    -0.476 OA
ATOM      8  C   LIG    1       -5.419   2.359  -1.528  0.00  0.00    +0.167 A 
ATOM      9  C   LIG    1       -5.049   3.464  -2.253  0.00  0.00    +0.159 A 
ATOM     10  C   LIG    1       -4.041   3.311  -3.219  0.00  0.00    +0.049 A 
ATOM     11  C   LIG    1       -3.326   2.088  -3.354  0.00  0.00    +0.008 A 
ATOM     12  C   LIG    1       -3.688   0.989  -2.581  0.00  0.00    -0.034 A 
ATOM     13  C   LIG    1       -5.008   0.563   2.218  0.00  0.00    +0.174 C 
ATOM     14  O   LIG    1       -4.952   1.236   3.247  0.00  0.00    -0.293 OA
ATOM     15  C   LIG    1       -4.920  -1.329   2.334  0.00  0.00    +0.081 C 
ATOM     16  C   LIG    1       -4.848   1.128  -1.863  0.00  0.00    +0.015 A 
ATOM     17  C   LIG    1       -6.515  -0.312  -0.821  0.00  0.00    +0.070 C 
ATOM     18  C   LIG    1       -4.504  -2.440   0.854  0.00  0.00    +0.049 C 
ATOM     19  C   LIG    1       -2.800  -0.193  -2.193  0.00  0.00    +0.092 C 
ATOM     20  C   LIG    1       -5.776  -0.637   0.465  0.00  0.00    +0.134 C 
ENDROOT
BRANCH   4  21
ATOM     21  O   LIG    1       -4.765  -2.426  -1.864  0.00  0.00    -0.382 OA
ATOM     22  H   LIG    1       -4.481  -3.340  -1.678  0.00  0.00    +0.210 HD
ENDBRANCH   4  21
BRANCH   9  23
ATOM     23  O   LIG    1       -5.538   4.702  -1.989  0.00  0.00    -0.503 OA
ATOM     24  H   LIG    1       -6.234   4.605  -1.313  0.00  0.00    +0.292 HD
ENDBRANCH   9  23
BRANCH   2  25
ATOM     25  C   LIG    1       -2.525  -0.847   1.792  0.00  0.00    +0.137 C 
BRANCH  25  26
ATOM     26  C   LIG    1       -1.028  -0.713   1.571  0.00  0.00    +0.035 C 
ATOM     27  C   LIG    1       -0.228   0.300   2.363  0.00  0.00    +0.009 C 
ATOM     28  C   LIG    1       -0.096  -1.160   2.676  0.00  0.00    +0.009 C 
ENDBRANCH  25  26
ENDBRANCH   2  25
TORSDOF 4
