REMARK  Name = *****
REMARK                            x       y       z     vdW  Elec       q    Type
REMARK                         _______ _______ _______ _____ _____    ______ ____
ROOT
ATOM      1  C   LIG    1        4.210  -0.931   0.899  0.00  0.00    -0.015 A 
ATOM      2  C   LIG    1        5.127  -0.249   0.082  0.00  0.00    +0.028 A 
ATOM      3  C   LIG    1        4.796   0.989  -0.495  0.00  0.00    +0.063 A 
ATOM      4 CL   LIG    1        5.989   1.761  -1.488  0.00  0.00    -0.082 Cl
ATOM      5  C   LIG    1        3.537   1.579  -0.302  0.00  0.00    +0.062 A 
ATOM      6  C   LIG    1        2.649   0.923   0.567  0.00  0.00    +0.063 A 
ATOM      7 CL   LIG    1        1.105   1.616   0.934  0.00  0.00    -0.082 Cl
ATOM      8  C   LIG    1        2.973  -0.315   1.141  0.00  0.00    +0.028 A 
ENDROOT
BRANCH   5   9
ATOM      9  N   LIG    1        3.260   2.885  -0.773  0.00  0.00    -0.356 N 
ATOM     10  H   LIG    1        3.783   3.128  -1.613  0.00  0.00    +0.142 HD
ATOM     11  H   LIG    1        2.262   3.080  -0.840  0.00  0.00    +0.142 HD
ENDBRANCH   5   9
BRANCH   1  12
ATOM     12  C   LIG    1        4.583  -2.257   1.543  0.00  0.00    +0.158 C 
BRANCH  12  13
ATOM     13  O   LIG    1        3.501  -2.749   2.345  0.00  0.00    -0.386 OA
ATOM     14  H   LIG    1        3.654  -3.714   2.410  0.00  0.00    +0.210 HD
ENDBRANCH  12  13
BRANCH  12  15
ATOM     15  C   LIG    1        4.970  -3.362   0.519  0.00  0.00    +0.117 C 
BRANCH  15  16
ATOM     16  N   LIG    1        5.289  -4.632   1.209  0.00  0.00    -0.309 NA
ATOM     17  H   LIG    1        6.056  -4.468   1.865  0.00  0.00    +0.122 HD
BRANCH  16  19
ATOM     18  C   LIG    1        4.537  -6.123  -0.657  0.00  0.00    +0.027 C 
ATOM     19  C   LIG    1        5.663  -5.761   0.325  0.00  0.00    +0.011 C 
ATOM     20  C   LIG    1        6.962  -5.485  -0.455  0.00  0.00    +0.027 C 
ATOM     21  C   LIG    1        5.910  -6.977   1.241  0.00  0.00    +0.027 C 
ENDBRANCH  16  19
ENDBRANCH  15  16
ENDBRANCH  12  15
ENDBRANCH   1  12
TORSDOF 6
