REMARK  Name = *****
REMARK                            x       y       z     vdW  Elec       q    Type
REMARK                         _______ _______ _______ _____ _____    ______ ____
ROOT
ATOM      1  C   LIG    1        3.651   0.631   0.239  0.00  0.00    +0.168 C 
ATOM      2  C   LIG    1        3.250   1.952  -0.099  0.00  0.00    +0.097 C 
ATOM      3  C   LIG    1        3.691   3.012   0.705  0.00  0.00    +0.052 C 
ATOM      4  C   LIG    1        3.035   4.324   0.575  0.00  0.00    +0.204 C 
ATOM      5  C   LIG    1        1.915   4.465  -0.362  0.00  0.00    +0.122 C 
ATOM      6  C   LIG    1        1.709   3.451  -1.206  0.00  0.00    +0.105 C 
ATOM      7  O   LIG    1        3.346   5.279   1.315  0.00  0.00    -0.286 OA
ATOM      8  C   LIG    1        4.685   2.817   1.653  0.00  0.00    +0.054 C 
ATOM      9  C   LIG    1        5.186   1.535   1.870  0.00  0.00    +0.149 C 
ATOM     10  F   LIG    1        6.138   1.439   2.812  0.00  0.00    -0.203 F 
ATOM     11  N   LIG    1        2.420   2.255  -1.226  0.00  0.00    -0.340 NA
ATOM     12  C   LIG    1        4.697   0.381   1.196  0.00  0.00    +0.110 C 
ENDROOT
BRANCH  12  13
ATOM     13  N   LIG    1        5.222  -0.920   1.523  0.00  0.00    -0.322 NA
ATOM     14  C   LIG    1        6.714  -0.985   1.593  0.00  0.00    +0.123 C 
ATOM     15  C   LIG    1        7.282  -2.419   1.845  0.00  0.00    +0.068 C 
ATOM     16  C   LIG    1        7.229  -2.826   3.322  0.00  0.00    +0.025 C 
ATOM     17  N   LIG    1        6.676  -3.474   1.007  0.00  0.00    -0.310 NA
ATOM     18  H   LIG    1        6.883  -3.255   0.032  0.00  0.00    +0.122 HD
ATOM     19  C   LIG    1        5.216  -3.432   1.171  0.00  0.00    +0.100 C 
ATOM     20  C   LIG    1        4.619  -2.067   0.809  0.00  0.00    +0.120 C 
ENDBRANCH  12  13
BRANCH  11  21
ATOM     21  C   LIG    1        2.869   1.863  -2.599  0.00  0.00    +0.088 C 
ATOM     22  C   LIG    1        4.036   2.573  -3.258  0.00  0.00    +0.027 C 
ATOM     23  C   LIG    1        4.128   1.112  -2.952  0.00  0.00    +0.027 C 
ENDBRANCH  11  21
BRANCH   1  25
ATOM     24  C   LIG    1        1.656  -0.473  -0.497  0.00  0.00    +0.277 C 
ATOM     25  O   LIG    1        3.084  -0.436  -0.429  0.00  0.00    -0.491 OA
ENDBRANCH   1  25
BRANCH   5  26
ATOM     26  C   LIG    1        1.042   5.640  -0.402  0.00  0.00    +0.342 C 
ATOM     27  O   LIG    1        0.287   5.877  -1.352  0.00  0.00    -0.245 OA
BRANCH  26  28
ATOM     28  O   LIG    1        1.056   6.403   0.709  0.00  0.00    -0.477 OA
ATOM     29  H   LIG    1        1.777   6.171   1.326  0.00  0.00    +0.295 HD
ENDBRANCH  26  28
ENDBRANCH   5  26
TORSDOF 5
