REMARK  Name = *****
REMARK                            x       y       z     vdW  Elec       q    Type
REMARK                         _______ _______ _______ _____ _____    ______ ____
ROOT
ATOM      1  C   LIG    1        1.004  -0.108  -0.070  0.00  0.00    +0.069 C 
ATOM      2  C   LIG    1        2.499   0.020  -0.094  0.00  0.00    +0.080 A 
ATOM      3  C   LIG    1        3.109   1.277  -0.096  0.00  0.00    +0.143 A 
ATOM      4  C   LIG    1        4.512   1.380  -0.102  0.00  0.00    +0.028 A 
ATOM      5  C   LIG    1        5.256   0.182  -0.128  0.00  0.00    +0.005 A 
ATOM      6  C   LIG    1        4.554  -1.024  -0.124  0.00  0.00    +0.117 A 
ATOM      7  N   LIG    1        3.208  -1.132  -0.103  0.00  0.00    -0.256 NA
ENDROOT
BRANCH   3   8
ATOM      8  O   LIG    1        2.311   2.389  -0.082  0.00  0.00    -0.505 OA
ATOM      9  H   LIG    1        2.899   3.149   0.123  0.00  0.00    +0.292 HD
ENDBRANCH   3   8
BRANCH   4  10
ATOM     10  C   LIG    1        5.216   2.714  -0.169  0.00  0.00    +0.195 C 
BRANCH  10  11
ATOM     11  O   LIG    1        4.412   3.754   0.397  0.00  0.00    -0.390 OA
ATOM     12  H   LIG    1        4.989   4.537   0.448  0.00  0.00    +0.210 HD
ENDBRANCH  10  11
ENDBRANCH   4  10
BRANCH   5  13
ATOM     13  C   LIG    1        6.759   0.139  -0.135  0.00  0.00    +0.193 C 
BRANCH  13  14
ATOM     14  O   LIG    1        7.256   0.857  -1.255  0.00  0.00    -0.390 OA
ATOM     15  H   LIG    1        8.200   0.634  -1.335  0.00  0.00    +0.210 HD
ENDBRANCH  13  14
ENDBRANCH   5  13
TORSDOF 5
