REMARK  Name = *****
REMARK                            x       y       z     vdW  Elec       q    Type
REMARK                         _______ _______ _______ _____ _____    ______ ____
ROOT
ATOM      1  N   LIG    1       10.822   2.360  10.813  0.00  0.00    +0.249 N 
ATOM      2  C   LIG    1       11.436   1.655  12.044  0.00  0.00    +0.193 C 
ATOM      3  C   LIG    1        9.623   1.554  10.240  0.00  0.00    +0.102 C 
ATOM      4  C   LIG    1        8.540   1.667  11.304  0.00  0.00    +0.201 C 
ATOM      5  C   LIG    1        8.775   2.987  11.996  0.00  0.00    +0.201 C 
ATOM      6  O   LIG    1        7.604   2.736  11.225  0.00  0.00    -0.357 OA
ATOM      7  C   LIG    1        9.190   2.204   8.907  0.00  0.00    +0.102 C 
ATOM      8  C   LIG    1        8.882   3.720   9.006  0.00  0.00    +0.187 C 
ATOM      9  C   LIG    1        9.622   4.461  10.145  0.00  0.00    +0.102 C 
ATOM     10  C   LIG    1       10.005   3.585  11.331  0.00  0.00    +0.102 C 
ENDROOT
BRANCH   1  11
ATOM     11  C   LIG    1       11.966   2.692   9.840  0.00  0.00    +0.133 C 
BRANCH  11  12
ATOM     12  C   LIG    1       12.723   1.442   9.368  0.00  0.00    +0.051 C 
BRANCH  12  14
ATOM     13  C   LIG    1       14.929   2.659   8.979  0.00  0.00    +0.004 C 
ATOM     14  C   LIG    1       13.848   1.771   8.381  0.00  0.00    +0.002 C 
ENDBRANCH  12  14
ENDBRANCH  11  12
ENDBRANCH   1  11
BRANCH   8  15
ATOM     15  O   LIG    1        9.222   4.356   7.749  0.00  0.00    -0.461 OA
BRANCH  15  16
ATOM     16  C   LIG    1        8.772   5.645   7.624  0.00  0.00    +0.317 C 
ATOM     17  O   LIG    1        8.068   6.205   8.455  0.00  0.00    -0.250 OA
BRANCH  16  18
ATOM     18  C   LIG    1        9.279   6.295   6.355  0.00  0.00    +0.153 C 
BRANCH  18  19
ATOM     19  C   LIG    1        8.324   6.164   5.181  0.00  0.00    -0.032 A 
ATOM     20  C   LIG    1        7.027   5.644   5.305  0.00  0.00    +0.004 A 
ATOM     21  C   LIG    1        6.184   5.541   4.196  0.00  0.00    +0.000 A 
ATOM     22  C   LIG    1        6.618   5.978   2.945  0.00  0.00    +0.000 A 
ATOM     23  C   LIG    1        7.901   6.491   2.803  0.00  0.00    +0.000 A 
ATOM     24  C   LIG    1        8.753   6.564   3.903  0.00  0.00    +0.004 A 
ENDBRANCH  18  19
BRANCH  18  25
ATOM     25  C   LIG    1        9.607   7.757   6.727  0.00  0.00    +0.175 C 
BRANCH  25  26
ATOM     26  O   LIG    1       10.321   8.443   5.701  0.00  0.00    -0.394 OA
ATOM     27  H   LIG    1        9.649   8.859   5.127  0.00  0.00    +0.209 HD
ENDBRANCH  25  26
ENDBRANCH  18  25
ENDBRANCH  16  18
ENDBRANCH  15  16
ENDBRANCH   8  15
TORSDOF 9
