REMARK  Name = *****
REMARK                            x       y       z     vdW  Elec       q    Type
REMARK                         _______ _______ _______ _____ _____    ______ ____
ROOT
ATOM      1  C   LIG    1       -1.524   0.980   7.652  0.00  0.00    +0.073 C 
ATOM      2  C   LIG    1       -0.667  -0.270   7.469  0.00  0.00    +0.166 C 
ATOM      3  O   LIG    1        0.171  -0.111   6.319  0.00  0.00    -0.332 OA
ATOM      4  C   LIG    1        1.471   0.246   6.794  0.00  0.00    +0.164 C 
ATOM      5  C   LIG    1        1.494  -0.266   8.245  0.00  0.00    +0.162 C 
ATOM      6  C   LIG    1        2.225  -1.624   8.233  0.00  0.00    +0.039 C 
ATOM      7  C   LIG    1        2.334  -1.971   6.747  0.00  0.00    +0.006 C 
ATOM      8  C   LIG    1        3.338  -3.050   6.306  0.00  0.00    +0.019 C 
ATOM      9  C   LIG    1        3.294  -3.290   4.739  0.00  0.00    +0.077 C 
ATOM     10  C   LIG    1        3.364  -1.885   4.005  0.00  0.00    +0.103 C 
ATOM     11 CL   LIG    1        3.061  -1.926   2.231  0.00  0.00    -0.120 Cl
ATOM     12  C   LIG    1        2.406  -0.802   4.570  0.00  0.00    +0.031 C 
ATOM     13 CL   LIG    1        1.644  -4.024   4.344  0.00  0.00    -0.115 Cl
ATOM     14  C   LIG    1        4.434  -4.364   4.333  0.00  0.00    +0.031 C 
ATOM     15  C   LIG    1        4.402  -5.624   5.261  0.00  0.00    -0.021 C 
ATOM     16  C   LIG    1        5.303  -6.610   5.024  0.00  0.00    +0.054 C 
ATOM     17  C   LIG    1        6.722  -6.080   5.008  0.00  0.00    +0.179 C 
ATOM     18  C   LIG    1        6.910  -4.615   4.772  0.00  0.00    +0.047 C 
ATOM     19  O   LIG    1        7.676  -6.835   5.097  0.00  0.00    -0.288 OA
ATOM     20  C   LIG    1        4.175  -5.375   6.745  0.00  0.00    +0.194 C 
ATOM     21  F   LIG    1        5.333  -4.928   7.318  0.00  0.00    -0.241 F 
ATOM     22  C   LIG    1        4.307  -4.824   2.848  0.00  0.00    +0.022 C 
ATOM     23  C   LIG    1        5.870  -3.824   4.447  0.00  0.00    -0.010 C 
ATOM     24  C   LIG    1        3.109  -4.355   7.082  0.00  0.00    +0.047 C 
ATOM     25  C   LIG    1        2.574  -0.597   6.082  0.00  0.00    +0.011 C 
ATOM     26  C   LIG    1        3.977  -0.003   6.377  0.00  0.00    +0.015 C 
ATOM     27  O   LIG    1        0.134  -0.453   8.633  0.00  0.00    -0.343 OA
ATOM     28  C   LIG    1       -1.547  -1.497   7.270  0.00  0.00    +0.073 C 
ENDROOT
BRANCH   4  29
ATOM     29  C   LIG    1        1.670   1.766   6.699  0.00  0.00    +0.193 C 
ATOM     30  O   LIG    1        2.269   2.412   7.566  0.00  0.00    -0.292 OA
BRANCH  29  31
ATOM     31  C   LIG    1        1.178   2.463   5.431  0.00  0.00    +0.233 C 
BRANCH  31  32
ATOM     32  O   LIG    1        1.079   3.863   5.624  0.00  0.00    -0.387 OA
ATOM     33  H   LIG    1        1.726   4.095   6.318  0.00  0.00    +0.210 HD
ENDBRANCH  31  32
ENDBRANCH  29  31
ENDBRANCH   4  29
TORSDOF 3
