REMARK  Name = *****
REMARK                            x       y       z     vdW  Elec       q    Type
REMARK                         _______ _______ _______ _____ _____    ______ ____
ROOT
ATOM      1  C   LIG    1        5.909   0.970  -0.495  0.00  0.00    +0.080 A 
ATOM      2  C   LIG    1        6.899   1.956  -0.237  0.00  0.00    +0.009 A 
ATOM      3  C   LIG    1        8.250   1.544  -0.402  0.00  0.00    +0.032 A 
ATOM      4  C   LIG    1        8.587   0.267  -0.827  0.00  0.00    +0.060 A 
ATOM      5 CL   LIG    1       10.226  -0.182  -1.053  0.00  0.00    -0.082 Cl
ATOM      6  C   LIG    1        7.565  -0.616  -1.061  0.00  0.00    +0.131 A 
ATOM      7  N   LIG    1        6.262  -0.297  -0.895  0.00  0.00    -0.253 NA
ENDROOT
BRANCH   1  12
ATOM      8  C   LIG    1        0.121   1.297  -0.663  0.00  0.00    +0.065 C 
ATOM      9  C   LIG    1        1.614   1.230  -0.512  0.00  0.00    +0.038 A 
ATOM     10  N   LIG    1        2.335   2.344  -0.777  0.00  0.00    -0.260 NA
ATOM     11  C   LIG    1        3.698   2.243  -0.746  0.00  0.00    +0.121 A 
ATOM     12  C   LIG    1        4.421   1.095  -0.433  0.00  0.00    +0.019 A 
ATOM     13  C   LIG    1        3.618  -0.030  -0.148  0.00  0.00    +0.013 A 
ATOM     14  C   LIG    1        2.222   0.026  -0.197  0.00  0.00    +0.024 A 
ENDBRANCH   1  12
BRANCH   2  15
ATOM     15  C   LIG    1        6.689   3.369   0.189  0.00  0.00    -0.016 A 
ATOM     16  C   LIG    1        7.471   4.410  -0.372  0.00  0.00    +0.010 A 
ATOM     17  C   LIG    1        7.335   5.745   0.024  0.00  0.00    +0.027 A 
ATOM     18  C   LIG    1        6.367   6.074   0.965  0.00  0.00    +0.088 A 
ATOM     19  C   LIG    1        5.595   5.074   1.560  0.00  0.00    +0.027 A 
ATOM     20  C   LIG    1        5.780   3.733   1.194  0.00  0.00    +0.010 A 
BRANCH  18  21
ATOM     21  S   LIG    1        6.139   7.771   1.447  0.00  0.00    -0.006 S 
ATOM     22  O   LIG    1        7.387   8.472   1.184  0.00  0.00    -0.170 OA
ATOM     23  O   LIG    1        5.550   7.775   2.768  0.00  0.00    -0.170 OA
ATOM     24  C   LIG    1        4.926   8.356   0.292  0.00  0.00    +0.200 C 
ENDBRANCH  18  21
ENDBRANCH   2  15
TORSDOF 3
