REMARK  Name = *****
REMARK                            x       y       z     vdW  Elec       q    Type
REMARK                         _______ _______ _______ _____ _____    ______ ____
ROOT
ATOM      1  C   LIG    1        5.073   0.698   3.076  0.00  0.00    +0.165 C 
ATOM      2  C   LIG    1        4.653   1.958   3.783  0.00  0.00    +0.249 C 
ATOM      3  O   LIG    1        4.634   3.067   3.264  0.00  0.00    -0.273 OA
ATOM      4  N   LIG    1        4.462   1.614   5.134  0.00  0.00    -0.180 N 
ATOM      5  N   LIG    1        4.461   0.197   5.269  0.00  0.00    -0.180 N 
ATOM      6  C   LIG    1        4.926  -0.401   4.092  0.00  0.00    +0.249 C 
ATOM      7  O   LIG    1        5.139  -1.581   3.844  0.00  0.00    -0.273 OA
ENDROOT
BRANCH   4   8
ATOM      8  C   LIG    1        5.090   2.447   6.110  0.00  0.00    +0.057 A 
ATOM      9  C   LIG    1        4.794   3.816   6.151  0.00  0.00    +0.025 A 
ATOM     10  C   LIG    1        5.423   4.652   7.077  0.00  0.00    +0.002 A 
ATOM     11  C   LIG    1        6.369   4.130   7.956  0.00  0.00    +0.000 A 
ATOM     12  C   LIG    1        6.670   2.770   7.926  0.00  0.00    +0.002 A 
ATOM     13  C   LIG    1        6.021   1.927   7.020  0.00  0.00    +0.025 A 
ENDBRANCH   4   8
BRANCH   5  14
ATOM     14  C   LIG    1        3.588  -0.459   6.200  0.00  0.00    +0.057 A 
ATOM     15  C   LIG    1        2.823   0.282   7.118  0.00  0.00    +0.025 A 
ATOM     16  C   LIG    1        1.925  -0.341   7.994  0.00  0.00    +0.002 A 
ATOM     17  C   LIG    1        1.768  -1.722   7.967  0.00  0.00    +0.000 A 
ATOM     18  C   LIG    1        2.516  -2.477   7.072  0.00  0.00    +0.002 A 
ATOM     19  C   LIG    1        3.420  -1.852   6.204  0.00  0.00    +0.025 A 
ENDBRANCH   5  14
BRANCH   1  20
ATOM     20  C   LIG    1        4.302   0.426   1.787  0.00  0.00    +0.022 C 
BRANCH  20  21
ATOM     21  C   LIG    1        2.789   0.274   1.986  0.00  0.00    +0.001 C 
BRANCH  21  23
ATOM     22  C   LIG    1        0.588  -0.177   0.851  0.00  0.00    +0.004 C 
ATOM     23  C   LIG    1        2.090  -0.039   0.664  0.00  0.00    -0.003 C 
ENDBRANCH  21  23
ENDBRANCH  20  21
ENDBRANCH   1  20
TORSDOF 5
