REMARK  Name = *****
REMARK                            x       y       z     vdW  Elec       q    Type
REMARK                         _______ _______ _______ _____ _____    ______ ____
ROOT
ATOM      1  N   LIG    1        3.331   0.595  -0.759  0.00  0.00    -0.186 N 
ATOM      2  H   LIG    1        2.713   1.234  -1.245  0.00  0.00    +0.271 HD
ENDROOT
BRANCH   1   5
ATOM      3  N   LIG    1        1.400   0.122   0.401  0.00  0.00    -0.129 NA
ATOM      4  H   LIG    1        1.074  -0.472   1.166  0.00  0.00    +0.306 HD
ATOM      5  C   LIG    1        2.646  -0.105   0.180  0.00  0.00    +0.386 C 
BRANCH   5   6
ATOM      6  N   LIG    1        3.340  -1.060   0.843  0.00  0.00    -0.289 N 
ATOM      7  H   LIG    1        4.066  -1.495   0.279  0.00  0.00    +0.255 HD
ATOM      8  H   LIG    1        2.779  -1.756   1.316  0.00  0.00    +0.255 HD
ENDBRANCH   5   6
ENDBRANCH   1   5
BRANCH   1   9
ATOM      9  C   LIG    1        4.639   0.851  -0.990  0.00  0.00    +0.386 C 
ATOM     10  N   LIG    1        5.621   0.632  -0.184  0.00  0.00    -0.129 NA
ATOM     11  H   LIG    1        5.215   0.292   0.698  0.00  0.00    +0.306 HD
BRANCH   9  12
ATOM     12  N   LIG    1        4.897   1.387  -2.203  0.00  0.00    -0.289 N 
ATOM     13  H   LIG    1        5.903   1.450  -2.337  0.00  0.00    +0.255 HD
ATOM     14  H   LIG    1        4.467   0.887  -2.972  0.00  0.00    +0.255 HD
ENDBRANCH   9  12
ENDBRANCH   1   9
TORSDOF 4
