REMARK  Name = *****
REMARK                            x       y       z     vdW  Elec       q    Type
REMARK                         _______ _______ _______ _____ _____    ______ ____
ROOT
ATOM      1  C   LIG    1        0.370  -0.031  -0.859  0.00  0.00    +0.052 C 
ATOM      2  C   LIG    1        1.852  -0.083  -0.728  0.00  0.00    -0.011 A 
ATOM      3  S   LIG    1        2.602  -1.415   0.021  0.00  0.00    -0.078 S 
ATOM      4  C   LIG    1        4.178  -0.788  -0.251  0.00  0.00    +0.085 A 
ATOM      5  N   LIG    1        5.241  -1.539   0.120  0.00  0.00    -0.305 N 
ATOM      6  H   LIG    1        5.007  -2.447   0.508  0.00  0.00    +0.153 HD
ATOM      7  C   LIG    1        6.455  -1.558  -0.605  0.00  0.00    +0.083 A 
ATOM      8  C   LIG    1        6.991  -0.452  -1.294  0.00  0.00    +0.197 A 
ATOM      9  N   LIG    1        6.529   0.872  -1.278  0.00  0.00    -0.040 NA
ATOM     10  C   LIG    1        5.322   1.292  -1.074  0.00  0.00    +0.324 C 
ATOM     11  C   LIG    1        8.195  -0.624  -2.002  0.00  0.00    +0.057 A 
ATOM     12  C   LIG    1        8.871  -1.844  -2.035  0.00  0.00    +0.004 A 
ATOM     13  C   LIG    1        8.358  -2.924  -1.335  0.00  0.00    +0.002 A 
ATOM     14  C   LIG    1        7.167  -2.779  -0.624  0.00  0.00    +0.027 A 
ATOM     15  C   LIG    1        4.146   0.463  -0.830  0.00  0.00    +0.094 A 
ATOM     16  C   LIG    1        2.784   0.844  -1.134  0.00  0.00    +0.028 A 
ENDROOT
BRANCH  10  17
ATOM     17  N   LIG    1        5.016   2.652  -1.097  0.00  0.00    -0.217 N 
ATOM     18  C   LIG    1        5.907   3.517  -1.899  0.00  0.00    +0.241 C 
ATOM     19  C   LIG    1        5.294   4.923  -2.078  0.00  0.00    +0.127 C 
ATOM     20  N   LIG    1        4.908   5.610  -0.825  0.00  0.00    -0.298 NA
ATOM     21  C   LIG    1        6.079   6.079  -0.087  0.00  0.00    +0.105 C 
ATOM     22  C   LIG    1        4.083   4.691  -0.010  0.00  0.00    +0.127 C 
ATOM     23  C   LIG    1        4.675   3.280   0.200  0.00  0.00    +0.241 C 
ENDBRANCH  10  17
TORSDOF 1
