REMARK  Name = *****
REMARK                            x       y       z     vdW  Elec       q    Type
REMARK                         _______ _______ _______ _____ _____    ______ ____
ROOT
ATOM      1  O   LIG    1        2.801  -0.250   0.252  0.00  0.00    -0.275 OA
ATOM      2  C   LIG    1        2.772   0.904  -0.187  0.00  0.00    +0.219 C 
ATOM      3  N   LIG    1        3.575   1.892   0.361  0.00  0.00    -0.290 N 
ATOM      4  C   LIG    1        4.631   1.521   1.294  0.00  0.00    +0.135 C 
ATOM      5  C   LIG    1        6.018   1.700   0.628  0.00  0.00    +0.124 C 
ATOM      6  N   LIG    1        6.135   3.013  -0.047  0.00  0.00    -0.291 N 
ATOM      7  C   LIG    1        7.411   3.234  -0.708  0.00  0.00    +0.113 C 
ATOM      8  C   LIG    1        7.525   2.274  -1.890  0.00  0.00    +0.054 C 
ATOM      9  C   LIG    1        7.230   0.849  -1.469  0.00  0.00    -0.041 A 
ATOM     10  C   LIG    1        7.689  -0.200  -2.281  0.00  0.00    +0.004 A 
ATOM     11  C   LIG    1        7.461  -1.524  -1.921  0.00  0.00    +0.000 A 
ATOM     12  C   LIG    1        6.765  -1.813  -0.752  0.00  0.00    +0.000 A 
ATOM     13  C   LIG    1        6.281  -0.778   0.051  0.00  0.00    +0.006 A 
ATOM     14  C   LIG    1        5.030   3.692  -0.562  0.00  0.00    +0.234 C 
ATOM     15  O   LIG    1        5.148   4.677  -1.295  0.00  0.00    -0.274 OA
ATOM     16  C   LIG    1        6.480   0.568  -0.300  0.00  0.00    -0.022 A 
ATOM     17  C   LIG    1        3.645   3.292  -0.044  0.00  0.00    +0.203 C 
ENDROOT
BRANCH   2  18
ATOM     18  C   LIG    1        1.881   1.268  -1.382  0.00  0.00    +0.075 C 
ATOM     19  C   LIG    1        2.714   1.313  -2.673  0.00  0.00    +0.012 C 
ATOM     20  C   LIG    1        3.014  -0.075  -3.237  0.00  0.00    +0.001 C 
ATOM     21  C   LIG    1        1.737  -0.877  -3.450  0.00  0.00    +0.000 C 
ATOM     22  C   LIG    1        0.946  -1.009  -2.157  0.00  0.00    +0.001 C 
ATOM     23  C   LIG    1        0.657   0.348  -1.520  0.00  0.00    +0.012 C 
ENDBRANCH   2  18
TORSDOF 1
