REMARK  Name = *****
REMARK                            x       y       z     vdW  Elec       q    Type
REMARK                         _______ _______ _______ _____ _____    ______ ____
ROOT
ATOM      1  C   LIG    1       14.819   4.966  -2.436  0.00  0.00    +0.170 A 
ATOM      2  S   LIG    1       15.662   3.631  -3.126  0.00  0.00    -0.056 S 
ATOM      3  C   LIG    1       14.220   2.863  -3.556  0.00  0.00    -0.001 A 
ATOM      4  C   LIG    1       14.110   1.546  -4.240  0.00  0.00    +0.058 C 
ATOM      5  C   LIG    1       12.800   0.817  -3.800  0.00  0.00    +0.091 C 
ATOM      6  N   LIG    1       11.710   1.592  -3.149  0.00  0.00    -0.285 NA
ATOM      7  C   LIG    1       11.745   3.027  -3.458  0.00  0.00    +0.121 C 
ATOM      8  C   LIG    1       13.105   3.569  -3.183  0.00  0.00    -0.019 A 
ATOM      9  C   LIG    1       13.455   4.771  -2.511  0.00  0.00    +0.059 A 
ENDROOT
BRANCH   1  10
ATOM     10  O   LIG    1       15.532   5.972  -1.922  0.00  0.00    -0.419 OA
BRANCH  10  12
ATOM     11  C   LIG    1       15.926   8.122  -1.151  0.00  0.00    +0.136 C 
ATOM     12  C   LIG    1       14.981   7.199  -1.810  0.00  0.00    +0.310 C 
ATOM     13  O   LIG    1       13.889   7.572  -2.211  0.00  0.00    -0.251 OA
ENDBRANCH  10  12
ENDBRANCH   1  10
BRANCH   6  14
ATOM     14  C   LIG    1       11.433   1.222  -1.726  0.00  0.00    +0.157 C 
BRANCH  14  15
ATOM     15  C   LIG    1       12.538   1.496  -0.705  0.00  0.00    +0.012 A 
ATOM     16  C   LIG    1       13.530   0.527  -0.480  0.00  0.00    +0.129 A 
ATOM     17  F   LIG    1       13.480  -0.650  -1.120  0.00  0.00    -0.205 F 
ATOM     18  C   LIG    1       14.579   0.723   0.418  0.00  0.00    +0.039 A 
ATOM     19  C   LIG    1       14.640   1.897   1.157  0.00  0.00    +0.003 A 
ATOM     20  C   LIG    1       13.663   2.873   0.972  0.00  0.00    +0.001 A 
ATOM     21  C   LIG    1       12.628   2.681   0.043  0.00  0.00    +0.008 A 
ENDBRANCH  14  15
BRANCH  14  22
ATOM     22  C   LIG    1       10.032   1.751  -1.288  0.00  0.00    +0.158 C 
ATOM     23  O   LIG    1        9.758   2.941  -1.068  0.00  0.00    -0.295 OA
BRANCH  22  24
ATOM     24  C   LIG    1        8.928   0.732  -1.204  0.00  0.00    +0.057 C 
ATOM     25  C   LIG    1        7.551   1.068  -0.666  0.00  0.00    +0.012 C 
ATOM     26  C   LIG    1        7.741   0.854  -2.137  0.00  0.00    +0.012 C 
ENDBRANCH  22  24
ENDBRANCH  14  22
ENDBRANCH   6  14
TORSDOF 6
