REMARK  Name = *****
REMARK                            x       y       z     vdW  Elec       q    Type
REMARK                         _______ _______ _______ _____ _____    ______ ____
ROOT
ATOM      1  C   LIG    1        4.889  -4.212   0.746  0.00  0.00    +0.162 C 
ENDROOT
BRANCH   1   2
ATOM      2  C   LIG    1        5.116  -5.373  -0.217  0.00  0.00    -0.007 A 
ATOM      3  C   LIG    1        5.162  -6.743   0.168  0.00  0.00    +0.009 A 
ATOM      4  C   LIG    1        5.475  -7.691  -0.836  0.00  0.00    +0.071 A 
ATOM      5  C   LIG    1        5.621  -9.024  -0.484  0.00  0.00    +0.032 A 
ATOM      6  C   LIG    1        5.435  -9.466   0.827  0.00  0.00    +0.048 A 
ATOM      7  C   LIG    1        5.042  -8.571   1.810  0.00  0.00    +0.121 A 
ATOM      8  N   LIG    1        5.633  -7.369  -2.128  0.00  0.00    -0.255 NA
ATOM      9  C   LIG    1        5.510  -6.076  -2.478  0.00  0.00    +0.112 A 
ATOM     10  C   LIG    1        4.901  -7.224   1.477  0.00  0.00    +0.056 A 
ATOM     11  C   LIG    1        5.269  -5.059  -1.577  0.00  0.00    +0.026 A 
BRANCH   7  12
ATOM     12  O   LIG    1        4.847  -9.111   3.050  0.00  0.00    -0.495 OA
ATOM     13  C   LIG    1        4.073  -8.339   3.962  0.00  0.00    +0.277 C 
ENDBRANCH   7  12
ENDBRANCH   1   2
BRANCH   1  17
ATOM     14  C   LIG    1        7.793  -3.287   3.951  0.00  0.00    +0.028 C 
ATOM     15  C   LIG    1        6.837  -2.211   3.365  0.00  0.00    -0.000 C 
ATOM     16  C   LIG    1        5.542  -2.838   2.817  0.00  0.00    +0.026 C 
ATOM     17  C   LIG    1        5.899  -4.060   1.934  0.00  0.00    +0.090 C 
ATOM     18  N   LIG    1        7.350  -4.036   1.576  0.00  0.00    -0.296 NA
ATOM     19  C   LIG    1        7.746  -2.701   1.079  0.00  0.00    +0.085 C 
ATOM     20  C   LIG    1        7.544  -1.603   2.138  0.00  0.00    +0.019 C 
ATOM     21  C   LIG    1        8.116  -4.312   2.825  0.00  0.00    +0.092 C 
BRANCH  14  23
ATOM     22  C   LIG    1        7.851  -3.879   6.405  0.00  0.00    +0.004 C 
ATOM     23  C   LIG    1        7.264  -3.953   5.204  0.00  0.00    -0.029 C 
ENDBRANCH  14  23
ENDBRANCH   1  17
BRANCH   1  24
ATOM     24  O   LIG    1        3.554  -4.287   1.269  0.00  0.00    -0.386 OA
ATOM     25  H   LIG    1        3.059  -4.929   0.731  0.00  0.00    +0.210 HD
ENDBRANCH   1  24
TORSDOF 5
