MODEL 1
REMARK VINA RESULT:      -9.2      0.000      0.000
REMARK  Name = *****
REMARK                            x       y       z     vdW  Elec       q    Type
REMARK                         _______ _______ _______ _____ _____    ______ ____
ROOT
ATOM      1  O   LIG    1       23.150 -24.713   6.828  0.00  0.00    -0.252 OA
ATOM      2  C   LIG    1       24.106 -23.967   6.704  0.00  0.00    +0.306 C 
ATOM      3  N   LIG    1       24.073 -22.637   6.281  0.00  0.00    -0.271 N 
ATOM      4  C   LIG    1       25.431 -22.118   6.114  0.00  0.00    +0.155 C 
ATOM      5  C   LIG    1       26.256 -23.082   6.976  0.00  0.00    +0.152 C 
ATOM      6  C   LIG    1       26.353 -22.480   8.381  0.00  0.00    +0.302 C 
ATOM      7  S   LIG    1       26.158 -20.670   8.329  0.00  0.00    -0.004 S 
ATOM      8  C   LIG    1       27.900 -20.240   7.994  0.00  0.00    +0.278 C 
ATOM      9  C   LIG    1       28.167 -20.440   6.517  0.00  0.00    +0.059 C 
ATOM     10  C   LIG    1       26.889 -20.032   5.806  0.00  0.00    +0.064 C 
ATOM     11  C   LIG    1       25.709 -20.676   6.542  0.00  0.00    +0.230 C 
ATOM     12  N   LIG    1       25.441 -24.288   6.950  0.00  0.00    -0.272 N 
ENDROOT
BRANCH   3  13
ATOM     13  C   LIG    1       22.846 -21.982   5.868  0.00  0.00    +0.145 C 
BRANCH  13  14
ATOM     14  C   LIG    1       23.021 -20.753   5.008  0.00  0.00    -0.030 A 
ATOM     15  C   LIG    1       22.413 -19.534   5.350  0.00  0.00    +0.005 A 
ATOM     16  C   LIG    1       22.634 -18.391   4.577  0.00  0.00    +0.000 A 
ATOM     17  C   LIG    1       23.465 -18.449   3.460  0.00  0.00    +0.000 A 
ATOM     18  C   LIG    1       24.081 -19.652   3.114  0.00  0.00    +0.000 A 
ATOM     19  C   LIG    1       23.860 -20.794   3.887  0.00  0.00    +0.005 A 
ENDBRANCH  13  14
ENDBRANCH   3  13
BRANCH  12  20
ATOM     20  C   LIG    1       25.895 -25.590   7.399  0.00  0.00    +0.145 C 
BRANCH  20  21
ATOM     21  C   LIG    1       25.497 -26.737   6.503  0.00  0.00    -0.030 A 
ATOM     22  C   LIG    1       24.765 -27.823   7.006  0.00  0.00    +0.005 A 
ATOM     23  C   LIG    1       24.463 -28.914   6.187  0.00  0.00    +0.000 A 
ATOM     24  C   LIG    1       24.885 -28.931   4.859  0.00  0.00    +0.000 A 
ATOM     25  C   LIG    1       25.603 -27.855   4.345  0.00  0.00    +0.000 A 
ATOM     26  C   LIG    1       25.912 -26.768   5.163  0.00  0.00    +0.005 A 
ENDBRANCH  20  21
ENDBRANCH  12  20
TORSDOF 4
ENDMDL
MODEL 2
REMARK VINA RESULT:      -8.6      1.624      6.409
REMARK  Name = *****
REMARK                            x       y       z     vdW  Elec       q    Type
REMARK                         _______ _______ _______ _____ _____    ______ ____
ROOT
ATOM      1  O   LIG    1       25.776 -24.184   8.042  0.00  0.00    -0.252 OA
ATOM      2  C   LIG    1       25.583 -23.351   7.173  0.00  0.00    +0.306 C 
ATOM      3  N   LIG    1       24.659 -23.437   6.129  0.00  0.00    -0.271 N 
ATOM      4  C   LIG    1       24.824 -22.316   5.204  0.00  0.00    +0.155 C 
ATOM      5  C   LIG    1       25.564 -21.287   6.068  0.00  0.00    +0.152 C 
ATOM      6  C   LIG    1       24.510 -20.396   6.734  0.00  0.00    +0.302 C 
ATOM      7  S   LIG    1       22.972 -20.366   5.758  0.00  0.00    -0.004 S 
ATOM      8  C   LIG    1       23.428 -19.019   4.614  0.00  0.00    +0.278 C 
ATOM      9  C   LIG    1       24.323 -19.591   3.534  0.00  0.00    +0.059 C 
ATOM     10  C   LIG    1       23.802 -20.992   3.261  0.00  0.00    +0.064 C 
ATOM     11  C   LIG    1       23.565 -21.680   4.610  0.00  0.00    +0.230 C 
ATOM     12  N   LIG    1       26.252 -22.135   7.030  0.00  0.00    -0.272 N 
ENDROOT
BRANCH   3  13
ATOM     13  C   LIG    1       23.828 -24.608   5.921  0.00  0.00    +0.145 C 
BRANCH  13  14
ATOM     14  C   LIG    1       24.572 -25.909   5.733  0.00  0.00    -0.030 A 
ATOM     15  C   LIG    1       24.243 -27.049   6.484  0.00  0.00    +0.005 A 
ATOM     16  C   LIG    1       24.901 -28.261   6.256  0.00  0.00    +0.000 A 
ATOM     17  C   LIG    1       25.887 -28.351   5.277  0.00  0.00    +0.000 A 
ATOM     18  C   LIG    1       26.219 -27.227   4.519  0.00  0.00    +0.000 A 
ATOM     19  C   LIG    1       25.561 -26.016   4.747  0.00  0.00    +0.005 A 
ENDBRANCH  13  14
ENDBRANCH   3  13
BRANCH  12  20
ATOM     20  C   LIG    1       27.302 -21.677   7.918  0.00  0.00    +0.145 C 
BRANCH  20  21
ATOM     21  C   LIG    1       28.324 -20.774   7.272  0.00  0.00    -0.030 A 
ATOM     22  C   LIG    1       29.620 -20.663   7.796  0.00  0.00    +0.005 A 
ATOM     23  C   LIG    1       30.537 -19.771   7.234  0.00  0.00    +0.000 A 
ATOM     24  C   LIG    1       30.171 -18.985   6.143  0.00  0.00    +0.000 A 
ATOM     25  C   LIG    1       28.891 -19.094   5.607  0.00  0.00    +0.000 A 
ATOM     26  C   LIG    1       27.972 -19.979   6.171  0.00  0.00    +0.005 A 
ENDBRANCH  20  21
ENDBRANCH  12  20
TORSDOF 4
ENDMDL
MODEL 3
REMARK VINA RESULT:      -8.3      3.829      9.074
REMARK  Name = *****
REMARK                            x       y       z     vdW  Elec       q    Type
REMARK                         _______ _______ _______ _____ _____    ______ ____
ROOT
ATOM      1  O   LIG    1       25.773 -28.671   4.745  0.00  0.00    -0.252 OA
ATOM      2  C   LIG    1       25.466 -28.717   5.924  0.00  0.00    +0.306 C 
ATOM      3  N   LIG    1       24.850 -29.784   6.581  0.00  0.00    -0.271 N 
ATOM      4  C   LIG    1       24.505 -29.412   7.953  0.00  0.00    +0.155 C 
ATOM      5  C   LIG    1       25.439 -28.223   8.212  0.00  0.00    +0.152 C 
ATOM      6  C   LIG    1       26.726 -28.771   8.837  0.00  0.00    +0.302 C 
ATOM      7  S   LIG    1       26.415 -30.353   9.686  0.00  0.00    -0.004 S 
ATOM      8  C   LIG    1       25.890 -29.672  11.296  0.00  0.00    +0.278 C 
ATOM      9  C   LIG    1       24.445 -29.235  11.183  0.00  0.00    +0.059 C 
ATOM     10  C   LIG    1       23.777 -30.245  10.266  0.00  0.00    +0.064 C 
ATOM     11  C   LIG    1       24.688 -30.460   9.052  0.00  0.00    +0.230 C 
ATOM     12  N   LIG    1       25.657 -27.708   6.868  0.00  0.00    -0.272 N 
ENDROOT
BRANCH   3  13
ATOM     13  C   LIG    1       24.435 -30.989   5.888  0.00  0.00    +0.145 C 
BRANCH  13  14
ATOM     14  C   LIG    1       25.548 -31.936   5.504  0.00  0.00    -0.030 A 
ATOM     15  C   LIG    1       25.667 -32.421   4.192  0.00  0.00    +0.005 A 
ATOM     16  C   LIG    1       26.737 -33.248   3.838  0.00  0.00    +0.000 A 
ATOM     17  C   LIG    1       27.699 -33.595   4.784  0.00  0.00    +0.000 A 
ATOM     18  C   LIG    1       27.595 -33.114   6.089  0.00  0.00    +0.000 A 
ATOM     19  C   LIG    1       26.526 -32.287   6.442  0.00  0.00    +0.005 A 
ENDBRANCH  13  14
ENDBRANCH   3  13
BRANCH  12  20
ATOM     20  C   LIG    1       26.263 -26.424   6.573  0.00  0.00    +0.145 C 
BRANCH  20  21
ATOM     21  C   LIG    1       25.342 -25.241   6.741  0.00  0.00    -0.030 A 
ATOM     22  C   LIG    1       23.985 -25.331   6.401  0.00  0.00    +0.005 A 
ATOM     23  C   LIG    1       23.155 -24.211   6.492  0.00  0.00    +0.000 A 
ATOM     24  C   LIG    1       23.671 -22.991   6.927  0.00  0.00    +0.000 A 
ATOM     25  C   LIG    1       25.015 -22.891   7.277  0.00  0.00    +0.000 A 
ATOM     26  C   LIG    1       25.845 -24.007   7.180  0.00  0.00    +0.005 A 
ENDBRANCH  20  21
ENDBRANCH  12  20
TORSDOF 4
ENDMDL
MODEL 4
REMARK VINA RESULT:      -8.1      1.792      6.572
REMARK  Name = *****
REMARK                            x       y       z     vdW  Elec       q    Type
REMARK                         _______ _______ _______ _____ _____    ______ ____
ROOT
ATOM      1  O   LIG    1       24.545 -20.728   7.686  0.00  0.00    -0.252 OA
ATOM      2  C   LIG    1       24.720 -21.752   7.048  0.00  0.00    +0.306 C 
ATOM      3  N   LIG    1       25.772 -22.658   7.201  0.00  0.00    -0.271 N 
ATOM      4  C   LIG    1       25.723 -23.681   6.157  0.00  0.00    +0.155 C 
ATOM      5  C   LIG    1       24.262 -23.608   5.696  0.00  0.00    +0.152 C 
ATOM      6  C   LIG    1       23.463 -24.619   6.523  0.00  0.00    +0.302 C 
ATOM      7  S   LIG    1       24.539 -25.958   7.132  0.00  0.00    -0.004 S 
ATOM      8  C   LIG    1       24.443 -27.040   5.665  0.00  0.00    +0.278 C 
ATOM      9  C   LIG    1       25.391 -26.504   4.612  0.00  0.00    +0.059 C 
ATOM     10  C   LIG    1       26.590 -25.962   5.370  0.00  0.00    +0.064 C 
ATOM     11  C   LIG    1       26.071 -25.121   6.541  0.00  0.00    +0.230 C 
ATOM     12  N   LIG    1       23.909 -22.233   6.019  0.00  0.00    -0.272 N 
ENDROOT
BRANCH   3  13
ATOM     13  C   LIG    1       26.854 -22.441   8.142  0.00  0.00    +0.145 C 
BRANCH  13  14
ATOM     14  C   LIG    1       27.953 -21.517   7.669  0.00  0.00    -0.030 A 
ATOM     15  C   LIG    1       27.760 -20.661   6.573  0.00  0.00    +0.005 A 
ATOM     16  C   LIG    1       28.764 -19.770   6.186  0.00  0.00    +0.000 A 
ATOM     17  C   LIG    1       29.967 -19.720   6.888  0.00  0.00    +0.000 A 
ATOM     18  C   LIG    1       30.168 -20.561   7.983  0.00  0.00    +0.000 A 
ATOM     19  C   LIG    1       29.163 -21.451   8.370  0.00  0.00    +0.005 A 
ENDBRANCH  13  14
ENDBRANCH   3  13
BRANCH  12  20
ATOM     20  C   LIG    1       22.712 -21.564   5.549  0.00  0.00    +0.145 C 
BRANCH  20  21
ATOM     21  C   LIG    1       22.957 -20.240   4.870  0.00  0.00    -0.030 A 
ATOM     22  C   LIG    1       24.105 -20.032   4.090  0.00  0.00    +0.005 A 
ATOM     23  C   LIG    1       24.359 -18.781   3.523  0.00  0.00    +0.000 A 
ATOM     24  C   LIG    1       23.470 -17.726   3.725  0.00  0.00    +0.000 A 
ATOM     25  C   LIG    1       22.322 -17.923   4.488  0.00  0.00    +0.000 A 
ATOM     26  C   LIG    1       22.071 -19.169   5.060  0.00  0.00    +0.005 A 
ENDBRANCH  20  21
ENDBRANCH  12  20
TORSDOF 4
ENDMDL
MODEL 5
REMARK VINA RESULT:      -7.8      1.701      4.350
REMARK  Name = *****
REMARK                            x       y       z     vdW  Elec       q    Type
REMARK                         _______ _______ _______ _____ _____    ______ ____
ROOT
ATOM      1  O   LIG    1       26.891 -24.414   6.498  0.00  0.00    -0.252 OA
ATOM      2  C   LIG    1       25.959 -23.664   6.264  0.00  0.00    +0.306 C 
ATOM      3  N   LIG    1       25.689 -22.449   6.899  0.00  0.00    -0.271 N 
ATOM      4  C   LIG    1       24.404 -21.911   6.452  0.00  0.00    +0.155 C 
ATOM      5  C   LIG    1       24.191 -22.640   5.119  0.00  0.00    +0.152 C 
ATOM      6  C   LIG    1       24.782 -21.763   4.011  0.00  0.00    +0.302 C 
ATOM      7  S   LIG    1       24.809 -20.011   4.513  0.00  0.00    -0.004 S 
ATOM      8  C   LIG    1       23.114 -19.576   3.994  0.00  0.00    +0.278 C 
ATOM      9  C   LIG    1       22.150 -20.059   5.057  0.00  0.00    +0.059 C 
ATOM     10  C   LIG    1       22.863 -19.864   6.383  0.00  0.00    +0.064 C 
ATOM     11  C   LIG    1       24.291 -20.401   6.238  0.00  0.00    +0.230 C 
ATOM     12  N   LIG    1       24.955 -23.864   5.316  0.00  0.00    -0.272 N 
ENDROOT
BRANCH   3  13
ATOM     13  C   LIG    1       26.494 -21.951   7.998  0.00  0.00    +0.145 C 
BRANCH  13  14
ATOM     14  C   LIG    1       27.755 -21.219   7.603  0.00  0.00    -0.030 A 
ATOM     15  C   LIG    1       27.743 -20.249   6.589  0.00  0.00    +0.005 A 
ATOM     16  C   LIG    1       28.905 -19.537   6.276  0.00  0.00    +0.000 A 
ATOM     17  C   LIG    1       30.086 -19.781   6.974  0.00  0.00    +0.000 A 
ATOM     18  C   LIG    1       30.109 -20.738   7.989  0.00  0.00    +0.000 A 
ATOM     19  C   LIG    1       28.947 -21.449   8.301  0.00  0.00    +0.005 A 
ENDBRANCH  13  14
ENDBRANCH   3  13
BRANCH  12  20
ATOM     20  C   LIG    1       24.874 -25.025   4.451  0.00  0.00    +0.145 C 
BRANCH  20  21
ATOM     21  C   LIG    1       25.005 -26.349   5.162  0.00  0.00    -0.030 A 
ATOM     22  C   LIG    1       25.926 -27.312   4.726  0.00  0.00    +0.005 A 
ATOM     23  C   LIG    1       25.991 -28.563   5.346  0.00  0.00    +0.000 A 
ATOM     24  C   LIG    1       25.140 -28.863   6.409  0.00  0.00    +0.000 A 
ATOM     25  C   LIG    1       24.228 -27.911   6.858  0.00  0.00    +0.000 A 
ATOM     26  C   LIG    1       24.158 -26.665   6.235  0.00  0.00    +0.005 A 
ENDBRANCH  20  21
ENDBRANCH  12  20
TORSDOF 4
ENDMDL
MODEL 6
REMARK VINA RESULT:      -7.6      4.659      8.408
REMARK  Name = *****
REMARK                            x       y       z     vdW  Elec       q    Type
REMARK                         _______ _______ _______ _____ _____    ______ ____
ROOT
ATOM      1  O   LIG    1       26.645 -27.856   9.266  0.00  0.00    -0.252 OA
ATOM      2  C   LIG    1       25.971 -28.788   8.863  0.00  0.00    +0.306 C 
ATOM      3  N   LIG    1       25.624 -29.052   7.536  0.00  0.00    -0.271 N 
ATOM      4  C   LIG    1       24.684 -30.171   7.464  0.00  0.00    +0.155 C 
ATOM      5  C   LIG    1       24.916 -30.878   8.806  0.00  0.00    +0.152 C 
ATOM      6  C   LIG    1       25.987 -31.950   8.587  0.00  0.00    +0.302 C 
ATOM      7  S   LIG    1       26.028 -32.483   6.845  0.00  0.00    -0.004 S 
ATOM      8  C   LIG    1       24.728 -33.761   6.944  0.00  0.00    +0.278 C 
ATOM      9  C   LIG    1       23.379 -33.075   6.897  0.00  0.00    +0.059 C 
ATOM     10  C   LIG    1       23.544 -31.898   5.952  0.00  0.00    +0.064 C 
ATOM     11  C   LIG    1       24.843 -31.173   6.320  0.00  0.00    +0.230 C 
ATOM     12  N   LIG    1       25.394 -29.789   9.645  0.00  0.00    -0.272 N 
ENDROOT
BRANCH   3  13
ATOM     13  C   LIG    1       25.997 -28.171   6.445  0.00  0.00    +0.145 C 
BRANCH  13  14
ATOM     14  C   LIG    1       25.465 -26.760   6.537  0.00  0.00    -0.030 A 
ATOM     15  C   LIG    1       26.312 -25.684   6.845  0.00  0.00    +0.005 A 
ATOM     16  C   LIG    1       25.817 -24.377   6.867  0.00  0.00    +0.000 A 
ATOM     17  C   LIG    1       24.476 -24.129   6.578  0.00  0.00    +0.000 A 
ATOM     18  C   LIG    1       23.626 -25.190   6.264  0.00  0.00    +0.000 A 
ATOM     19  C   LIG    1       24.122 -26.496   6.241  0.00  0.00    +0.005 A 
ENDBRANCH  13  14
ENDBRANCH   3  13
BRANCH  12  20
ATOM     20  C   LIG    1       25.515 -29.862  11.089  0.00  0.00    +0.145 C 
BRANCH  20  21
ATOM     21  C   LIG    1       24.538 -28.998  11.846  0.00  0.00    -0.030 A 
ATOM     22  C   LIG    1       24.983 -27.912  12.615  0.00  0.00    +0.005 A 
ATOM     23  C   LIG    1       24.079 -27.160  13.370  0.00  0.00    +0.000 A 
ATOM     24  C   LIG    1       22.722 -27.482  13.363  0.00  0.00    +0.000 A 
ATOM     25  C   LIG    1       22.267 -28.552  12.597  0.00  0.00    +0.000 A 
ATOM     26  C   LIG    1       23.169 -29.307  11.848  0.00  0.00    +0.005 A 
ENDBRANCH  20  21
ENDBRANCH  12  20
TORSDOF 4
ENDMDL
MODEL 7
REMARK VINA RESULT:      -7.2      5.012      9.880
REMARK  Name = *****
REMARK                            x       y       z     vdW  Elec       q    Type
REMARK                         _______ _______ _______ _____ _____    ______ ____
ROOT
ATOM      1  O   LIG    1       23.837 -29.537   8.758  0.00  0.00    -0.252 OA
ATOM      2  C   LIG    1       24.542 -30.126   7.957  0.00  0.00    +0.306 C 
ATOM      3  N   LIG    1       25.380 -31.210   8.226  0.00  0.00    -0.271 N 
ATOM      4  C   LIG    1       26.177 -31.547   7.047  0.00  0.00    +0.155 C 
ATOM      5  C   LIG    1       25.362 -30.915   5.911  0.00  0.00    +0.152 C 
ATOM      6  C   LIG    1       24.396 -31.980   5.385  0.00  0.00    +0.302 C 
ATOM      7  S   LIG    1       25.031 -33.656   5.715  0.00  0.00    -0.004 S 
ATOM      8  C   LIG    1       26.073 -33.825   4.225  0.00  0.00    +0.278 C 
ATOM      9  C   LIG    1       27.371 -33.083   4.463  0.00  0.00    +0.059 C 
ATOM     10  C   LIG    1       27.700 -33.282   5.932  0.00  0.00    +0.064 C 
ATOM     11  C   LIG    1       26.425 -33.025   6.742  0.00  0.00    +0.230 C 
ATOM     12  N   LIG    1       24.668 -29.836   6.598  0.00  0.00    -0.272 N 
ENDROOT
BRANCH   3  13
ATOM     13  C   LIG    1       25.557 -31.743   9.564  0.00  0.00    +0.145 C 
BRANCH  13  14
ATOM     14  C   LIG    1       26.115 -30.776  10.582  0.00  0.00    -0.030 A 
ATOM     15  C   LIG    1       25.478 -30.573  11.816  0.00  0.00    +0.005 A 
ATOM     16  C   LIG    1       26.039 -29.720  12.771  0.00  0.00    +0.000 A 
ATOM     17  C   LIG    1       27.241 -29.067  12.508  0.00  0.00    +0.000 A 
ATOM     18  C   LIG    1       27.888 -29.266  11.288  0.00  0.00    +0.000 A 
ATOM     19  C   LIG    1       27.327 -30.118  10.334  0.00  0.00    +0.005 A 
ENDBRANCH  13  14
ENDBRANCH   3  13
BRANCH  12  20
ATOM     20  C   LIG    1       23.961 -28.762   5.928  0.00  0.00    +0.145 C 
BRANCH  20  21
ATOM     21  C   LIG    1       24.651 -27.421   5.988  0.00  0.00    -0.030 A 
ATOM     22  C   LIG    1       26.050 -27.332   6.009  0.00  0.00    +0.005 A 
ATOM     23  C   LIG    1       26.680 -26.091   6.136  0.00  0.00    +0.000 A 
ATOM     24  C   LIG    1       25.919 -24.927   6.241  0.00  0.00    +0.000 A 
ATOM     25  C   LIG    1       24.529 -25.002   6.212  0.00  0.00    +0.000 A 
ATOM     26  C   LIG    1       23.900 -26.241   6.092  0.00  0.00    +0.005 A 
ENDBRANCH  20  21
ENDBRANCH  12  20
TORSDOF 4
ENDMDL
MODEL 8
REMARK VINA RESULT:      -7.2      6.114      9.568
REMARK  Name = *****
REMARK                            x       y       z     vdW  Elec       q    Type
REMARK                         _______ _______ _______ _____ _____    ______ ____
ROOT
ATOM      1  O   LIG    1       27.437 -29.059  10.265  0.00  0.00    -0.252 OA
ATOM      2  C   LIG    1       26.306 -29.431  10.528  0.00  0.00    +0.306 C 
ATOM      3  N   LIG    1       25.397 -30.018   9.644  0.00  0.00    -0.271 N 
ATOM      4  C   LIG    1       24.094 -30.188  10.286  0.00  0.00    +0.155 C 
ATOM      5  C   LIG    1       24.456 -30.138  11.776  0.00  0.00    +0.152 C 
ATOM      6  C   LIG    1       24.711 -31.576  12.239  0.00  0.00    +0.302 C 
ATOM      7  S   LIG    1       23.823 -32.767  11.185  0.00  0.00    -0.004 S 
ATOM      8  C   LIG    1       22.225 -32.737  12.066  0.00  0.00    +0.278 C 
ATOM      9  C   LIG    1       21.463 -31.502  11.633  0.00  0.00    +0.059 C 
ATOM     10  C   LIG    1       21.790 -31.306  10.163  0.00  0.00    +0.064 C 
ATOM     11  C   LIG    1       23.305 -31.464   9.990  0.00  0.00    +0.230 C 
ATOM     12  N   LIG    1       25.673 -29.340  11.768  0.00  0.00    -0.272 N 
ENDROOT
BRANCH   3  13
ATOM     13  C   LIG    1       25.693 -30.206   8.236  0.00  0.00    +0.145 C 
BRANCH  13  14
ATOM     14  C   LIG    1       25.259 -29.082   7.324  0.00  0.00    -0.030 A 
ATOM     15  C   LIG    1       25.757 -27.780   7.490  0.00  0.00    +0.005 A 
ATOM     16  C   LIG    1       25.393 -26.765   6.601  0.00  0.00    +0.000 A 
ATOM     17  C   LIG    1       24.535 -27.037   5.537  0.00  0.00    +0.000 A 
ATOM     18  C   LIG    1       24.040 -28.329   5.358  0.00  0.00    +0.000 A 
ATOM     19  C   LIG    1       24.404 -29.343   6.246  0.00  0.00    +0.005 A 
ENDBRANCH  13  14
ENDBRANCH   3  13
BRANCH  12  20
ATOM     20  C   LIG    1       26.287 -28.774  12.953  0.00  0.00    +0.145 C 
BRANCH  20  21
ATOM     21  C   LIG    1       25.910 -27.340  13.233  0.00  0.00    -0.030 A 
ATOM     22  C   LIG    1       26.889 -26.339  13.302  0.00  0.00    +0.005 A 
ATOM     23  C   LIG    1       26.539 -25.027  13.632  0.00  0.00    +0.000 A 
ATOM     24  C   LIG    1       25.209 -24.701  13.892  0.00  0.00    +0.000 A 
ATOM     25  C   LIG    1       24.226 -25.684  13.817  0.00  0.00    +0.000 A 
ATOM     26  C   LIG    1       24.575 -26.996  13.494  0.00  0.00    +0.005 A 
ENDBRANCH  20  21
ENDBRANCH  12  20
TORSDOF 4
ENDMDL
MODEL 9
REMARK VINA RESULT:      -7.0      2.393      5.256
REMARK  Name = *****
REMARK                            x       y       z     vdW  Elec       q    Type
REMARK                         _______ _______ _______ _____ _____    ______ ____
ROOT
ATOM      1  O   LIG    1       28.000 -21.968   7.167  0.00  0.00    -0.252 OA
ATOM      2  C   LIG    1       27.050 -21.382   6.677  0.00  0.00    +0.306 C 
ATOM      3  N   LIG    1       27.104 -20.272   5.832  0.00  0.00    -0.271 N 
ATOM      4  C   LIG    1       25.759 -19.758   5.574  0.00  0.00    +0.155 C 
ATOM      5  C   LIG    1       24.878 -20.970   5.907  0.00  0.00    +0.152 C 
ATOM      6  C   LIG    1       24.670 -21.762   4.613  0.00  0.00    +0.302 C 
ATOM      7  S   LIG    1       24.854 -20.686   3.154  0.00  0.00    -0.004 S 
ATOM      8  C   LIG    1       23.138 -20.065   3.084  0.00  0.00    +0.278 C 
ATOM      9  C   LIG    1       22.986 -18.963   4.110  0.00  0.00    +0.059 C 
ATOM     10  C   LIG    1       24.311 -18.220   4.121  0.00  0.00    +0.064 C 
ATOM     11  C   LIG    1       25.437 -19.259   4.164  0.00  0.00    +0.230 C 
ATOM     12  N   LIG    1       25.703 -21.691   6.865  0.00  0.00    -0.272 N 
ENDROOT
BRANCH   3  13
ATOM     13  C   LIG    1       28.353 -19.627   5.474  0.00  0.00    +0.145 C 
BRANCH  13  14
ATOM     14  C   LIG    1       29.294 -19.345   6.622  0.00  0.00    -0.030 A 
ATOM     15  C   LIG    1       30.687 -19.364   6.441  0.00  0.00    +0.005 A 
ATOM     16  C   LIG    1       31.542 -19.043   7.498  0.00  0.00    +0.000 A 
ATOM     17  C   LIG    1       31.020 -18.695   8.743  0.00  0.00    +0.000 A 
ATOM     18  C   LIG    1       29.638 -18.666   8.933  0.00  0.00    +0.000 A 
ATOM     19  C   LIG    1       28.784 -18.987   7.876  0.00  0.00    +0.005 A 
ENDBRANCH  13  14
ENDBRANCH   3  13
BRANCH  12  20
ATOM     20  C   LIG    1       25.228 -22.782   7.693  0.00  0.00    +0.145 C 
BRANCH  20  21
ATOM     21  C   LIG    1       25.112 -24.108   6.982  0.00  0.00    -0.030 A 
ATOM     22  C   LIG    1       23.868 -24.583   6.543  0.00  0.00    +0.005 A 
ATOM     23  C   LIG    1       23.760 -25.843   5.949  0.00  0.00    +0.000 A 
ATOM     24  C   LIG    1       24.892 -26.639   5.784  0.00  0.00    +0.000 A 
ATOM     25  C   LIG    1       26.135 -26.175   6.207  0.00  0.00    +0.000 A 
ATOM     26  C   LIG    1       26.243 -24.920   6.806  0.00  0.00    +0.005 A 
ENDBRANCH  20  21
ENDBRANCH  12  20
TORSDOF 4
ENDMDL
