MODEL 1
REMARK VINA RESULT:      -6.6      0.000      0.000
REMARK  Name = *****
REMARK                            x       y       z     vdW  Elec       q    Type
REMARK                         _______ _______ _______ _____ _____    ______ ____
ROOT
ATOM      1  C   LIG    1       24.048 -24.081   5.677  0.00  0.00    +0.256 C 
ATOM      2  C   LIG    1       25.507 -23.920   6.181  0.00  0.00    +0.048 C 
ATOM      3  C   LIG    1       25.904 -25.070   7.114  0.00  0.00    +0.013 C 
ATOM      4  C   LIG    1       25.671 -22.524   6.827  0.00  0.00    +0.037 C 
ATOM      5  C   LIG    1       25.294 -21.402   5.814  0.00  0.00    +0.161 C 
ATOM      6  C   LIG    1       26.533 -20.598   5.323  0.00  0.00    +0.032 C 
ATOM      7  C   LIG    1       27.330 -19.967   6.504  0.00  0.00    -0.008 C 
ATOM      8  C   LIG    1       28.789 -19.698   6.100  0.00  0.00    +0.008 C 
ATOM      9  C   LIG    1       27.304 -20.844   7.770  0.00  0.00    +0.004 C 
ATOM     10  C   LIG    1       26.176 -19.528   4.261  0.00  0.00    +0.012 C 
ATOM     11  C   LIG    1       24.807 -18.844   4.412  0.00  0.00    +0.068 C 
ATOM     12  C   LIG    1       23.618 -19.829   4.497  0.00  0.00    +0.203 C 
ATOM     13  C   LIG    1       22.370 -19.204   3.880  0.00  0.00    +0.077 C 
ATOM     14  O   LIG    1       23.279 -20.153   5.847  0.00  0.00    -0.199 OA
ATOM     15  O   LIG    1       23.914 -21.012   3.756  0.00  0.00    -0.314 OA
ATOM     16  C   LIG    1       24.520 -21.999   4.596  0.00  0.00    +0.292 C 
ATOM     17  O   LIG    1       24.510 -20.445   6.570  0.00  0.00    -0.220 OA
ATOM     18  C   LIG    1       27.064 -22.312   7.446  0.00  0.00    +0.007 C 
ATOM     19  O   LIG    1       23.535 -22.939   5.001  0.00  0.00    -0.319 OA
ENDROOT
BRANCH   1  21
ATOM     20  C   LIG    1       22.184 -23.425   6.981  0.00  0.00    +0.197 C 
ATOM     21  O   LIG    1       23.216 -24.383   6.800  0.00  0.00    -0.354 OA
ENDBRANCH   1  21
TORSDOF 1
ENDMDL
MODEL 2
REMARK VINA RESULT:      -5.9      6.977     10.162
REMARK  Name = *****
REMARK                            x       y       z     vdW  Elec       q    Type
REMARK                         _______ _______ _______ _____ _____    ______ ____
ROOT
ATOM      1  C   LIG    1       24.438 -29.291   6.311  0.00  0.00    +0.256 C 
ATOM      2  C   LIG    1       25.061 -28.298   7.329  0.00  0.00    +0.048 C 
ATOM      3  C   LIG    1       25.885 -27.218   6.620  0.00  0.00    +0.013 C 
ATOM      4  C   LIG    1       25.869 -29.091   8.383  0.00  0.00    +0.037 C 
ATOM      5  C   LIG    1       24.963 -30.140   9.095  0.00  0.00    +0.161 C 
ATOM      6  C   LIG    1       24.656 -29.760  10.572  0.00  0.00    +0.032 C 
ATOM      7  C   LIG    1       25.954 -29.560  11.411  0.00  0.00    -0.008 C 
ATOM      8  C   LIG    1       25.689 -28.659  12.627  0.00  0.00    +0.008 C 
ATOM      9  C   LIG    1       27.109 -28.971  10.580  0.00  0.00    +0.004 C 
ATOM     10  C   LIG    1       23.697 -30.760  11.266  0.00  0.00    +0.012 C 
ATOM     11  C   LIG    1       23.825 -32.234  10.845  0.00  0.00    +0.068 C 
ATOM     12  C   LIG    1       23.713 -32.464   9.320  0.00  0.00    +0.203 C 
ATOM     13  C   LIG    1       23.082 -33.825   9.037  0.00  0.00    +0.077 C 
ATOM     14  O   LIG    1       24.991 -32.474   8.680  0.00  0.00    -0.199 OA
ATOM     15  O   LIG    1       22.868 -31.472   8.740  0.00  0.00    -0.314 OA
ATOM     16  C   LIG    1       23.634 -30.346   8.302  0.00  0.00    +0.292 C 
ATOM     17  O   LIG    1       25.764 -31.346   9.183  0.00  0.00    -0.220 OA
ATOM     18  C   LIG    1       26.606 -28.180   9.379  0.00  0.00    +0.007 C 
ATOM     19  O   LIG    1       23.859 -30.448   6.903  0.00  0.00    -0.319 OA
ENDROOT
BRANCH   1  21
ATOM     20  C   LIG    1       25.542 -31.098   5.251  0.00  0.00    +0.197 C 
ATOM     21  O   LIG    1       25.458 -29.687   5.390  0.00  0.00    -0.354 OA
ENDBRANCH   1  21
TORSDOF 1
ENDMDL
MODEL 3
REMARK VINA RESULT:      -5.9      1.648      4.818
REMARK  Name = *****
REMARK                            x       y       z     vdW  Elec       q    Type
REMARK                         _______ _______ _______ _____ _____    ______ ____
ROOT
ATOM      1  C   LIG    1       23.282 -19.394   4.552  0.00  0.00    +0.256 C 
ATOM      2  C   LIG    1       22.582 -20.777   4.464  0.00  0.00    +0.048 C 
ATOM      3  C   LIG    1       21.116 -20.632   4.038  0.00  0.00    +0.013 C 
ATOM      4  C   LIG    1       22.758 -21.523   5.806  0.00  0.00    +0.037 C 
ATOM      5  C   LIG    1       24.270 -21.674   6.157  0.00  0.00    +0.161 C 
ATOM      6  C   LIG    1       24.771 -23.141   6.026  0.00  0.00    +0.032 C 
ATOM      7  C   LIG    1       23.946 -24.126   6.908  0.00  0.00    -0.008 C 
ATOM      8  C   LIG    1       24.036 -25.559   6.362  0.00  0.00    +0.008 C 
ATOM      9  C   LIG    1       22.466 -23.715   7.026  0.00  0.00    +0.004 C 
ATOM     10  C   LIG    1       26.288 -23.288   6.302  0.00  0.00    +0.012 C 
ATOM     11  C   LIG    1       26.884 -22.347   7.363  0.00  0.00    +0.068 C 
ATOM     12  C   LIG    1       26.602 -20.849   7.105  0.00  0.00    +0.203 C 
ATOM     13  C   LIG    1       27.755 -19.997   7.628  0.00  0.00    +0.077 C 
ATOM     14  O   LIG    1       25.428 -20.395   7.784  0.00  0.00    -0.199 OA
ATOM     15  O   LIG    1       26.495 -20.610   5.702  0.00  0.00    -0.314 OA
ATOM     16  C   LIG    1       25.136 -20.725   5.270  0.00  0.00    +0.292 C 
ATOM     17  O   LIG    1       24.370 -21.375   7.572  0.00  0.00    -0.220 OA
ATOM     18  C   LIG    1       22.011 -22.867   5.846  0.00  0.00    +0.007 C 
ATOM     19  O   LIG    1       24.567 -19.428   5.163  0.00  0.00    -0.319 OA
ENDROOT
BRANCH   1  21
ATOM     20  C   LIG    1       22.233 -17.271   4.608  0.00  0.00    +0.197 C 
ATOM     21  O   LIG    1       22.431 -18.506   5.282  0.00  0.00    -0.354 OA
ENDBRANCH   1  21
TORSDOF 1
ENDMDL
MODEL 4
REMARK VINA RESULT:      -5.7      1.469      4.148
REMARK  Name = *****
REMARK                            x       y       z     vdW  Elec       q    Type
REMARK                         _______ _______ _______ _____ _____    ______ ____
ROOT
ATOM      1  C   LIG    1       23.878 -19.366   3.838  0.00  0.00    +0.256 C 
ATOM      2  C   LIG    1       25.214 -18.729   4.306  0.00  0.00    +0.048 C 
ATOM      3  C   LIG    1       25.805 -17.818   3.224  0.00  0.00    +0.013 C 
ATOM      4  C   LIG    1       26.181 -19.849   4.757  0.00  0.00    +0.037 C 
ATOM      5  C   LIG    1       25.538 -20.709   5.886  0.00  0.00    +0.161 C 
ATOM      6  C   LIG    1       26.205 -20.474   7.272  0.00  0.00    +0.032 C 
ATOM      7  C   LIG    1       27.739 -20.747   7.239  0.00  0.00    -0.008 C 
ATOM      8  C   LIG    1       28.455 -19.989   8.368  0.00  0.00    +0.008 C 
ATOM      9  C   LIG    1       28.377 -20.375   5.888  0.00  0.00    +0.004 C 
ATOM     10  C   LIG    1       25.524 -21.271   8.413  0.00  0.00    +0.012 C 
ATOM     11  C   LIG    1       24.957 -22.650   8.039  0.00  0.00    +0.068 C 
ATOM     12  C   LIG    1       23.978 -22.625   6.842  0.00  0.00    +0.203 C 
ATOM     13  C   LIG    1       22.922 -23.715   7.002  0.00  0.00    +0.077 C 
ATOM     14  O   LIG    1       24.637 -22.884   5.600  0.00  0.00    -0.199 OA
ATOM     15  O   LIG    1       23.297 -21.372   6.799  0.00  0.00    -0.314 OA
ATOM     16  C   LIG    1       24.001 -20.440   5.973  0.00  0.00    +0.292 C 
ATOM     17  O   LIG    1       25.854 -22.084   5.552  0.00  0.00    -0.220 OA
ATOM     18  C   LIG    1       27.571 -19.317   5.145  0.00  0.00    +0.007 C 
ATOM     19  O   LIG    1       23.395 -20.399   4.689  0.00  0.00    -0.319 OA
ENDROOT
BRANCH   1  21
ATOM     20  C   LIG    1       23.897 -21.294   2.464  0.00  0.00    +0.197 C 
ATOM     21  O   LIG    1       24.065 -19.885   2.519  0.00  0.00    -0.354 OA
ENDBRANCH   1  21
TORSDOF 1
ENDMDL
MODEL 5
REMARK VINA RESULT:      -5.5      1.893      5.186
REMARK  Name = *****
REMARK                            x       y       z     vdW  Elec       q    Type
REMARK                         _______ _______ _______ _____ _____    ______ ____
ROOT
ATOM      1  C   LIG    1       25.656 -19.169   3.673  0.00  0.00    +0.256 C 
ATOM      2  C   LIG    1       24.483 -20.184   3.624  0.00  0.00    +0.048 C 
ATOM      3  C   LIG    1       23.344 -19.675   2.733  0.00  0.00    +0.013 C 
ATOM      4  C   LIG    1       24.032 -20.510   5.067  0.00  0.00    +0.037 C 
ATOM      5  C   LIG    1       25.224 -21.063   5.904  0.00  0.00    +0.161 C 
ATOM      6  C   LIG    1       25.085 -22.581   6.215  0.00  0.00    +0.032 C 
ATOM      7  C   LIG    1       23.753 -22.910   6.954  0.00  0.00    -0.008 C 
ATOM      8  C   LIG    1       23.355 -24.379   6.742  0.00  0.00    +0.008 C 
ATOM      9  C   LIG    1       22.592 -21.998   6.513  0.00  0.00    +0.004 C 
ATOM     10  C   LIG    1       26.301 -23.155   6.984  0.00  0.00    +0.012 C 
ATOM     11  C   LIG    1       26.984 -22.209   7.986  0.00  0.00    +0.068 C 
ATOM     12  C   LIG    1       27.416 -20.854   7.377  0.00  0.00    +0.203 C 
ATOM     13  C   LIG    1       28.673 -20.339   8.074  0.00  0.00    +0.077 C 
ATOM     14  O   LIG    1       26.420 -19.843   7.548  0.00  0.00    -0.199 OA
ATOM     15  O   LIG    1       27.731 -21.021   5.996  0.00  0.00    -0.314 OA
ATOM     16  C   LIG    1       26.580 -20.782   5.181  0.00  0.00    +0.292 C 
ATOM     17  O   LIG    1       25.126 -20.411   7.196  0.00  0.00    -0.220 OA
ATOM     18  C   LIG    1       22.804 -21.436   5.114  0.00  0.00    +0.007 C 
ATOM     19  O   LIG    1       26.641 -19.462   4.658  0.00  0.00    -0.319 OA
ENDROOT
BRANCH   1  21
ATOM     20  C   LIG    1       25.873 -16.842   3.289  0.00  0.00    +0.197 C 
ATOM     21  O   LIG    1       25.115 -17.868   3.914  0.00  0.00    -0.354 OA
ENDBRANCH   1  21
TORSDOF 1
ENDMDL
MODEL 6
REMARK VINA RESULT:      -5.4      7.550     10.086
REMARK  Name = *****
REMARK                            x       y       z     vdW  Elec       q    Type
REMARK                         _______ _______ _______ _____ _____    ______ ____
ROOT
ATOM      1  C   LIG    1       26.236 -30.894  10.643  0.00  0.00    +0.256 C 
ATOM      2  C   LIG    1       26.715 -29.708   9.764  0.00  0.00    +0.048 C 
ATOM      3  C   LIG    1       27.325 -28.592  10.621  0.00  0.00    +0.013 C 
ATOM      4  C   LIG    1       25.545 -29.227   8.875  0.00  0.00    +0.037 C 
ATOM      5  C   LIG    1       25.002 -30.397   8.000  0.00  0.00    +0.161 C 
ATOM      6  C   LIG    1       25.354 -30.230   6.494  0.00  0.00    +0.032 C 
ATOM      7  C   LIG    1       24.833 -28.881   5.914  0.00  0.00    -0.008 C 
ATOM      8  C   LIG    1       25.643 -28.467   4.675  0.00  0.00    +0.008 C 
ATOM      9  C   LIG    1       24.865 -27.741   6.950  0.00  0.00    +0.004 C 
ATOM     10  C   LIG    1       24.882 -31.425   5.628  0.00  0.00    +0.012 C 
ATOM     11  C   LIG    1       23.570 -32.103   6.057  0.00  0.00    +0.068 C 
ATOM     12  C   LIG    1       23.554 -32.564   7.532  0.00  0.00    +0.203 C 
ATOM     13  C   LIG    1       22.693 -33.816   7.685  0.00  0.00    +0.077 C 
ATOM     14  O   LIG    1       22.987 -31.580   8.400  0.00  0.00    -0.199 OA
ATOM     15  O   LIG    1       24.876 -32.901   7.950  0.00  0.00    -0.314 OA
ATOM     16  C   LIG    1       25.529 -31.768   8.530  0.00  0.00    +0.292 C 
ATOM     17  O   LIG    1       23.558 -30.284   8.057  0.00  0.00    -0.220 OA
ATOM     18  C   LIG    1       25.901 -27.985   8.039  0.00  0.00    +0.007 C 
ATOM     19  O   LIG    1       25.453 -31.857   9.946  0.00  0.00    -0.319 OA
ENDROOT
BRANCH   1  21
ATOM     20  C   LIG    1       24.231 -31.024  11.896  0.00  0.00    +0.197 C 
ATOM     21  O   LIG    1       25.480 -30.367  11.736  0.00  0.00    -0.354 OA
ENDBRANCH   1  21
TORSDOF 1
ENDMDL
MODEL 7
REMARK VINA RESULT:      -5.2      7.271     10.312
REMARK  Name = *****
REMARK                            x       y       z     vdW  Elec       q    Type
REMARK                         _______ _______ _______ _____ _____    ______ ____
ROOT
ATOM      1  C   LIG    1       23.132 -31.531   9.856  0.00  0.00    +0.256 C 
ATOM      2  C   LIG    1       24.024 -32.772   9.585  0.00  0.00    +0.048 C 
ATOM      3  C   LIG    1       24.106 -33.678  10.819  0.00  0.00    +0.013 C 
ATOM      4  C   LIG    1       25.407 -32.305   9.076  0.00  0.00    +0.037 C 
ATOM      5  C   LIG    1       25.254 -31.426   7.798  0.00  0.00    +0.161 C 
ATOM      6  C   LIG    1       25.753 -32.148   6.513  0.00  0.00    +0.032 C 
ATOM      7  C   LIG    1       27.237 -32.609   6.636  0.00  0.00    -0.008 C 
ATOM      8  C   LIG    1       27.532 -33.772   5.675  0.00  0.00    +0.008 C 
ATOM      9  C   LIG    1       27.610 -33.024   8.072  0.00  0.00    +0.004 C 
ATOM     10  C   LIG    1       25.538 -31.310   5.227  0.00  0.00    +0.012 C 
ATOM     11  C   LIG    1       25.675 -29.786   5.374  0.00  0.00    +0.068 C 
ATOM     12  C   LIG    1       24.781 -29.178   6.480  0.00  0.00    +0.203 C 
ATOM     13  C   LIG    1       24.357 -27.763   6.097  0.00  0.00    +0.077 C 
ATOM     14  O   LIG    1       25.468 -29.066   7.729  0.00  0.00    -0.199 OA
ATOM     15  O   LIG    1       23.594 -29.955   6.626  0.00  0.00    -0.314 OA
ATOM     16  C   LIG    1       23.771 -30.970   7.619  0.00  0.00    +0.292 C 
ATOM     17  O   LIG    1       26.171 -30.317   7.978  0.00  0.00    -0.220 OA
ATOM     18  C   LIG    1       26.393 -33.468   8.874  0.00  0.00    +0.007 C 
ATOM     19  O   LIG    1       23.198 -30.533   8.844  0.00  0.00    -0.319 OA
ENDROOT
BRANCH   1  21
ATOM     20  C   LIG    1       22.766 -29.808  11.439  0.00  0.00    +0.197 C 
ATOM     21  O   LIG    1       23.523 -30.964  11.110  0.00  0.00    -0.354 OA
ENDBRANCH   1  21
TORSDOF 1
ENDMDL
MODEL 8
REMARK VINA RESULT:      -5.2      1.478      4.212
REMARK  Name = *****
REMARK                            x       y       z     vdW  Elec       q    Type
REMARK                         _______ _______ _______ _____ _____    ______ ____
ROOT
ATOM      1  C   LIG    1       26.710 -20.339   7.660  0.00  0.00    +0.256 C 
ATOM      2  C   LIG    1       26.885 -21.865   7.884  0.00  0.00    +0.048 C 
ATOM      3  C   LIG    1       28.336 -22.213   8.236  0.00  0.00    +0.013 C 
ATOM      4  C   LIG    1       26.357 -22.626   6.645  0.00  0.00    +0.037 C 
ATOM      5  C   LIG    1       24.868 -22.261   6.369  0.00  0.00    +0.161 C 
ATOM      6  C   LIG    1       23.895 -23.432   6.690  0.00  0.00    +0.032 C 
ATOM      7  C   LIG    1       24.253 -24.727   5.900  0.00  0.00    -0.008 C 
ATOM      8  C   LIG    1       23.707 -25.974   6.613  0.00  0.00    +0.008 C 
ATOM      9  C   LIG    1       25.770 -24.885   5.682  0.00  0.00    +0.004 C 
ATOM     10  C   LIG    1       22.406 -23.053   6.488  0.00  0.00    +0.012 C 
ATOM     11  C   LIG    1       22.100 -22.070   5.346  0.00  0.00    +0.068 C 
ATOM     12  C   LIG    1       22.909 -20.754   5.417  0.00  0.00    +0.203 C 
ATOM     13  C   LIG    1       22.092 -19.601   4.839  0.00  0.00    +0.077 C 
ATOM     14  O   LIG    1       24.112 -20.817   4.647  0.00  0.00    -0.199 OA
ATOM     15  O   LIG    1       23.197 -20.434   6.777  0.00  0.00    -0.314 OA
ATOM     16  C   LIG    1       24.458 -20.983   7.170  0.00  0.00    +0.292 C 
ATOM     17  O   LIG    1       24.772 -22.084   4.933  0.00  0.00    -0.220 OA
ATOM     18  C   LIG    1       26.581 -24.145   6.737  0.00  0.00    +0.007 C 
ATOM     19  O   LIG    1       25.453 -19.972   7.103  0.00  0.00    -0.319 OA
ENDROOT
BRANCH   1  21
ATOM     20  C   LIG    1       27.320 -19.695   5.464  0.00  0.00    +0.197 C 
ATOM     21  O   LIG    1       27.761 -19.889   6.800  0.00  0.00    -0.354 OA
ENDBRANCH   1  21
TORSDOF 1
ENDMDL
MODEL 9
REMARK VINA RESULT:      -5.2      8.407     10.778
REMARK  Name = *****
REMARK                            x       y       z     vdW  Elec       q    Type
REMARK                         _______ _______ _______ _____ _____    ______ ____
ROOT
ATOM      1  C   LIG    1       25.331 -30.090  11.622  0.00  0.00    +0.256 C 
ATOM      2  C   LIG    1       26.059 -29.535  10.368  0.00  0.00    +0.048 C 
ATOM      3  C   LIG    1       26.758 -28.205  10.673  0.00  0.00    +0.013 C 
ATOM      4  C   LIG    1       25.056 -29.445   9.195  0.00  0.00    +0.037 C 
ATOM      5  C   LIG    1       24.416 -30.837   8.909  0.00  0.00    +0.161 C 
ATOM      6  C   LIG    1       24.915 -31.462   7.575  0.00  0.00    +0.032 C 
ATOM      7  C   LIG    1       24.658 -30.528   6.355  0.00  0.00    -0.008 C 
ATOM      8  C   LIG    1       25.623 -30.851   5.203  0.00  0.00    +0.008 C 
ATOM      9  C   LIG    1       24.777 -29.035   6.718  0.00  0.00    +0.004 C 
ATOM     10  C   LIG    1       24.340 -32.878   7.320  0.00  0.00    +0.012 C 
ATOM     11  C   LIG    1       22.909 -33.134   7.819  0.00  0.00    +0.068 C 
ATOM     12  C   LIG    1       22.697 -32.811   9.316  0.00  0.00    +0.203 C 
ATOM     13  C   LIG    1       21.645 -33.741   9.914  0.00  0.00    +0.077 C 
ATOM     14  O   LIG    1       22.217 -31.480   9.519  0.00  0.00    -0.199 OA
ATOM     15  O   LIG    1       23.912 -33.022  10.034  0.00  0.00    -0.314 OA
ATOM     16  C   LIG    1       24.680 -31.816  10.098  0.00  0.00    +0.292 C 
ATOM     17  O   LIG    1       23.006 -30.577   8.691  0.00  0.00    -0.220 OA
ATOM     18  C   LIG    1       25.667 -28.811   7.934  0.00  0.00    +0.007 C 
ATOM     19  O   LIG    1       24.471 -31.193  11.357  0.00  0.00    -0.319 OA
ENDROOT
BRANCH   1  21
ATOM     20  C   LIG    1       23.214 -29.378  12.407  0.00  0.00    +0.197 C 
ATOM     21  O   LIG    1       24.576 -29.027  12.208  0.00  0.00    -0.354 OA
ENDBRANCH   1  21
TORSDOF 1
ENDMDL
