MODEL 1
REMARK VINA RESULT:      -5.3      0.000      0.000
REMARK  Name = *****
REMARK                            x       y       z     vdW  Elec       q    Type
REMARK                         _______ _______ _______ _____ _____    ______ ____
ROOT
ATOM      1  N   LIG    1       25.700 -16.821   2.947  0.00  0.00    -0.302 NA
ATOM      2  H   LIG    1       24.734 -17.039   3.199  0.00  0.00    +0.123 HD
ENDROOT
BRANCH   1   3
ATOM      3  C   LIG    1       26.013 -15.431   3.334  0.00  0.00    +0.023 C 
ATOM      4  C   LIG    1       27.170 -15.434   4.383  0.00  0.00    +0.026 C 
ATOM      5  C   LIG    1       27.546 -13.990   4.788  0.00  0.00    -0.006 C 
ATOM      6  C   LIG    1       26.322 -13.304   5.410  0.00  0.00    +0.038 C 
ATOM      7  C   LIG    1       25.166 -13.287   4.397  0.00  0.00    +0.068 C 
ATOM      8  C   LIG    1       25.595 -12.515   3.139  0.00  0.00    +0.038 C 
ATOM      9  C   LIG    1       26.839 -13.169   2.517  0.00  0.00    -0.006 C 
ATOM     10  C   LIG    1       27.980 -13.199   3.542  0.00  0.00    +0.007 C 
ATOM     11  C   LIG    1       24.804 -14.729   4.000  0.00  0.00    +0.057 C 
ATOM     12  C   LIG    1       26.502 -14.610   2.115  0.00  0.00    +0.026 C 
BRANCH   7  13
ATOM     13  O   LIG    1       24.026 -12.669   4.978  0.00  0.00    -0.389 OA
ATOM     14  H   LIG    1       23.972 -12.949   5.907  0.00  0.00    +0.210 HD
ENDBRANCH   7  13
ENDBRANCH   1   3
BRANCH   1  15
ATOM     15  C   LIG    1       26.579 -17.849   3.561  0.00  0.00    +0.178 C 
BRANCH  15  18
ATOM     16  C   LIG    1       25.601 -20.975   5.628  0.00  0.00    +0.179 C 
ATOM     17  N   LIG    1       26.253 -19.770   5.106  0.00  0.00    -0.285 N 
ATOM     18  C   LIG    1       25.784 -19.087   4.009  0.00  0.00    +0.230 C 
ATOM     19  O   LIG    1       24.746 -19.422   3.435  0.00  0.00    -0.274 OA
ATOM     20  C   LIG    1       27.495 -19.483   5.801  0.00  0.00    +0.109 C 
ATOM     21  C   LIG    1       27.424 -20.335   7.050  0.00  0.00    +0.022 C 
ATOM     22  C   LIG    1       26.669 -21.568   6.560  0.00  0.00    +0.039 C 
BRANCH  16  24
ATOM     23  N   LIG    1       23.438 -20.492   7.062  0.00  0.00    -0.195 NA
ATOM     24  C   LIG    1       24.367 -20.682   6.399  0.00  0.00    +0.085 C 
ENDBRANCH  16  24
ENDBRANCH  15  18
ENDBRANCH   1  15
TORSDOF 5
ENDMDL
MODEL 2
REMARK VINA RESULT:      -4.0      2.362      7.126
REMARK  Name = *****
REMARK                            x       y       z     vdW  Elec       q    Type
REMARK                         _______ _______ _______ _____ _____    ______ ____
ROOT
ATOM      1  N   LIG    1       22.153 -17.713   4.521  0.00  0.00    -0.302 NA
ATOM      2  H   LIG    1       21.285 -17.920   4.022  0.00  0.00    +0.123 HD
ENDROOT
BRANCH   1   3
ATOM      3  C   LIG    1       22.838 -18.974   4.872  0.00  0.00    +0.023 C 
ATOM      4  C   LIG    1       23.007 -19.056   6.422  0.00  0.00    +0.026 C 
ATOM      5  C   LIG    1       23.694 -20.381   6.828  0.00  0.00    -0.006 C 
ATOM      6  C   LIG    1       25.082 -20.452   6.178  0.00  0.00    +0.038 C 
ATOM      7  C   LIG    1       24.944 -20.372   4.650  0.00  0.00    +0.068 C 
ATOM      8  C   LIG    1       24.090 -21.547   4.147  0.00  0.00    +0.038 C 
ATOM      9  C   LIG    1       22.704 -21.512   4.810  0.00  0.00    -0.006 C 
ATOM     10  C   LIG    1       22.853 -21.572   6.336  0.00  0.00    +0.007 C 
ATOM     11  C   LIG    1       24.258 -19.051   4.259  0.00  0.00    +0.057 C 
ATOM     12  C   LIG    1       22.001 -20.202   4.436  0.00  0.00    +0.026 C 
BRANCH   7  13
ATOM     13  O   LIG    1       26.231 -20.418   4.047  0.00  0.00    -0.389 OA
ATOM     14  H   LIG    1       26.813 -20.948   4.619  0.00  0.00    +0.210 HD
ENDBRANCH   7  13
ENDBRANCH   1   3
BRANCH   1  15
ATOM     15  C   LIG    1       22.955 -16.785   3.684  0.00  0.00    +0.178 C 
BRANCH  15  18
ATOM     16  C   LIG    1       24.942 -13.649   4.789  0.00  0.00    +0.179 C 
ATOM     17  N   LIG    1       24.491 -14.882   4.137  0.00  0.00    -0.285 N 
ATOM     18  C   LIG    1       23.292 -15.485   4.434  0.00  0.00    +0.230 C 
ATOM     19  O   LIG    1       22.498 -14.983   5.233  0.00  0.00    -0.274 OA
ATOM     20  C   LIG    1       25.508 -15.433   3.260  0.00  0.00    +0.109 C 
ATOM     21  C   LIG    1       26.493 -14.298   3.077  0.00  0.00    +0.022 C 
ATOM     22  C   LIG    1       26.436 -13.597   4.433  0.00  0.00    +0.039 C 
BRANCH  16  24
ATOM     23  N   LIG    1       23.675 -11.536   3.841  0.00  0.00    -0.195 NA
ATOM     24  C   LIG    1       24.260 -12.434   4.275  0.00  0.00    +0.085 C 
ENDBRANCH  16  24
ENDBRANCH  15  18
ENDBRANCH   1  15
TORSDOF 5
ENDMDL
MODEL 3
REMARK VINA RESULT:      -3.9      2.326      7.272
REMARK  Name = *****
REMARK                            x       y       z     vdW  Elec       q    Type
REMARK                         _______ _______ _______ _____ _____    ______ ____
ROOT
ATOM      1  N   LIG    1       23.873 -17.745   3.316  0.00  0.00    -0.302 NA
ATOM      2  H   LIG    1       24.478 -17.827   2.496  0.00  0.00    +0.123 HD
ENDROOT
BRANCH   1   3
ATOM      3  C   LIG    1       23.924 -18.996   4.100  0.00  0.00    +0.023 C 
ATOM      4  C   LIG    1       22.696 -19.054   5.062  0.00  0.00    +0.026 C 
ATOM      5  C   LIG    1       22.700 -20.369   5.876  0.00  0.00    -0.006 C 
ATOM      6  C   LIG    1       23.984 -20.440   6.715  0.00  0.00    +0.038 C 
ATOM      7  C   LIG    1       25.211 -20.384   5.790  0.00  0.00    +0.068 C 
ATOM      8  C   LIG    1       25.176 -21.572   4.815  0.00  0.00    +0.038 C 
ATOM      9  C   LIG    1       23.882 -21.536   3.987  0.00  0.00    -0.006 C 
ATOM     10  C   LIG    1       22.664 -21.571   4.919  0.00  0.00    +0.007 C 
ATOM     11  C   LIG    1       25.193 -19.074   4.984  0.00  0.00    +0.057 C 
ATOM     12  C   LIG    1       23.841 -20.236   3.175  0.00  0.00    +0.026 C 
BRANCH   7  13
ATOM     13  O   LIG    1       26.400 -20.432   6.567  0.00  0.00    -0.389 OA
ATOM     14  H   LIG    1       27.142 -20.160   5.999  0.00  0.00    +0.210 HD
ENDBRANCH   7  13
ENDBRANCH   1   3
BRANCH   1  15
ATOM     15  C   LIG    1       24.277 -16.528   4.065  0.00  0.00    +0.178 C 
BRANCH  15  18
ATOM     16  C   LIG    1       26.240 -13.580   2.499  0.00  0.00    +0.179 C 
ATOM     17  N   LIG    1       25.244 -14.418   3.173  0.00  0.00    -0.285 N 
ATOM     18  C   LIG    1       25.412 -15.770   3.356  0.00  0.00    +0.230 C 
ATOM     19  O   LIG    1       26.446 -16.345   3.011  0.00  0.00    -0.274 OA
ATOM     20  C   LIG    1       24.039 -13.675   3.492  0.00  0.00    +0.109 C 
ATOM     21  C   LIG    1       24.447 -12.225   3.340  0.00  0.00    +0.022 C 
ATOM     22  C   LIG    1       25.459 -12.291   2.198  0.00  0.00    +0.039 C 
BRANCH  16  24
ATOM     23  N   LIG    1       28.363 -13.092   3.989  0.00  0.00    -0.195 NA
ATOM     24  C   LIG    1       27.415 -13.269   3.352  0.00  0.00    +0.085 C 
ENDBRANCH  16  24
ENDBRANCH  15  18
ENDBRANCH   1  15
TORSDOF 5
ENDMDL
MODEL 4
REMARK VINA RESULT:      -3.3      2.092      2.680
REMARK  Name = *****
REMARK                            x       y       z     vdW  Elec       q    Type
REMARK                         _______ _______ _______ _____ _____    ______ ____
ROOT
ATOM      1  N   LIG    1       23.201 -15.897   4.680  0.00  0.00    -0.302 NA
ATOM      2  H   LIG    1       23.663 -16.498   5.366  0.00  0.00    +0.123 HD
ENDROOT
BRANCH   1   3
ATOM      3  C   LIG    1       24.123 -14.822   4.260  0.00  0.00    +0.023 C 
ATOM      4  C   LIG    1       24.567 -14.002   5.512  0.00  0.00    +0.026 C 
ATOM      5  C   LIG    1       25.561 -12.886   5.111  0.00  0.00    -0.006 C 
ATOM      6  C   LIG    1       24.879 -11.935   4.117  0.00  0.00    +0.038 C 
ATOM      7  C   LIG    1       24.431 -12.718   2.874  0.00  0.00    +0.068 C 
ATOM      8  C   LIG    1       25.654 -13.362   2.201  0.00  0.00    +0.038 C 
ATOM      9  C   LIG    1       26.369 -14.296   3.191  0.00  0.00    -0.006 C 
ATOM     10  C   LIG    1       26.795 -13.509   4.437  0.00  0.00    +0.007 C 
ATOM     11  C   LIG    1       23.446 -13.826   3.285  0.00  0.00    +0.057 C 
ATOM     12  C   LIG    1       25.405 -15.409   3.617  0.00  0.00    +0.026 C 
BRANCH   7  13
ATOM     13  O   LIG    1       23.784 -11.842   1.961  0.00  0.00    -0.389 OA
ATOM     14  H   LIG    1       23.131 -12.359   1.458  0.00  0.00    +0.210 HD
ENDBRANCH   7  13
ENDBRANCH   1   3
BRANCH   1  15
ATOM     15  C   LIG    1       22.705 -16.755   3.575  0.00  0.00    +0.178 C 
BRANCH  15  18
ATOM     16  C   LIG    1       23.366 -20.469   4.453  0.00  0.00    +0.179 C 
ATOM     17  N   LIG    1       23.492 -19.067   4.044  0.00  0.00    -0.285 N 
ATOM     18  C   LIG    1       22.431 -18.194   4.046  0.00  0.00    +0.230 C 
ATOM     19  O   LIG    1       21.317 -18.532   4.452  0.00  0.00    -0.274 OA
ATOM     20  C   LIG    1       24.816 -18.772   3.528  0.00  0.00    +0.109 C 
ATOM     21  C   LIG    1       25.659 -19.947   3.978  0.00  0.00    +0.022 C 
ATOM     22  C   LIG    1       24.661 -21.102   3.922  0.00  0.00    +0.039 C 
BRANCH  16  24
ATOM     23  N   LIG    1       23.220 -20.854   7.061  0.00  0.00    -0.195 NA
ATOM     24  C   LIG    1       23.290 -20.642   5.926  0.00  0.00    +0.085 C 
ENDBRANCH  16  24
ENDBRANCH  15  18
ENDBRANCH   1  15
TORSDOF 5
ENDMDL
MODEL 5
REMARK VINA RESULT:      -3.0      2.228      3.222
REMARK  Name = *****
REMARK                            x       y       z     vdW  Elec       q    Type
REMARK                         _______ _______ _______ _____ _____    ______ ____
ROOT
ATOM      1  N   LIG    1       23.196 -15.963   4.715  0.00  0.00    -0.302 NA
ATOM      2  H   LIG    1       23.761 -16.552   5.332  0.00  0.00    +0.123 HD
ENDROOT
BRANCH   1   3
ATOM      3  C   LIG    1       23.984 -14.788   4.291  0.00  0.00    +0.023 C 
ATOM      4  C   LIG    1       23.208 -14.022   3.173  0.00  0.00    +0.026 C 
ATOM      5  C   LIG    1       23.991 -12.765   2.727  0.00  0.00    -0.006 C 
ATOM      6  C   LIG    1       25.358 -13.190   2.173  0.00  0.00    +0.038 C 
ATOM      7  C   LIG    1       26.143 -13.948   3.254  0.00  0.00    +0.068 C 
ATOM      8  C   LIG    1       26.352 -13.036   4.474  0.00  0.00    +0.038 C 
ATOM      9  C   LIG    1       24.995 -12.574   5.025  0.00  0.00    -0.006 C 
ATOM     10  C   LIG    1       24.210 -11.836   3.932  0.00  0.00    +0.007 C 
ATOM     11  C   LIG    1       25.354 -15.194   3.692  0.00  0.00    +0.057 C 
ATOM     12  C   LIG    1       24.188 -13.800   5.467  0.00  0.00    +0.026 C 
BRANCH   7  13
ATOM     13  O   LIG    1       27.402 -14.359   2.737  0.00  0.00    -0.389 OA
ATOM     14  H   LIG    1       27.247 -15.079   2.102  0.00  0.00    +0.210 HD
ENDBRANCH   7  13
ENDBRANCH   1   3
BRANCH   1  15
ATOM     15  C   LIG    1       22.698 -16.810   3.601  0.00  0.00    +0.178 C 
BRANCH  15  18
ATOM     16  C   LIG    1       23.363 -20.527   4.460  0.00  0.00    +0.179 C 
ATOM     17  N   LIG    1       23.489 -19.122   4.063  0.00  0.00    -0.285 N 
ATOM     18  C   LIG    1       22.424 -18.253   4.058  0.00  0.00    +0.230 C 
ATOM     19  O   LIG    1       21.306 -18.599   4.445  0.00  0.00    -0.274 OA
ATOM     20  C   LIG    1       24.819 -18.816   3.568  0.00  0.00    +0.109 C 
ATOM     21  C   LIG    1       25.660 -19.991   4.021  0.00  0.00    +0.022 C 
ATOM     22  C   LIG    1       24.669 -21.150   3.942  0.00  0.00    +0.039 C 
BRANCH  16  24
ATOM     23  N   LIG    1       23.173 -20.932   7.062  0.00  0.00    -0.195 NA
ATOM     24  C   LIG    1       23.267 -20.712   5.930  0.00  0.00    +0.085 C 
ENDBRANCH  16  24
ENDBRANCH  15  18
ENDBRANCH   1  15
TORSDOF 5
ENDMDL
MODEL 6
REMARK VINA RESULT:      -2.9      2.350      6.724
REMARK  Name = *****
REMARK                            x       y       z     vdW  Elec       q    Type
REMARK                         _______ _______ _______ _____ _____    ______ ____
ROOT
ATOM      1  N   LIG    1       26.307 -18.616   3.621  0.00  0.00    -0.302 NA
ATOM      2  H   LIG    1       26.960 -18.511   4.401  0.00  0.00    +0.123 HD
ENDROOT
BRANCH   1   3
ATOM      3  C   LIG    1       25.049 -19.222   4.104  0.00  0.00    +0.023 C 
ATOM      4  C   LIG    1       24.713 -20.476   3.237  0.00  0.00    +0.026 C 
ATOM      5  C   LIG    1       23.415 -21.154   3.736  0.00  0.00    -0.006 C 
ATOM      6  C   LIG    1       22.252 -20.159   3.631  0.00  0.00    +0.038 C 
ATOM      7  C   LIG    1       22.558 -18.912   4.476  0.00  0.00    +0.068 C 
ATOM      8  C   LIG    1       22.745 -19.319   5.946  0.00  0.00    +0.038 C 
ATOM      9  C   LIG    1       23.887 -20.340   6.069  0.00  0.00    -0.006 C 
ATOM     10  C   LIG    1       23.582 -21.572   5.206  0.00  0.00    +0.007 C 
ATOM     11  C   LIG    1       23.851 -18.248   3.972  0.00  0.00    +0.057 C 
ATOM     12  C   LIG    1       25.189 -19.701   5.570  0.00  0.00    +0.026 C 
BRANCH   7  13
ATOM     13  O   LIG    1       21.489 -17.982   4.366  0.00  0.00    -0.389 OA
ATOM     14  H   LIG    1       21.796 -17.127   4.712  0.00  0.00    +0.210 HD
ENDBRANCH   7  13
ENDBRANCH   1   3
BRANCH   1  15
ATOM     15  C   LIG    1       26.147 -17.290   2.972  0.00  0.00    +0.178 C 
BRANCH  15  18
ATOM     16  C   LIG    1       27.578 -13.801   3.854  0.00  0.00    +0.179 C 
ATOM     17  N   LIG    1       26.782 -14.911   3.323  0.00  0.00    -0.285 N 
ATOM     18  C   LIG    1       27.055 -16.226   3.613  0.00  0.00    +0.230 C 
ATOM     19  O   LIG    1       27.959 -16.542   4.390  0.00  0.00    -0.274 OA
ATOM     20  C   LIG    1       25.781 -14.455   2.375  0.00  0.00    +0.109 C 
ATOM     21  C   LIG    1       25.709 -12.961   2.605  0.00  0.00    +0.022 C 
ATOM     22  C   LIG    1       27.152 -12.618   2.970  0.00  0.00    +0.039 C 
BRANCH  16  24
ATOM     23  N   LIG    1       27.027 -13.337   6.393  0.00  0.00    -0.195 NA
ATOM     24  C   LIG    1       27.280 -13.497   5.276  0.00  0.00    +0.085 C 
ENDBRANCH  16  24
ENDBRANCH  15  18
ENDBRANCH   1  15
TORSDOF 5
ENDMDL
