MODEL 1
REMARK VINA RESULT:      -2.7      0.000      0.000
REMARK  Name = *****
REMARK                            x       y       z     vdW  Elec       q    Type
REMARK                         _______ _______ _______ _____ _____    ______ ____
ROOT
ATOM      1  C   LIG    1       25.425 -15.454   3.547  0.00  0.00    +0.170 A 
ATOM      2  C   LIG    1       25.126 -16.808   3.533  0.00  0.00    +0.075 A 
ATOM      3  C   LIG    1       25.863 -17.971   3.010  0.00  0.00    +0.163 C 
ATOM      4  N   LIG    1       26.175 -18.818   4.135  0.00  0.00    -0.295 N 
ATOM      5  C   LIG    1       25.219 -19.564   4.802  0.00  0.00    +0.249 C 
ATOM      6  C   LIG    1       23.769 -19.374   4.488  0.00  0.00    +0.063 A 
ATOM      7  C   LIG    1       23.133 -18.136   4.250  0.00  0.00    +0.060 A 
ATOM      8  C   LIG    1       21.727 -18.079   4.162  0.00  0.00    +0.029 A 
ATOM      9  C   LIG    1       20.967 -19.244   4.278  0.00  0.00    +0.040 A 
ATOM     10  C   LIG    1       21.599 -20.458   4.498  0.00  0.00    +0.124 A 
ATOM     11  F   LIG    1       20.865 -21.572   4.612  0.00  0.00    -0.205 F 
ATOM     12  C   LIG    1       22.980 -20.532   4.613  0.00  0.00    +0.053 A 
ATOM     13  O   LIG    1       25.509 -20.393   5.664  0.00  0.00    -0.270 OA
ATOM     14  C   LIG    1       27.575 -18.914   4.522  0.00  0.00    +0.133 C 
ATOM     15  N   LIG    1       23.865 -16.932   4.074  0.00  0.00    -0.300 N 
ATOM     16  C   LIG    1       23.433 -15.651   4.329  0.00  0.00    +0.205 A 
ATOM     17  N   LIG    1       24.341 -14.749   4.040  0.00  0.00    -0.229 NA
ENDROOT
BRANCH   1  18
ATOM     18  C   LIG    1       26.666 -14.825   3.087  0.00  0.00    +0.359 C 
ATOM     19  O   LIG    1       26.838 -14.447   1.931  0.00  0.00    -0.243 OA
BRANCH  18  20
ATOM     20  O   LIG    1       27.597 -14.703   4.077  0.00  0.00    -0.460 OA
BRANCH  20  22
ATOM     21  C   LIG    1       28.728 -12.565   4.193  0.00  0.00    +0.048 C 
ATOM     22  C   LIG    1       27.622 -13.440   4.752  0.00  0.00    +0.229 C 
ENDBRANCH  20  22
ENDBRANCH  18  20
ENDBRANCH   1  18
TORSDOF 3
ENDMDL
MODEL 2
REMARK VINA RESULT:      -1.8      3.172      6.246
REMARK  Name = *****
REMARK                            x       y       z     vdW  Elec       q    Type
REMARK                         _______ _______ _______ _____ _____    ______ ____
ROOT
ATOM      1  C   LIG    1       25.507 -19.512   4.097  0.00  0.00    +0.170 A 
ATOM      2  C   LIG    1       24.883 -18.329   3.731  0.00  0.00    +0.075 A 
ATOM      3  C   LIG    1       23.508 -18.039   3.289  0.00  0.00    +0.163 C 
ATOM      4  N   LIG    1       22.919 -17.167   4.275  0.00  0.00    -0.295 N 
ATOM      5  C   LIG    1       23.288 -15.841   4.421  0.00  0.00    +0.249 C 
ATOM      6  C   LIG    1       24.462 -15.303   3.667  0.00  0.00    +0.063 A 
ATOM      7  C   LIG    1       25.684 -15.978   3.456  0.00  0.00    +0.060 A 
ATOM      8  C   LIG    1       26.778 -15.282   2.901  0.00  0.00    +0.029 A 
ATOM      9  C   LIG    1       26.646 -13.943   2.530  0.00  0.00    +0.040 A 
ATOM     10  C   LIG    1       25.438 -13.292   2.726  0.00  0.00    +0.124 A 
ATOM     11  F   LIG    1       25.318 -12.007   2.372  0.00  0.00    -0.205 F 
ATOM     12  C   LIG    1       24.357 -13.951   3.296  0.00  0.00    +0.053 A 
ATOM     13  O   LIG    1       22.685 -15.064   5.161  0.00  0.00    -0.270 OA
ATOM     14  C   LIG    1       21.855 -17.722   5.097  0.00  0.00    +0.133 C 
ATOM     15  N   LIG    1       25.854 -17.352   3.770  0.00  0.00    -0.300 N 
ATOM     16  C   LIG    1       27.027 -17.994   4.092  0.00  0.00    +0.205 A 
ATOM     17  N   LIG    1       26.854 -19.277   4.306  0.00  0.00    -0.229 NA
ENDROOT
BRANCH   1  18
ATOM     18  C   LIG    1       24.881 -20.833   4.218  0.00  0.00    +0.359 C 
ATOM     19  O   LIG    1       24.165 -21.318   3.347  0.00  0.00    -0.243 OA
BRANCH  18  20
ATOM     20  O   LIG    1       25.185 -21.457   5.393  0.00  0.00    -0.460 OA
BRANCH  20  22
ATOM     21  C   LIG    1       23.231 -20.878   6.701  0.00  0.00    +0.048 C 
ATOM     22  C   LIG    1       24.741 -20.792   6.581  0.00  0.00    +0.229 C 
ENDBRANCH  20  22
ENDBRANCH  18  20
ENDBRANCH   1  18
TORSDOF 3
ENDMDL
