MODEL 1
REMARK VINA RESULT:       0.1      0.000      0.000
REMARK  Name = *****
REMARK                            x       y       z     vdW  Elec       q    Type
REMARK                         _______ _______ _______ _____ _____    ______ ____
ROOT
ATOM      1  C   LIG    1       25.880 -14.204   3.413  0.00  0.00    -0.009 C 
ATOM      2  C   LIG    1       25.014 -15.243   2.721  0.00  0.00    +0.108 C 
ATOM      3  S   LIG    1       25.242 -16.901   3.420  0.00  0.00    -0.131 S 
ATOM      4  C   LIG    1       27.029 -16.862   3.142  0.00  0.00    +0.169 C 
ATOM      5  N   LIG    1       27.614 -15.748   3.880  0.00  0.00    -0.249 N 
ATOM      6  C   LIG    1       28.439 -16.501   4.631  0.00  0.00    +0.244 C 
ATOM      7  O   LIG    1       29.166 -16.194   5.563  0.00  0.00    -0.273 OA
ATOM      8  CA  LIG    1       27.899 -17.809   4.022  0.00  0.00    +0.191 C 
ATOM      9  CA  LIG    1       27.099 -14.474   3.960  0.00  0.00    +0.126 C 
ENDROOT
BRANCH   8  10
ATOM     10  N   LIG    1       27.201 -18.733   4.965  0.00  0.00    -0.300 N 
ATOM     11  H   LIG    1       26.202 -18.922   4.907  0.00  0.00    +0.150 HD
ATOM     12  C   LIG    1       27.887 -19.317   6.013  0.00  0.00    +0.235 C 
ATOM     13  O   LIG    1       29.075 -19.059   6.195  0.00  0.00    -0.274 OA
BRANCH  12  14
ATOM     14  CA  LIG    1       27.054 -20.326   6.861  0.00  0.00    +0.168 C 
BRANCH  14  15
ATOM     15  C   LIG    1       25.666 -20.633   6.318  0.00  0.00    -0.022 A 
ATOM     16  C   LIG    1       24.500 -20.386   7.061  0.00  0.00    +0.009 A 
ATOM     17  C   LIG    1       23.241 -20.715   6.557  0.00  0.00    +0.045 A 
ATOM     18  C   LIG    1       23.129 -21.256   5.285  0.00  0.00    +0.117 A 
ATOM     19  C   LIG    1       24.259 -21.469   4.503  0.00  0.00    +0.045 A 
ATOM     20  C   LIG    1       25.522 -21.157   5.019  0.00  0.00    +0.009 A 
BRANCH  18  21
ATOM     21  O   LIG    1       21.879 -21.560   4.835  0.00  0.00    -0.507 OA
ATOM     22  H   LIG    1       21.328 -20.763   4.880  0.00  0.00    +0.292 HD
ENDBRANCH  18  21
ENDBRANCH  14  15
BRANCH  14  23
ATOM     23  N   LIG    1       27.830 -21.572   7.054  0.00  0.00    -0.316 NA
ATOM     24  H1  LIG    1       28.797 -21.305   7.252  0.00  0.00    +0.119 HD
ATOM     25  H2  LIG    1       27.508 -22.010   7.920  0.00  0.00    +0.119 HD
ENDBRANCH  14  23
ENDBRANCH  12  14
ENDBRANCH   8  10
BRANCH   1  28
ATOM     26  C   LIG    1       23.195 -11.447   3.810  0.00  0.00    +0.035 C 
ATOM     27  C   LIG    1       23.889 -12.771   3.761  0.00  0.00    -0.030 C 
ATOM     28  C   LIG    1       25.200 -12.913   3.511  0.00  0.00    +0.002 C 
ENDBRANCH   1  28
BRANCH   9  29
ATOM     29  C   LIG    1       27.893 -13.365   4.638  0.00  0.00    +0.352 C 
ATOM     30  O   LIG    1       28.843 -12.791   4.125  0.00  0.00    -0.244 OA
BRANCH  29  31
ATOM     31  OXT LIG    1       27.536 -13.037   5.895  0.00  0.00    -0.476 OA
ATOM     32  HXT LIG    1       26.816 -12.378   5.999  0.00  0.00    +0.295 HD
ENDBRANCH  29  31
ENDBRANCH   9  29
TORSDOF 8
ENDMDL
MODEL 2
REMARK VINA RESULT:       2.3      2.454      8.002
REMARK  Name = *****
REMARK                            x       y       z     vdW  Elec       q    Type
REMARK                         _______ _______ _______ _____ _____    ______ ____
ROOT
ATOM      1  C   LIG    1       26.109 -20.074   5.107  0.00  0.00    -0.009 C 
ATOM      2  C   LIG    1       26.933 -19.139   4.237  0.00  0.00    +0.108 C 
ATOM      3  S   LIG    1       26.120 -17.537   3.991  0.00  0.00    -0.131 S 
ATOM      4  C   LIG    1       24.617 -18.307   3.344  0.00  0.00    +0.169 C 
ATOM      5  N   LIG    1       24.045 -19.189   4.355  0.00  0.00    -0.249 N 
ATOM      6  C   LIG    1       22.862 -18.553   4.437  0.00  0.00    +0.244 C 
ATOM      7  O   LIG    1       21.921 -18.721   5.198  0.00  0.00    -0.273 OA
ATOM      8  CA  LIG    1       23.305 -17.473   3.432  0.00  0.00    +0.191 C 
ATOM      9  CA  LIG    1       24.746 -20.068   5.150  0.00  0.00    +0.126 C 
ENDROOT
BRANCH   8  10
ATOM     10  N   LIG    1       23.390 -16.078   3.963  0.00  0.00    -0.300 N 
ATOM     11  H   LIG    1       22.838 -15.761   4.757  0.00  0.00    +0.150 HD
ATOM     12  C   LIG    1       24.182 -15.136   3.336  0.00  0.00    +0.235 C 
ATOM     13  O   LIG    1       24.805 -15.429   2.317  0.00  0.00    -0.274 OA
BRANCH  12  14
ATOM     14  CA  LIG    1       24.243 -13.751   4.049  0.00  0.00    +0.168 C 
BRANCH  14  15
ATOM     15  C   LIG    1       25.644 -13.257   4.381  0.00  0.00    -0.022 A 
ATOM     16  C   LIG    1       26.204 -13.402   5.661  0.00  0.00    +0.009 A 
ATOM     17  C   LIG    1       27.475 -12.903   5.951  0.00  0.00    +0.045 A 
ATOM     18  C   LIG    1       28.220 -12.293   4.953  0.00  0.00    +0.117 A 
ATOM     19  C   LIG    1       27.715 -12.176   3.663  0.00  0.00    +0.045 A 
ATOM     20  C   LIG    1       26.431 -12.659   3.379  0.00  0.00    +0.009 A 
BRANCH  18  21
ATOM     21  O   LIG    1       29.456 -11.823   5.284  0.00  0.00    -0.507 OA
ATOM     22  H   LIG    1       29.475 -10.864   5.136  0.00  0.00    +0.292 HD
ENDBRANCH  18  21
ENDBRANCH  14  15
BRANCH  14  23
ATOM     23  N   LIG    1       23.509 -12.747   3.247  0.00  0.00    -0.316 NA
ATOM     24  H1  LIG    1       22.792 -12.336   3.849  0.00  0.00    +0.119 HD
ATOM     25  H2  LIG    1       24.148 -11.973   3.054  0.00  0.00    +0.119 HD
ENDBRANCH  14  23
ENDBRANCH  12  14
ENDBRANCH   8  10
BRANCH   1  28
ATOM     26  C   LIG    1       29.118 -21.521   7.062  0.00  0.00    +0.035 C 
ATOM     27  C   LIG    1       28.247 -20.640   6.223  0.00  0.00    -0.030 C 
ATOM     28  C   LIG    1       26.957 -20.902   5.965  0.00  0.00    +0.002 C 
ENDBRANCH   1  28
BRANCH   9  29
ATOM     29  C   LIG    1       24.008 -21.042   6.058  0.00  0.00    +0.352 C 
ATOM     30  O   LIG    1       24.502 -21.563   7.048  0.00  0.00    -0.244 OA
BRANCH  29  31
ATOM     31  OXT LIG    1       22.748 -21.368   5.711  0.00  0.00    -0.476 OA
ATOM     32  HXT LIG    1       22.075 -21.382   6.426  0.00  0.00    +0.295 HD
ENDBRANCH  29  31
ENDBRANCH   9  29
TORSDOF 8
ENDMDL
