MODEL 1
REMARK VINA RESULT:      -6.3      0.000      0.000
REMARK  Name = *****
REMARK                            x       y       z     vdW  Elec       q    Type
REMARK                         _______ _______ _______ _____ _____    ______ ____
ROOT
ATOM      1  C   LIG    1       25.510 -20.461   5.906  0.00  0.00    +0.149 A 
ATOM      2  C   LIG    1       25.222 -20.639   7.265  0.00  0.00    +0.117 A 
ATOM      3  C   LIG    1       26.239 -20.601   8.217  0.00  0.00    +0.123 A 
ATOM      4  C   LIG    1       27.559 -20.373   7.852  0.00  0.00    +0.046 A 
ATOM      5  C   LIG    1       27.858 -20.157   6.510  0.00  0.00    +0.010 A 
ATOM      6  C   LIG    1       26.841 -20.183   5.546  0.00  0.00    +0.072 A 
ENDROOT
BRANCH   1   7
ATOM      7  N   LIG    1       24.397 -20.462   4.864  0.00  0.00    -0.381 NA
ATOM      8  C   LIG    1       24.727 -19.520   3.701  0.00  0.00    +0.361 C 
ATOM      9  C   LIG    1       24.304 -21.892   4.325  0.00  0.00    +0.361 C 
BRANCH   7  11
ATOM     10  C   LIG    1       22.354 -18.911   4.708  0.00  0.00    +0.076 C 
ATOM     11  C   LIG    1       23.027 -20.061   5.446  0.00  0.00    +0.282 C 
ENDBRANCH   7  11
ENDBRANCH   1   7
BRANCH   3  12
ATOM     12  O   LIG    1       25.881 -20.786   9.518  0.00  0.00    -0.507 OA
ATOM     13  H   LIG    1       26.175 -20.024  10.051  0.00  0.00    +0.292 HD
ENDBRANCH   3  12
TORSDOF 3
ENDMDL
MODEL 2
REMARK VINA RESULT:      -6.2      2.697      4.648
REMARK  Name = *****
REMARK                            x       y       z     vdW  Elec       q    Type
REMARK                         _______ _______ _______ _____ _____    ______ ____
ROOT
ATOM      1  C   LIG    1       23.948 -21.212   5.580  0.00  0.00    +0.149 A 
ATOM      2  C   LIG    1       24.952 -20.666   4.770  0.00  0.00    +0.117 A 
ATOM      3  C   LIG    1       24.694 -19.553   3.972  0.00  0.00    +0.123 A 
ATOM      4  C   LIG    1       23.445 -18.946   3.965  0.00  0.00    +0.046 A 
ATOM      5  C   LIG    1       22.447 -19.453   4.792  0.00  0.00    +0.010 A 
ATOM      6  C   LIG    1       22.699 -20.566   5.606  0.00  0.00    +0.072 A 
ENDROOT
BRANCH   1   7
ATOM      7  N   LIG    1       24.236 -22.405   6.485  0.00  0.00    -0.381 NA
ATOM      8  C   LIG    1       24.929 -21.963   7.779  0.00  0.00    +0.361 C 
ATOM      9  C   LIG    1       22.881 -23.020   6.841  0.00  0.00    +0.361 C 
BRANCH   7  11
ATOM     10  C   LIG    1       25.718 -24.484   6.774  0.00  0.00    +0.076 C 
ATOM     11  C   LIG    1       25.107 -23.480   5.806  0.00  0.00    +0.282 C 
ENDBRANCH   7  11
ENDBRANCH   1   7
BRANCH   3  12
ATOM     12  O   LIG    1       25.719 -19.082   3.210  0.00  0.00    -0.507 OA
ATOM     13  H   LIG    1       25.831 -19.647   2.424  0.00  0.00    +0.292 HD
ENDBRANCH   3  12
TORSDOF 3
ENDMDL
MODEL 3
REMARK VINA RESULT:      -6.1      1.666      2.212
REMARK  Name = *****
REMARK                            x       y       z     vdW  Elec       q    Type
REMARK                         _______ _______ _______ _____ _____    ______ ____
ROOT
ATOM      1  C   LIG    1       24.968 -20.684   6.266  0.00  0.00    +0.149 A 
ATOM      2  C   LIG    1       26.135 -20.450   5.529  0.00  0.00    +0.117 A 
ATOM      3  C   LIG    1       27.356 -20.261   6.175  0.00  0.00    +0.123 A 
ATOM      4  C   LIG    1       27.454 -20.313   7.559  0.00  0.00    +0.046 A 
ATOM      5  C   LIG    1       26.311 -20.582   8.304  0.00  0.00    +0.010 A 
ATOM      6  C   LIG    1       25.080 -20.784   7.664  0.00  0.00    +0.072 A 
ENDROOT
BRANCH   1   7
ATOM      7  N   LIG    1       23.637 -20.931   5.564  0.00  0.00    -0.381 NA
ATOM      8  C   LIG    1       23.843 -21.222   4.073  0.00  0.00    +0.361 C 
ATOM      9  C   LIG    1       23.018 -22.167   6.222  0.00  0.00    +0.361 C 
BRANCH   7  11
ATOM     10  C   LIG    1       22.526 -18.904   4.442  0.00  0.00    +0.076 C 
ATOM     11  C   LIG    1       22.655 -19.751   5.701  0.00  0.00    +0.282 C 
ENDBRANCH   7  11
ENDBRANCH   1   7
BRANCH   3  12
ATOM     12  O   LIG    1       28.447 -20.035   5.391  0.00  0.00    -0.507 OA
ATOM     13  H   LIG    1       28.823 -19.160   5.596  0.00  0.00    +0.292 HD
ENDBRANCH   3  12
TORSDOF 3
ENDMDL
MODEL 4
REMARK VINA RESULT:      -6.1      3.015      4.684
REMARK  Name = *****
REMARK                            x       y       z     vdW  Elec       q    Type
REMARK                         _______ _______ _______ _____ _____    ______ ____
ROOT
ATOM      1  C   LIG    1       25.468 -22.700   6.873  0.00  0.00    +0.149 A 
ATOM      2  C   LIG    1       24.068 -22.664   6.856  0.00  0.00    +0.117 A 
ATOM      3  C   LIG    1       23.329 -23.829   6.655  0.00  0.00    +0.123 A 
ATOM      4  C   LIG    1       23.955 -25.056   6.480  0.00  0.00    +0.046 A 
ATOM      5  C   LIG    1       25.343 -25.116   6.532  0.00  0.00    +0.010 A 
ATOM      6  C   LIG    1       26.095 -23.952   6.744  0.00  0.00    +0.072 A 
ENDROOT
BRANCH   1   7
ATOM      7  N   LIG    1       26.279 -21.436   7.133  0.00  0.00    -0.381 NA
ATOM      8  C   LIG    1       26.186 -20.466   5.950  0.00  0.00    +0.361 C 
ATOM      9  C   LIG    1       25.663 -20.767   8.364  0.00  0.00    +0.361 C 
BRANCH   7  11
ATOM     10  C   LIG    1       28.720 -20.699   6.813  0.00  0.00    +0.076 C 
ATOM     11  C   LIG    1       27.767 -21.723   7.416  0.00  0.00    +0.282 C 
ENDBRANCH   7  11
ENDBRANCH   1   7
BRANCH   3  12
ATOM     12  O   LIG    1       21.972 -23.712   6.648  0.00  0.00    -0.507 OA
ATOM     13  H   LIG    1       21.649 -23.587   7.560  0.00  0.00    +0.292 HD
ENDBRANCH   3  12
TORSDOF 3
ENDMDL
MODEL 5
REMARK VINA RESULT:      -5.9      2.633      4.216
REMARK  Name = *****
REMARK                            x       y       z     vdW  Elec       q    Type
REMARK                         _______ _______ _______ _____ _____    ______ ____
ROOT
ATOM      1  C   LIG    1       24.348 -20.601   5.658  0.00  0.00    +0.149 A 
ATOM      2  C   LIG    1       23.096 -20.012   5.444  0.00  0.00    +0.117 A 
ATOM      3  C   LIG    1       22.900 -19.124   4.388  0.00  0.00    +0.123 A 
ATOM      4  C   LIG    1       23.930 -18.807   3.513  0.00  0.00    +0.046 A 
ATOM      5  C   LIG    1       25.170 -19.412   3.688  0.00  0.00    +0.010 A 
ATOM      6  C   LIG    1       25.376 -20.315   4.741  0.00  0.00    +0.072 A 
ENDROOT
BRANCH   1   7
ATOM      7  N   LIG    1       24.558 -21.604   6.787  0.00  0.00    -0.381 NA
ATOM      8  C   LIG    1       25.451 -22.766   6.336  0.00  0.00    +0.361 C 
ATOM      9  C   LIG    1       25.268 -20.851   7.914  0.00  0.00    +0.361 C 
BRANCH   7  11
ATOM     10  C   LIG    1       22.888 -23.557   6.772  0.00  0.00    +0.076 C 
ATOM     11  C   LIG    1       23.238 -22.184   7.330  0.00  0.00    +0.282 C 
ENDBRANCH   7  11
ENDBRANCH   1   7
BRANCH   3  12
ATOM     12  O   LIG    1       21.655 -18.590   4.247  0.00  0.00    -0.507 OA
ATOM     13  H   LIG    1       21.266 -18.884   3.402  0.00  0.00    +0.292 HD
ENDBRANCH   3  12
TORSDOF 3
ENDMDL
MODEL 6
REMARK VINA RESULT:      -5.9      1.976      2.810
REMARK  Name = *****
REMARK                            x       y       z     vdW  Elec       q    Type
REMARK                         _______ _______ _______ _____ _____    ______ ____
ROOT
ATOM      1  C   LIG    1       25.122 -20.853   6.574  0.00  0.00    +0.149 A 
ATOM      2  C   LIG    1       26.183 -20.571   5.704  0.00  0.00    +0.117 A 
ATOM      3  C   LIG    1       27.439 -20.230   6.202  0.00  0.00    +0.123 A 
ATOM      4  C   LIG    1       27.680 -20.173   7.568  0.00  0.00    +0.046 A 
ATOM      5  C   LIG    1       26.647 -20.486   8.447  0.00  0.00    +0.010 A 
ATOM      6  C   LIG    1       25.383 -20.840   7.955  0.00  0.00    +0.072 A 
ENDROOT
BRANCH   1   7
ATOM      7  N   LIG    1       23.757 -21.266   6.034  0.00  0.00    -0.381 NA
ATOM      8  C   LIG    1       22.851 -20.046   5.830  0.00  0.00    +0.361 C 
ATOM      9  C   LIG    1       24.006 -21.923   4.674  0.00  0.00    +0.361 C 
BRANCH   7  11
ATOM     10  C   LIG    1       23.390 -23.726   6.678  0.00  0.00    +0.076 C 
ATOM     11  C   LIG    1       23.028 -22.271   6.946  0.00  0.00    +0.282 C 
ENDBRANCH   7  11
ENDBRANCH   1   7
BRANCH   3  12
ATOM     12  O   LIG    1       28.419 -19.967   5.294  0.00  0.00    -0.507 OA
ATOM     13  H   LIG    1       28.505 -20.717   4.677  0.00  0.00    +0.292 HD
ENDBRANCH   3  12
TORSDOF 3
ENDMDL
MODEL 7
REMARK VINA RESULT:      -5.9      3.158      5.661
REMARK  Name = *****
REMARK                            x       y       z     vdW  Elec       q    Type
REMARK                         _______ _______ _______ _____ _____    ______ ____
ROOT
ATOM      1  C   LIG    1       28.464 -19.995   7.378  0.00  0.00    +0.149 A 
ATOM      2  C   LIG    1       28.070 -19.949   6.035  0.00  0.00    +0.117 A 
ATOM      3  C   LIG    1       26.759 -20.251   5.669  0.00  0.00    +0.123 A 
ATOM      4  C   LIG    1       25.807 -20.591   6.621  0.00  0.00    +0.046 A 
ATOM      5  C   LIG    1       26.172 -20.604   7.963  0.00  0.00    +0.010 A 
ATOM      6  C   LIG    1       27.485 -20.292   8.342  0.00  0.00    +0.072 A 
ENDROOT
BRANCH   1   7
ATOM      7  N   LIG    1       29.886 -19.626   7.787  0.00  0.00    -0.381 NA
ATOM      8  C   LIG    1       30.602 -20.818   8.433  0.00  0.00    +0.361 C 
ATOM      9  C   LIG    1       30.627 -19.249   6.502  0.00  0.00    +0.361 C 
BRANCH   7  11
ATOM     10  C   LIG    1       31.338 -17.854   8.952  0.00  0.00    +0.076 C 
ATOM     11  C   LIG    1       29.942 -18.434   8.762  0.00  0.00    +0.282 C 
ENDBRANCH   7  11
ENDBRANCH   1   7
BRANCH   3  12
ATOM     12  O   LIG    1       26.452 -20.188   4.344  0.00  0.00    -0.507 OA
ATOM     13  H   LIG    1       25.579 -19.769   4.229  0.00  0.00    +0.292 HD
ENDBRANCH   3  12
TORSDOF 3
ENDMDL
MODEL 8
REMARK VINA RESULT:      -5.8      3.080      4.610
REMARK  Name = *****
REMARK                            x       y       z     vdW  Elec       q    Type
REMARK                         _______ _______ _______ _____ _____    ______ ____
ROOT
ATOM      1  C   LIG    1       24.732 -22.716   6.782  0.00  0.00    +0.149 A 
ATOM      2  C   LIG    1       25.785 -23.591   6.485  0.00  0.00    +0.117 A 
ATOM      3  C   LIG    1       25.540 -24.943   6.253  0.00  0.00    +0.123 A 
ATOM      4  C   LIG    1       24.252 -25.459   6.296  0.00  0.00    +0.046 A 
ATOM      5  C   LIG    1       23.190 -24.597   6.552  0.00  0.00    +0.010 A 
ATOM      6  C   LIG    1       23.424 -23.233   6.776  0.00  0.00    +0.072 A 
ENDROOT
BRANCH   1   7
ATOM      7  N   LIG    1       24.989 -21.228   6.996  0.00  0.00    -0.381 NA
ATOM      8  C   LIG    1       25.715 -20.613   5.795  0.00  0.00    +0.361 C 
ATOM      9  C   LIG    1       23.617 -20.563   7.132  0.00  0.00    +0.361 C 
BRANCH   7  11
ATOM     10  C   LIG    1       27.198 -20.372   7.991  0.00  0.00    +0.076 C 
ATOM     11  C   LIG    1       25.811 -20.936   8.267  0.00  0.00    +0.282 C 
ENDBRANCH   7  11
ENDBRANCH   1   7
BRANCH   3  12
ATOM     12  O   LIG    1       26.615 -25.732   5.974  0.00  0.00    -0.507 OA
ATOM     13  H   LIG    1       27.311 -25.198   5.548  0.00  0.00    +0.292 HD
ENDBRANCH   3  12
TORSDOF 3
ENDMDL
MODEL 9
REMARK VINA RESULT:      -5.8      2.383      4.631
REMARK  Name = *****
REMARK                            x       y       z     vdW  Elec       q    Type
REMARK                         _______ _______ _______ _____ _____    ______ ____
ROOT
ATOM      1  C   LIG    1       25.209 -20.843   6.380  0.00  0.00    +0.149 A 
ATOM      2  C   LIG    1       25.694 -20.394   5.146  0.00  0.00    +0.117 A 
ATOM      3  C   LIG    1       24.827 -19.865   4.192  0.00  0.00    +0.123 A 
ATOM      4  C   LIG    1       23.466 -19.755   4.439  0.00  0.00    +0.046 A 
ATOM      5  C   LIG    1       22.972 -20.162   5.674  0.00  0.00    +0.010 A 
ATOM      6  C   LIG    1       23.836 -20.686   6.645  0.00  0.00    +0.072 A 
ENDROOT
BRANCH   1   7
ATOM      7  N   LIG    1       26.158 -21.386   7.444  0.00  0.00    -0.381 NA
ATOM      8  C   LIG    1       25.970 -20.655   8.778  0.00  0.00    +0.361 C 
ATOM      9  C   LIG    1       25.798 -22.861   7.639  0.00  0.00    +0.361 C 
BRANCH   7  11
ATOM     10  C   LIG    1       28.380 -20.116   7.671  0.00  0.00    +0.076 C 
ATOM     11  C   LIG    1       27.640 -21.286   7.035  0.00  0.00    +0.282 C 
ENDBRANCH   7  11
ENDBRANCH   1   7
BRANCH   3  12
ATOM     12  O   LIG    1       25.374 -19.452   3.015  0.00  0.00    -0.507 OA
ATOM     13  H   LIG    1       24.665 -19.234   2.382  0.00  0.00    +0.292 HD
ENDBRANCH   3  12
TORSDOF 3
ENDMDL
